data_image0
_chemical_formula_structural       HFeS2FeS2FeSFeS3FeS2FeS2FeSFeS3CHC6H4C6H5C6H6C3H3C3HCHPC7HC2H6C5HCH3CH4CH7C3H2C2H3CH2SH2SCHC2HC5H2C3H5CHC2HCH2CHC7HCHC2HC2H2CHC3HC2HC3HC3HC8PC18HCH16C2H2CHC2H2C2H2C2HC3HCHC5H2CH2CH4C3HCPC5HC2HC2H2C2H2C6HS2C2FeS2FeSHCFeSCSFeSFeS2FeSFeS3FeS2FeHFeSFeS3FeS2Fe2SFeS3CHC4H3C2HC8H4CPSC8H4CHC6H3SH2C6HC4HC2HC3H4CHCH2CH2C2HCHC2HCHCH2CHC5H2C2H3C5H2C3HC3H2C2H8C6PH2C3H4C5PCHCH4C4HCH3CH2CH3CH4C2HCH3CHCPHC6H2C2H3CHC3HCHCFeSCH2CH2CH2CH2CHC4H2C2SC2H2CH2PH2C5HS2FeS2FeS2FeSFeS3FeS2H2C2HC4HC3HC6H4C6H2CHC6H5CH2C6H3CH3CH4CHCSC6H6CH6C4H2C2HCH3C5H3C3HC2HC3HFeC3H2C2H5CHCHC2PC2H2C4H3C3HC4HC2H6C2H2C6H5C2HC7PC7HCH2C6H5CH5CH6CPC4HC7H3C3H6PHCHCSC2PC8HC3HCHCHC7HCH4CH2CPHC5HC5HCH6C4H2C3H2PH2CHCHCHCH2CH2CH2CSCHCHFeCSC3H2FeSCFeSHFeCFeSHS2HFeHFeS2FeSFeS3FeHSC3HSCH4C6H2CPC6H4C6H4SC6SCHC2H4C2H2CPCHC12H13CH4SHC3SC2H3C2HC3H3CHCHC6PC18H21CHC3PC4HC6HC11HCH5CH5C2H5C2SCSC3H3CHSHC2HC3SHCHCH3CH2S2C2H2SHCH3FeCH3CSH2C2HCHCHCHCH2CH2CSFeS2FeS2FeHFeS2FeHSFeCSC2HCS2H4CHCHC7HCHC4H4C5HC6H3SC6H4C6PC8H4C6H5C2SH3CH8PC14H2CH6C8PHPHCHFeH8C2H8CHCHCH3CH2CHC6H2C2H2CHCHCH4C2HC3HCHCHCH2C2HC3HC2HC13PC2HC2H3C5HC2HCHCHCHC10HSC2HCHCFeCHCHCH4CHPH3CH2C4HC2SH3PH2CH2CH2C2HCH3C2H2C2H2CHCHCSFeS2FeSFeS2CSFeSHFeHFeSHSFeCFeH2C3S2FeS2C2Fe2S3HCHCHC2H2C8H3C7H2C3HC4SH3FeH4CHPC19H5SCH2CH8C2H2CH3C2HC3HC2H7C3H2CHCH2PH3SCH3SH3C2FeH5C5PC7HCHSC3H3PH2CH2C2FeS2FeS2FeSFeS3FeS2FeS2FeSFeS3HSHCSHCHC7H4PC5H3C7H4C6H4C2HC3H2C3HCHCHC5HCH3C5HPC12H4C2H6CH3C7PC18H11PH7CHC5HCHCHC2H3CH6C2HC9H3C2HC5HCH3C2HC6HC2H2CHC2PC5HC2HCH5PC2HC2H4CFeH3C2H6CHC2H2CH3C3HCHCHC3HC3PH3C9H2C2HC2HCH3C2H4CHC2HCH3CH5CSC3HC2HSPH3C7H2CHCH2C7HCHC2HCHCH3CHC4PCH2C4HC2H3PH2CHPHC3H4CSHC2FeSHFeS2FeS3FeS2FeHFeSCSFeS2FeS2FeCFeS3FeS2FeS2Fe2S3H2C2HCHC7H3C7HC2SHCHC6H4C8HC6H4C4HCHC3HC3HC6PC18H20C4HC4PHCH3C2H2CHCHCH2CHC3H2CHCHCH3C2H3C2H2C8PC19H18CH2C2H2CHC3H3C2SH2CHC3HCH2CHCH2C3HC3HC2H2SHCPCHCHPC2HCH2PCPCHCHCPH2CH2SCHC2HCHC6H4C2HPHC2H2CHC3H3CH2C5HSH2C9H2C2H4CHC2HC2HCH2CH2SCHSH5C3H3C3H4C2H2C2H2CH2C2H3SH3CH2CHCHCH3C4H2C4HC2HCHFeS2FeS2FeS2CFeSCSFeS2FeS2FeS3C8H2CHC6H3C6H4C6H4C6HCH2CH2C5HC3H2CH3CH2CH3CHCH3CH3C9H4CH9CPCHCHC2H3C2HC2HPCHCHC3H2C3HCHC2HCFeCH2C2H3SC4HCHC3HCHC5PC8HC6HC2H5CH11C2H2C4H2C2HFeS2Fe2SCSHFeS2CSFe2S2FeSHFeSHFeSHSFeSC2HFeSC9H2CHC2HC3FeCH2C4SC5HSH2CH2C6PC7H2C6H2CH5SCHCH5CHCSH3C3H3C2HSC4PH2CHCHC2HCH2CHC2SCH5CHCH4CHCH2CSC5HCHFeH2SHC2H2CH3SH2FeHFeH4C3HCH2CH2C2HCHC2HCPHSHCH3C6HCHCH2C2H2CH2C2H3CHC2H4C2HCHCSCHC2H3CHC7HPH3C4HCHCH3CHPCH4CH2CH3C2H3CH2C3H2CH3CH2C2HC6H2CHCHCH5C2HCHC15H4C4HCHCHC3H2C4H2CH4C2PCHC4HC2HC2HC4HCHC2H5CH3CHCHCPH2CHC2H2SCH2SH3FeS2HC7H4C4H2SCFeCSH2C4HCH2C2H2CHC2H2CHCHCH2PHC2HCHC3H2CH4C3H2C2HC6PC4HC3HC4HCHC2H2CH2CH2C2FeCS2HCHFeCHFeHS2C4PHC2H2C4SC6H2CH4C2HCSHC2HC3HCH4CHSCH5CHC6PCHC2HC5HSCHSCHCH5C2HSCHCFeH4C2H2FeSHFeCHC2H2CS2HFeS2FeSCFeSFeS4FeS2FeS2FeSFeS3HC6H4C6H4C6H4C6H4C2HCHCHCHC2HPHC6H2C6H4C3H2PC16HC2PC2H4PH2CH3CHCH3C3SCH2CHC3HC5HC3HC5HC8H2C2H2C3H2CH4C2H3CHCHC2PCHC2HC4HCHCHC6PC4H2C9HC2H12CH4CHC6PC14H5CH4CH5CHCHC2PHC3HC2HC7HC3H3SH2C2SCH2CHC6H3C2H5CHCHCHC2HCH2CH2C2H3C7H3CH2CHC2PHC5HCHCS2CH5C4H2CSCH2CH3C2H3CHCH2C2HCHC2H4C2HCH3C3H2C5HC3H2C2H3CH4C3H2CHC2HC2H3C2H2C2H2CH3C3HSHCHC2PHCH2CHCS2HFeS2FeS2FeSFeSFeSCFeS2FeSFeS2CFeS2CHFeSFeS4HCFeS2FeCFeHS2HFeSC4H3C5HCH2CHC7H3C5SCHC8H4C8H2C4H2C8H2C6H2CHC6H2FeHSCPC7HCHC3HC2H8C2H2CH2CHCH2CHC4PC7HC2H5CH2C2H2C2PCFeH2C7H8C2HFeS2H5C4H2PC12H5SCHCH2PC3H4C4FeH2CHCHCHCH2CH2CH2C6H3CHC2HFeCSHC6H2C2HC2H3C6HSCH3CPH2CHCHCHCHCH2CHCSCPC3HS2CH2CHCHC5HCHCHSHCHSHC2H2C3H2C2HC2HCHCHC2H4CH2C2SH6SCH3CHCH2CHCHCHCH4CHC4PH3CHCH3C2HSHCH2C4H2C2H4CSHCH2C2HC2HFeH2CH2CHC3H2FeHCH2CHCSC3FeH2C4HSCHC2H3FeHCH2C3HC2SC3SHCSFeS2FeS2FeHFeS3FeS2FeSCFeSFeS4HC6H4C6H4C2HC6H6C4H2C3HCHC8H3CHC2HC3HCH2CHCHC4H4C3PC2PCH2C2H2CHCHCH4C4HCHC6PC14HCHCH12C2H3CH3CHCHC3H3C2HC5HCHC2HC2H2SHC3HC2H2CH4CH2C2H2CHC5H3SC6H2CFeS2FeSFeHS2FeS2H2FeSCFeS2FeSHFeS2FeSFeSHFeS2Fe2S3C2HC4H4C6H4C7H4C9H4C2H3C2HC6PC4HC12H5C3H8C2SCFeHFeSH2CHCSHCH7CH2C2HCH3CH4CH4CH4C6HC3HC2H3CHC2HC3HCHC3HSCH2SCHCH4C7HCH4SCHCH6C2HCFePH2C6PC9H2C3HC2H7C8H3C2S2FeS2FeC2FeS2HSCFeS2FeS2FeSFeS3CHCH2C7H4C6H4C6H4C3H2CHCHC6H5CSHC5H2CHSHC2HCHC8H8C6PC17H17C6PC15HC2H16CHCHCH3CH3SCHSHC5H2SH2PH4C4HFeC2FeC4H8CH2CPC7SH2C8H2CH6CHC2H3C2H2CHC4PC19H7PH6C3HC2HC2HC6HC4H2C2HCHC3H2C2FePHCH4CFeH2C3H5CFeS2CFeSHS2FeS2FeS2Fe2SCSCHC2FeS2FeS2C2FeCFeCS2C3HC3HCH2C4HC2H3C6H4C7H3C6H4C5HC3HCH2CH2C2HC3HCHCHSH4C2H3FeCH2CHC2HC4HCH2C2HCHCHCHC2H2FeH5C5H3SC2H2CH4C2HCH4C2H3C5PC18H4CH11CHC2H2C2HCH3CFeHSH3CPCHC5H2C3HSHC3HSH2CH6C2SCH2CH4C6HPC5PSCHC2H2PH3C2FeCHSCHC3PCHC2H2C2HCH2PC2S2CFeCSFeSHFeC2S2CSCFeS2FeSFeSCSCHC5HCH2C4HCH2C6H3C7H4C3HCHC2H4C2H4CHC2HCHC2H3C7HCHC2H3C2H2PCHSCHCHC3H2SC2H3C2H2CHC3H3CH2C2H2C2HCHC2H4CPHCH2C4H4C2HC3HC2HC7HCHCHC2HCHFe2HC4HSCH2CHC5H3SCHCHCH2C2H3CHCH2C5PHC3HC4H3C3H2CH4CHFeCHFeHSC2HS2CHFeSCFeHFePCH2C2H2FeCS2FeCSHFeH3S2CH2C2FeC7HCHCHFeCSC2HC3SCSC6H2C3HC4HC3H2C2H5C2H2C3HCHCHSCHCHFeH2C2HPCH4C2HSHCSC2HC3H3PH3CH2C3HCS2HCH2CHC3HCH4CH3CHC2
_chemical_formula_sum              "H2592 Fe216 S432 C3240 P108"
_cell_length_a       51.9899
_cell_length_b       55.0066
_cell_length_c       107.565
_cell_angle_alpha    86.9998
_cell_angle_beta     90.0314
_cell_angle_gamma    109.727

_space_group_name_H-M_alt    "P 1"
_space_group_IT_number       1

loop_
  _space_group_symop_operation_xyz
  'x, y, z'

loop_
  _atom_site_type_symbol
  _atom_site_label
  _atom_site_symmetry_multiplicity
  _atom_site_fract_x
  _atom_site_fract_y
  _atom_site_fract_z
  _atom_site_occupancy
  H   H1        1.0  0.35685  0.36340  0.00982  1.0000
  Fe  Fe1       1.0  0.04039  0.34985  0.03392  1.0000
  S   S1        1.0  0.07823  0.36959  0.02227  1.0000
  S   S2        1.0  0.99877  0.32447  0.02642  1.0000
  Fe  Fe2       1.0  0.06819  0.37670  0.05781  1.0000
  S   S3        1.0  0.10730  0.39870  0.04729  1.0000
  S   S4        1.0  0.06554  0.38938  0.07765  1.0000
  Fe  Fe3       1.0  0.08030  0.40516  0.03213  1.0000
  S   S5        1.0  0.08662  0.44221  0.02059  1.0000
  Fe  Fe4       1.0  0.10207  0.36126  0.03854  1.0000
  S   S6        1.0  0.13750  0.34647  0.03515  1.0000
  S   S7        1.0  0.04153  0.38620  0.04307  1.0000
  S   S8        1.0  0.06393  0.33844  0.04976  1.0000
  Fe  Fe5       1.0  0.33877  0.36070  0.04210  1.0000
  S   S9        1.0  0.32095  0.38978  0.03359  1.0000
  S   S10       1.0  0.34817  0.32830  0.03230  1.0000
  Fe  Fe6       1.0  0.34777  0.38613  0.06753  1.0000
  S   S11       1.0  0.33197  0.41739  0.06043  1.0000
  S   S12       1.0  0.36762  0.38964  0.08665  1.0000
  Fe  Fe7       1.0  0.29810  0.38563  0.05190  1.0000
  S   S13       1.0  0.25812  0.39241  0.05649  1.0000
  Fe  Fe8       1.0  0.35567  0.41899  0.04291  1.0000
  S   S14       1.0  0.38077  0.45516  0.03171  1.0000
  S   S15       1.0  0.31297  0.35394  0.05994  1.0000
  S   S16       1.0  0.37457  0.39042  0.05049  1.0000
  C   C1        1.0  0.29744  0.45955  0.10937  1.0000
  H   H2        1.0  0.37232  0.99161  0.99819  1.0000
  C   C2        1.0  0.35151  0.37961  0.10152  1.0000
  C   C3        1.0  0.32511  0.36160  0.10300  1.0000
  C   C4        1.0  0.31311  0.35440  0.11501  1.0000
  C   C5        1.0  0.32678  0.36612  0.12561  1.0000
  C   C6        1.0  0.35334  0.38382  0.12413  1.0000
  C   C7        1.0  0.36583  0.38994  0.11220  1.0000
  H   H3        1.0  0.31419  0.35304  0.09488  1.0000
  H   H4        1.0  0.29293  0.34007  0.11607  1.0000
  H   H5        1.0  0.36437  0.39262  0.13220  1.0000
  H   H6        1.0  0.38662  0.40315  0.11121  1.0000
  C   C8        1.0  0.17114  0.35988  0.04091  1.0000
  C   C9        1.0  0.19147  0.34995  0.03727  1.0000
  C   C10       1.0  0.21835  0.35995  0.04173  1.0000
  C   C11       1.0  0.22517  0.38004  0.04989  1.0000
  C   C12       1.0  0.20487  0.39003  0.05350  1.0000
  C   C13       1.0  0.17802  0.37999  0.04906  1.0000
  H   H7        1.0  0.18636  0.33438  0.03097  1.0000
  H   H8        1.0  0.23367  0.35195  0.03892  1.0000
  H   H9        1.0  0.20992  0.40558  0.05979  1.0000
  H   H10       1.0  0.16260  0.38778  0.05191  1.0000
  H   H11       1.0  0.09280  0.45216  0.04678  1.0000
  C   C14       1.0  0.06709  0.37453  0.09265  1.0000
  C   C15       1.0  0.06535  0.38788  0.10325  1.0000
  C   C16       1.0  0.06761  0.37764  0.11534  1.0000
  C   C17       1.0  0.07055  0.35334  0.11704  1.0000
  C   C18       1.0  0.07186  0.33973  0.10644  1.0000
  C   C19       1.0  0.07048  0.35039  0.09430  1.0000
  H   H12       1.0  0.06251  0.40646  0.10212  1.0000
  H   H13       1.0  0.06622  0.38822  0.12336  1.0000
  H   H14       1.0  0.07378  0.32078  0.10764  1.0000
  H   H15       1.0  0.07145  0.33976  0.08625  1.0000
  H   H16       1.0  0.02082  0.46181  0.03650  1.0000
  H   H17       1.0  0.36764  0.44091  0.11297  1.0000
  C   C20       1.0  0.39168  0.43113  0.99240  1.0000
  C   C21       1.0  0.28459  0.45479  0.09778  1.0000
  C   C22       1.0  0.22906  0.47590  0.04248  1.0000
  H   H18       1.0  0.31576  0.40589  0.11280  1.0000
  H   H19       1.0  0.00056  0.45435  0.00537  1.0000
  H   H20       1.0  0.29438  0.39815  0.09210  1.0000
  C   C23       1.0  0.00021  0.32595  0.00021  1.0000
  C   C24       1.0  0.36474  0.20038  0.03161  1.0000
  C   C25       1.0  0.43074  0.33902  0.03887  1.0000
  H   H21       1.0  0.02173  0.33701  0.00074  1.0000
  C   C26       1.0  0.31943  0.20759  0.98335  1.0000
  H   H22       1.0  0.46773  0.46670  0.13204  1.0000
  P   P1        1.0  0.38231  0.20902  0.00665  1.0000
  C   C27       1.0  0.38133  0.32463  0.99268  1.0000
  C   C28       1.0  0.38063  0.30585  0.00208  1.0000
  C   C29       1.0  0.37088  0.30759  0.01415  1.0000
  C   C30       1.0  0.36204  0.32821  0.01709  1.0000
  C   C31       1.0  0.36364  0.34746  0.00778  1.0000
  C   C32       1.0  0.37298  0.34552  0.99565  1.0000
  C   C33       1.0  0.13064  0.46270  0.11353  1.0000
  H   H23       1.0  0.36983  0.29270  0.02124  1.0000
  C   C34       1.0  0.42400  0.39134  0.02581  1.0000
  C   C35       1.0  0.41779  0.41371  0.02276  1.0000
  H   H24       1.0  0.43239  0.16358  0.98572  1.0000
  H   H25       1.0  0.41931  0.18639  0.01958  1.0000
  H   H26       1.0  0.39761  0.27381  0.03952  1.0000
  H   H27       1.0  0.40742  0.37299  0.02688  1.0000
  H   H28       1.0  0.39665  0.41253  0.02172  1.0000
  H   H29       1.0  0.10964  0.46028  0.09594  1.0000
  C   C36       1.0  0.28335  0.43264  0.09160  1.0000
  C   C37       1.0  0.12389  0.42860  0.09913  1.0000
  C   C38       1.0  0.13597  0.41557  0.10743  1.0000
  C   C39       1.0  0.14544  0.42598  0.11880  1.0000
  C   C40       1.0  0.14292  0.44953  0.12184  1.0000
  H   H30       1.0  0.35115  0.19384  0.05082  1.0000
  C   C41       1.0  0.98080  0.45595  0.00336  1.0000
  H   H31       1.0  0.32376  0.19925  0.00276  1.0000
  H   H32       1.0  0.15809  0.39720  0.02319  1.0000
  H   H33       1.0  0.14995  0.45709  0.13081  1.0000
  C   C42       1.0  0.24150  0.46567  0.03348  1.0000
  H   H34       1.0  0.13327  0.41112  0.00617  1.0000
  H   H35       1.0  0.38595  0.46298  0.05821  1.0000
  H   H36       1.0  0.13706  0.45718  0.00320  1.0000
  H   H37       1.0  0.44182  0.33471  0.98893  1.0000
  C   C43       1.0  0.39310  0.46655  0.12594  1.0000
  H   H38       1.0  0.23750  0.39546  0.11145  1.0000
  H   H39       1.0  0.24305  0.45580  0.11395  1.0000
  H   H40       1.0  0.43555  0.30800  0.02858  1.0000
  H   H41       1.0  0.11571  0.42008  0.09050  1.0000
  H   H42       1.0  0.13699  0.39697  0.10519  1.0000
  H   H43       1.0  0.15406  0.41543  0.12540  1.0000
  H   H44       1.0  0.37770  0.46096  0.13331  1.0000
  C   C44       1.0  0.43577  0.00122  0.00702  1.0000
  C   C45       1.0  0.34053  0.22488  0.04172  1.0000
  C   C46       1.0  0.34160  0.23957  0.03062  1.0000
  H   H45       1.0  0.10933  0.31015  0.13602  1.0000
  H   H46       1.0  0.18641  0.42895  0.03735  1.0000
  C   C47       1.0  0.98456  0.31778  0.01122  1.0000
  C   C48       1.0  0.26034  0.46862  0.05789  1.0000
  H   H47       1.0  0.15014  0.44758  0.05063  1.0000
  H   H48       1.0  0.07806  0.29560  0.06827  1.0000
  H   H49       1.0  0.37086  0.28498  0.05604  1.0000
  C   C49       1.0  0.18935  0.28960  0.14722  1.0000
  H   H50       1.0  0.05118  0.39022  0.00021  1.0000
  H   H51       1.0  0.35491  0.11742  0.99574  1.0000
  S   S17       1.0  0.30965  0.35868  0.14035  1.0000
  H   H52       1.0  0.38275  0.33042  0.06183  1.0000
  H   H53       1.0  0.10025  0.28474  0.04999  1.0000
  S   S18       1.0  0.07043  0.33859  0.13221  1.0000
  C   C50       1.0  0.30823  0.44144  0.11482  1.0000
  H   H54       1.0  0.26744  0.46933  0.06737  1.0000
  C   C51       1.0  0.12059  0.45167  0.10227  1.0000
  C   C52       1.0  0.39959  0.45534  0.99750  1.0000
  H   H55       1.0  0.19646  0.38871  0.12479  1.0000
  C   C53       1.0  0.47223  0.41680  0.02553  1.0000
  C   C54       1.0  0.98820  0.31917  0.98849  1.0000
  C   C55       1.0  0.35428  0.23476  0.02001  1.0000
  C   C56       1.0  0.41607  0.34499  0.04851  1.0000
  C   C57       1.0  0.22002  0.34380  0.13913  1.0000
  H   H56       1.0  0.27167  0.44782  0.02988  1.0000
  H   H57       1.0  0.42098  0.36474  0.05119  1.0000
  C   C58       1.0  0.20898  0.37667  0.12637  1.0000
  C   C59       1.0  0.16012  0.41742  0.02182  1.0000
  C   C60       1.0  0.03561  0.39646  0.99574  1.0000
  H   H58       1.0  0.20105  0.44983  0.12601  1.0000
  H   H59       1.0  0.39305  0.10926  0.00687  1.0000
  H   H60       1.0  0.40373  0.45138  0.09661  1.0000
  H   H61       1.0  0.43606  0.01924  0.00235  1.0000
  H   H62       1.0  0.25570  0.33579  0.13281  1.0000
  C   C61       1.0  0.44905  0.27536  0.00751  1.0000
  H   H63       1.0  0.17658  0.30543  0.13039  1.0000
  C   C62       1.0  0.23880  0.47749  0.05471  1.0000
  C   C63       1.0  0.99200  0.40347  0.99682  1.0000
  H   H64       1.0  0.33063  0.22862  0.04991  1.0000
  C   C64       1.0  0.29481  0.41509  0.09696  1.0000
  H   H65       1.0  0.38685  0.28966  0.99992  1.0000
  H   H66       1.0  0.24771  0.29416  0.14250  1.0000
  C   C65       1.0  0.40784  0.46119  0.10527  1.0000
  H   H67       1.0  0.37262  0.41634  0.99542  1.0000
  C   C66       1.0  0.43353  0.47954  0.10724  1.0000
  C   C67       1.0  0.40848  0.42579  0.98357  1.0000
  C   C68       1.0  0.38750  0.45509  0.11453  1.0000
  C   C69       1.0  0.16446  0.46941  0.01846  1.0000
  C   C70       1.0  0.35211  0.20531  0.04221  1.0000
  C   C71       1.0  0.17612  0.43549  0.02982  1.0000
  C   C72       1.0  0.01381  0.47462  0.06152  1.0000
  H   H68       1.0  0.01008  0.38767  0.01208  1.0000
  C   C73       1.0  0.15861  0.26409  0.13207  1.0000
  H   H69       1.0  0.14795  0.26295  0.12335  1.0000
  C   C74       1.0  0.44148  0.46881  0.98512  1.0000
  C   C75       1.0  0.36583  0.15688  0.00102  1.0000
  H   H70       1.0  0.42944  0.34806  0.00900  1.0000
  C   C76       1.0  0.14177  0.46558  0.06662  1.0000
  C   C77       1.0  0.45125  0.39285  0.02755  1.0000
  H   H71       1.0  0.28822  0.45028  0.05148  1.0000
  H   H72       1.0  0.37329  0.36011  0.98846  1.0000
  C   C78       1.0  0.04670  0.45465  0.06881  1.0000
  H   H73       1.0  0.18265  0.44522  0.07706  1.0000
  C   C79       1.0  0.46935  0.26875  0.00148  1.0000
  C   C80       1.0  0.44020  0.99997  0.01981  1.0000
  C   C81       1.0  0.45672  0.33980  0.99623  1.0000
  H   H74       1.0  0.38661  0.45933  0.00444  1.0000
  C   C82       1.0  0.03891  0.40566  0.98328  1.0000
  C   C83       1.0  0.40193  0.48055  0.04021  1.0000
  H   H75       1.0  0.44399  0.01710  0.02505  1.0000
  C   C84       1.0  0.17870  0.46171  0.02812  1.0000
  C   C85       1.0  0.30700  0.41946  0.10859  1.0000
  C   C86       1.0  0.40501  0.17149  0.01438  1.0000
  H   H76       1.0  0.23856  0.41080  0.14188  1.0000
  C   C87       1.0  0.02641  0.43657  0.07624  1.0000
  C   C88       1.0  0.06145  0.45893  0.14127  1.0000
  C   C89       1.0  0.44983  0.34736  0.00761  1.0000
  H   H77       1.0  0.18515  0.35605  0.14227  1.0000
  C   C90       1.0  0.99996  0.43771  0.07651  1.0000
  C   C91       1.0  0.17505  0.28813  0.13605  1.0000
  C   C92       1.0  0.11735  0.29679  0.11842  1.0000
  C   C93       1.0  0.12021  0.31543  0.12714  1.0000
  C   C94       1.0  0.13613  0.34116  0.12423  1.0000
  C   C95       1.0  0.14934  0.34826  0.11263  1.0000
  C   C96       1.0  0.14670  0.32968  0.10384  1.0000
  C   C97       1.0  0.13090  0.30378  0.10687  1.0000
  P   P2        1.0  0.16513  0.33864  0.08916  1.0000
  C   C98       1.0  0.14461  0.32009  0.07707  1.0000
  C   C99       1.0  0.17076  0.37244  0.08523  1.0000
  C   C100      1.0  0.19513  0.39153  0.08853  1.0000
  C   C101      1.0  0.19938  0.41769  0.08562  1.0000
  C   C102      1.0  0.17931  0.42499  0.07940  1.0000
  C   C103      1.0  0.15493  0.40613  0.07618  1.0000
  C   C104      1.0  0.15054  0.38000  0.07916  1.0000
  C   C105      1.0  0.15693  0.31361  0.06673  1.0000
  C   C106      1.0  0.14088  0.30044  0.05714  1.0000
  C   C107      1.0  0.11249  0.29391  0.05771  1.0000
  C   C108      1.0  0.10004  0.30019  0.06797  1.0000
  C   C109      1.0  0.11599  0.31322  0.07762  1.0000
  C   C110      1.0  0.19755  0.33333  0.09051  1.0000
  C   C111      1.0  0.21844  0.34491  0.08162  1.0000
  C   C112      1.0  0.24377  0.34143  0.08272  1.0000
  C   C113      1.0  0.24847  0.32630  0.09271  1.0000
  C   C114      1.0  0.22786  0.31475  0.10165  1.0000
  C   C115      1.0  0.20248  0.31822  0.10056  1.0000
  H   H78       1.0  0.10432  0.27701  0.12060  1.0000
  C   C116      1.0  0.40808  0.14720  0.01418  1.0000
  H   H79       1.0  0.13758  0.35572  0.13087  1.0000
  H   H80       1.0  0.16144  0.36826  0.11053  1.0000
  H   H81       1.0  0.12880  0.28905  0.10027  1.0000
  H   H82       1.0  0.21095  0.38622  0.09325  1.0000
  H   H83       1.0  0.21835  0.43225  0.08805  1.0000
  H   H84       1.0  0.04478  0.46671  0.01633  1.0000
  H   H85       1.0  0.13927  0.41156  0.07133  1.0000
  H   H86       1.0  0.13139  0.36588  0.07658  1.0000
  H   H87       1.0  0.17888  0.31930  0.06578  1.0000
  H   H88       1.0  0.15052  0.29642  0.04894  1.0000
  H   H89       1.0  0.10599  0.31855  0.08532  1.0000
  H   H90       1.0  0.21514  0.35670  0.07383  1.0000
  H   H91       1.0  0.25968  0.35041  0.07575  1.0000
  H   H92       1.0  0.26803  0.32341  0.09349  1.0000
  H   H93       1.0  0.23160  0.30315  0.10943  1.0000
  H   H94       1.0  0.18690  0.30912  0.10759  1.0000
  C   C117      1.0  0.24856  0.36547  0.12121  1.0000
  C   C118      1.0  0.23206  0.38053  0.11889  1.0000
  H   H95       1.0  0.34941  0.16014  0.99579  1.0000
  H   H96       1.0  0.43364  0.45501  0.01932  1.0000
  C   C119      1.0  0.99364  0.45668  0.06920  1.0000
  H   H97       1.0  0.26639  0.36841  0.11538  1.0000
  C   C120      1.0  0.24247  0.34703  0.13120  1.0000
  C   C121      1.0  0.09949  0.47049  0.04145  1.0000
  H   H98       1.0  0.06712  0.45354  0.06851  1.0000
  H   H99       1.0  0.45366  0.29461  0.01073  1.0000
  C   C122      1.0  0.22021  0.46357  0.12881  1.0000
  C   C123      1.0  0.40290  0.29367  0.04206  1.0000
  H   H100      1.0  0.33257  0.25475  0.03023  1.0000
  H   H101      1.0  0.37345  0.18507  0.03220  1.0000
  C   C124      1.0  0.08407  0.46271  0.13343  1.0000
  C   C125      1.0  0.42424  0.31317  0.03579  1.0000
  H   H102      1.0  0.98082  0.42487  0.04903  1.0000
  C   C126      1.0  0.46341  0.24393  0.99724  1.0000
  C   C127      1.0  0.20288  0.35833  0.13643  1.0000
  C   C128      1.0  0.38793  0.29989  0.05143  1.0000
  H   H103      1.0  0.27388  0.42911  0.08256  1.0000
  C   C129      1.0  0.39463  0.32552  0.05470  1.0000
  H   H104      1.0  0.03116  0.42152  0.08171  1.0000
  C   C130      1.0  0.43718  0.22579  0.99898  1.0000
  C   C131      1.0  0.14862  0.45128  0.01043  1.0000
  C   C132      1.0  0.43868  0.43765  0.02128  1.0000
  C   C133      1.0  0.14630  0.42528  0.01214  1.0000
  C   C134      1.0  0.41651  0.23235  0.00489  1.0000
  H   H105      1.0  0.43305  0.20670  0.99561  1.0000
  H   H106      1.0  0.23413  0.46392  0.02402  1.0000
  C   C135      1.0  0.01217  0.39517  0.00249  1.0000
  H   H107      1.0  0.47454  0.44698  0.05579  1.0000
  H   H108      1.0  0.35496  0.24644  0.01150  1.0000
  C   C136      1.0  0.42269  0.25735  0.00915  1.0000
  H   H109      1.0  0.12309  0.44975  0.06909  1.0000
  H   H110      1.0  0.31782  0.44420  0.12381  1.0000
  H   H111      1.0  0.42465  0.14346  0.01912  1.0000
  H   H112      1.0  0.09080  0.44648  0.13195  1.0000
  C   C137      1.0  0.36884  0.13256  0.00094  1.0000
  C   C138      1.0  0.09882  0.47101  0.02847  1.0000
  C   C139      1.0  0.26288  0.45667  0.03672  1.0000
  H   H113      1.0  0.40727  0.26316  0.01363  1.0000
  C   C140      1.0  0.36589  0.21506  0.02041  1.0000
  P   P3        1.0  0.45950  0.36412  0.03158  1.0000
  C   C141      1.0  0.46914  0.35408  0.01709  1.0000
  C   C142      1.0  0.15592  0.24149  0.13930  1.0000
  C   C143      1.0  0.36301  0.21223  0.99304  1.0000
  C   C144      1.0  0.39020  0.12785  0.00734  1.0000
  C   C145      1.0  0.33448  0.20580  0.99393  1.0000
  H   H114      1.0  0.30763  0.47083  0.14266  1.0000
  C   C146      1.0  0.38432  0.17676  0.00750  1.0000
  C   C147      1.0  0.15704  0.46446  0.05609  1.0000
  H   H115      1.0  0.20243  0.47368  0.14498  1.0000
  C   C148      1.0  0.99550  0.41278  0.98431  1.0000
  C   C149      1.0  0.46592  0.43915  0.02247  1.0000
  H   H116      1.0  0.05116  0.44002  0.14578  1.0000
  H   H117      1.0  0.98429  0.42363  0.08229  1.0000
  C   C150      1.0  0.40002  0.47975  0.05320  1.0000
  C   C151      1.0  0.97852  0.48051  0.00143  1.0000
  H   H118      1.0  0.29749  0.20299  0.98411  1.0000
  H   H119      1.0  0.14308  0.22290  0.13621  1.0000
  C   C152      1.0  0.27224  0.45807  0.04892  1.0000
  C   C153      1.0  0.24421  0.46686  0.12207  1.0000
  C   C154      1.0  0.22100  0.47703  0.13954  1.0000
  C   C155      1.0  0.42453  0.47414  0.99390  1.0000
  C   C156      1.0  0.02858  0.48077  0.03177  1.0000
  C   C157      1.0  0.04051  0.47376  0.06158  1.0000
  H   H120      1.0  0.27574  0.46828  0.09347  1.0000
  S   S19       1.0  0.11068  0.40374  0.14700  1.0000
  S   S20       1.0  0.18474  0.40982  0.14747  1.0000
  C   C158      1.0  0.05254  0.47960  0.14358  1.0000
  C   C159      1.0  0.37606  0.21968  0.98134  1.0000
  Fe  Fe9       1.0  0.09382  0.40546  0.16590  1.0000
  S   S21       1.0  0.06833  0.36341  0.16750  1.0000
  S   S22       1.0  0.07461  0.43489  0.17005  1.0000
  Fe  Fe10      1.0  0.14416  0.39533  0.15751  1.0000
  S   S23       1.0  0.12285  0.35242  0.15899  1.0000
  H   H121      1.0  0.41225  0.39325  0.27573  1.0000
  C   C160      1.0  0.99933  0.39329  0.24304  1.0000
  Fe  Fe11      1.0  0.10526  0.35931  0.17717  1.0000
  S   S24       1.0  0.10110  0.33447  0.19533  1.0000
  C   C161      1.0  0.19296  0.30213  0.31006  1.0000
  S   S25       1.0  0.12978  0.40167  0.17637  1.0000
  Fe  Fe12      1.0  0.32410  0.38194  0.15758  1.0000
  S   S26       1.0  0.34561  0.42483  0.15579  1.0000
  Fe  Fe13      1.0  0.32521  0.38084  0.18665  1.0000
  S   S27       1.0  0.34831  0.42323  0.18666  1.0000
  S   S28       1.0  0.30704  0.35956  0.20510  1.0000
  Fe  Fe14      1.0  0.31933  0.42714  0.17194  1.0000
  S   S29       1.0  0.29703  0.45513  0.17468  1.0000
  Fe  Fe15      1.0  0.37233  0.41661  0.17063  1.0000
  S   S30       1.0  0.41761  0.43570  0.16826  1.0000
  S   S31       1.0  0.29488  0.38502  0.17247  1.0000
  S   S32       1.0  0.35216  0.37340  0.17184  1.0000
  Fe  Fe16      1.0  0.09706  0.36770  0.26939  1.0000
  S   S33       1.0  0.11457  0.40304  0.28041  1.0000
  S   S34       1.0  0.11083  0.38048  0.24915  1.0000
  Fe  Fe17      1.0  0.06636  0.33507  0.29295  1.0000
  H   H122      1.0  0.06805  0.41045  0.26042  1.0000
  Fe  Fe18      1.0  0.07282  0.39329  0.28874  1.0000
  S   S35       1.0  0.05460  0.42578  0.28792  1.0000
  Fe  Fe19      1.0  0.12119  0.37661  0.29555  1.0000
  S   S36       1.0  0.15869  0.38361  0.30715  1.0000
  S   S37       1.0  0.05453  0.35848  0.27729  1.0000
  S   S38       1.0  0.10779  0.34201  0.28404  1.0000
  Fe  Fe20      1.0  0.34508  0.38544  0.27567  1.0000
  S   S39       1.0  0.34512  0.42506  0.27946  1.0000
  S   S40       1.0  0.36636  0.38375  0.25733  1.0000
  Fe  Fe21      1.0  0.31513  0.36115  0.30084  1.0000
  Fe  Fe22      1.0  0.30192  0.40493  0.28598  1.0000
  S   S41       1.0  0.27128  0.42150  0.27740  1.0000
  Fe  Fe23      1.0  0.35661  0.41742  0.29890  1.0000
  S   S42       1.0  0.38954  0.44891  0.30893  1.0000
  S   S43       1.0  0.30107  0.36561  0.28109  1.0000
  S   S44       1.0  0.35985  0.37849  0.29489  1.0000
  C   C162      1.0  0.18985  0.39502  0.29876  1.0000
  H   H123      1.0  0.98036  0.37444  0.21383  1.0000
  C   C163      1.0  0.23830  0.40096  0.29783  1.0000
  C   C164      1.0  0.23998  0.41130  0.28561  1.0000
  C   C165      1.0  0.21664  0.41394  0.28000  1.0000
  C   C166      1.0  0.19146  0.40542  0.28651  1.0000
  H   H124      1.0  0.21779  0.42174  0.27050  1.0000
  H   H125      1.0  0.17337  0.40683  0.28204  1.0000
  H   H126      1.0  0.01568  0.33243  0.25789  1.0000
  C   C167      1.0  0.06507  0.47852  0.28529  1.0000
  C   C168      1.0  0.03237  0.42098  0.25662  1.0000
  H   H127      1.0  0.41400  0.43336  0.23703  1.0000
  C   C169      1.0  0.45352  0.44715  0.28904  1.0000
  C   C170      1.0  0.01535  0.36218  0.21722  1.0000
  C   C171      1.0  0.32362  0.36827  0.21949  1.0000
  C   C172      1.0  0.35198  0.38012  0.22006  1.0000
  C   C173      1.0  0.36475  0.38474  0.23169  1.0000
  C   C174      1.0  0.34928  0.37866  0.24286  1.0000
  C   C175      1.0  0.32083  0.36770  0.24227  1.0000
  C   C176      1.0  0.30817  0.36205  0.23067  1.0000
  H   H128      1.0  0.36419  0.38467  0.21156  1.0000
  H   H129      1.0  0.38677  0.39247  0.23200  1.0000
  H   H130      1.0  0.30866  0.36271  0.25078  1.0000
  H   H131      1.0  0.28632  0.35264  0.23039  1.0000
  C   C177      1.0  0.27517  0.31813  0.17477  1.0000
  P   P4        1.0  0.18221  0.27718  0.29893  1.0000
  S   S45       1.0  0.31282  0.39983  0.30600  1.0000
  C   C178      1.0  0.19997  0.28903  0.28415  1.0000
  C   C179      1.0  0.15072  0.46259  0.25741  1.0000
  C   C180      1.0  0.10431  0.34730  0.21031  1.0000
  C   C181      1.0  0.11469  0.37394  0.21181  1.0000
  C   C182      1.0  0.11642  0.38352  0.22378  1.0000
  C   C183      1.0  0.10773  0.36673  0.23441  1.0000
  C   C184      1.0  0.09766  0.34006  0.23298  1.0000
  C   C185      1.0  0.09615  0.33041  0.22098  1.0000
  H   H132      1.0  0.12138  0.38720  0.20375  1.0000
  H   H133      1.0  0.12439  0.40416  0.22480  1.0000
  H   H134      1.0  0.09118  0.32690  0.24110  1.0000
  H   H135      1.0  0.08830  0.30976  0.21994  1.0000
  C   C186      1.0  0.12702  0.46931  0.17021  1.0000
  H   H136      1.0  0.10927  0.45039  0.29733  1.0000
  C   C187      1.0  0.42548  0.46905  0.16919  1.0000
  C   C188      1.0  0.26549  0.44293  0.16739  1.0000
  C   C189      1.0  0.24183  0.44586  0.17238  1.0000
  C   C190      1.0  0.21655  0.43514  0.16656  1.0000
  C   C191      1.0  0.26880  0.40571  0.21916  1.0000
  C   C192      1.0  0.24209  0.31472  0.15834  1.0000
  H   H137      1.0  0.24302  0.45600  0.18083  1.0000
  H   H138      1.0  0.19823  0.43720  0.17041  1.0000
  H   H139      1.0  0.13804  0.22800  0.30590  1.0000
  S   S46       1.0  0.04296  0.29233  0.29912  1.0000
  H   H140      1.0  0.11678  0.45309  0.19600  1.0000
  H   H141      1.0  0.30705  0.30254  0.17112  1.0000
  C   C193      1.0  0.20436  0.37382  0.24590  1.0000
  C   C194      1.0  0.08832  0.24976  0.29469  1.0000
  C   C195      1.0  0.00769  0.41488  0.25031  1.0000
  C   C196      1.0  0.18470  0.35456  0.27003  1.0000
  C   C197      1.0  0.01556  0.37755  0.24214  1.0000
  C   C198      1.0  0.42210  0.45131  0.24162  1.0000
  H   H142      1.0  0.25415  0.41642  0.24887  1.0000
  C   C199      1.0  0.20079  0.40865  0.22400  1.0000
  C   C200      1.0  0.19634  0.36741  0.17711  1.0000
  C   C201      1.0  0.16743  0.36034  0.26129  1.0000
  C   C202      1.0  0.30992  0.42892  0.23000  1.0000
  H   H143      1.0  0.16771  0.22532  0.15612  1.0000
  C   C203      1.0  0.27850  0.29665  0.15610  1.0000
  C   C204      1.0  0.02115  0.32072  0.25129  1.0000
  H   H144      1.0  0.05408  0.37309  0.24719  1.0000
  C   C205      1.0  0.45631  0.40636  0.27533  1.0000
  C   C206      1.0  0.43804  0.44337  0.21339  1.0000
  C   C207      1.0  0.36672  0.47659  0.20708  1.0000
  H   H145      1.0  0.40765  0.43281  0.25961  1.0000
  H   H146      1.0  0.24658  0.35367  0.22050  1.0000
  H   H147      1.0  0.24203  0.36855  0.25207  1.0000
  H   H148      1.0  0.38359  0.46671  0.17168  1.0000
  C   C208      1.0  0.03676  0.28496  0.24747  1.0000
  H   H149      1.0  0.23934  0.31050  0.25239  1.0000
  C   C209      1.0  0.10466  0.45534  0.20377  1.0000
  H   H150      1.0  0.11993  0.43450  0.24726  1.0000
  H   H151      1.0  0.05379  0.35494  0.21784  1.0000
  C   C210      1.0  0.44767  0.40323  0.21657  1.0000
  H   H152      1.0  0.43014  0.37436  0.20329  1.0000
  H   H153      1.0  0.16075  0.29734  0.16713  1.0000
  C   C211      1.0  0.01860  0.32511  0.23844  1.0000
  C   C212      1.0  0.22834  0.30445  0.26121  1.0000
  H   H154      1.0  0.03855  0.43723  0.26256  1.0000
  C   C213      1.0  0.16890  0.46276  0.28998  1.0000
  H   H155      1.0  0.14657  0.35792  0.26382  1.0000
  C   C214      1.0  0.22547  0.34620  0.21778  1.0000
  C   C215      1.0  0.99928  0.37346  0.21007  1.0000
  H   H156      1.0  0.23202  0.31590  0.20775  1.0000
  C   C216      1.0  0.17914  0.34699  0.21795  1.0000
  H   H157      1.0  0.98011  0.38876  0.23824  1.0000
  C   C217      1.0  0.17587  0.31576  0.31357  1.0000
  H   H158      1.0  0.41521  0.44585  0.19671  1.0000
  H   H159      1.0  0.17235  0.45274  0.23281  1.0000
  C   C218      1.0  0.42392  0.43404  0.20253  1.0000
  H   H160      1.0  0.34595  0.46316  0.20701  1.0000
  C   C219      1.0  0.42095  0.40915  0.19900  1.0000
  C   C220      1.0  0.21345  0.39344  0.30448  1.0000
  C   C221      1.0  0.03059  0.30099  0.25577  1.0000
  C   C222      1.0  0.10444  0.27433  0.29004  1.0000
  C   C223      1.0  0.43091  0.40785  0.27856  1.0000
  H   H161      1.0  0.99518  0.39227  0.19242  1.0000
  H   H162      1.0  0.14953  0.31681  0.20840  1.0000
  C   C224      1.0  0.20913  0.20972  0.31431  1.0000
  C   C225      1.0  0.21108  0.21629  0.30153  1.0000
  H   H163      1.0  0.06738  0.37155  0.19622  1.0000
  H   H164      1.0  0.04483  0.47350  0.28146  1.0000
  H   H165      1.0  0.22519  0.35374  0.27348  1.0000
  C   C226      1.0  0.18650  0.26680  0.15445  1.0000
  C   C227      1.0  0.19992  0.29303  0.26148  1.0000
  C   C228      1.0  0.18580  0.28504  0.27287  1.0000
  C   C229      1.0  0.19594  0.33230  0.16420  1.0000
  C   C230      1.0  0.16944  0.45103  0.30176  1.0000
  H   H166      1.0  0.06126  0.41950  0.22664  1.0000
  H   H167      1.0  0.08972  0.41476  0.20912  1.0000
  C   C231      1.0  0.12905  0.24125  0.30151  1.0000
  C   C232      1.0  0.19253  0.25057  0.30489  1.0000
  C   C233      1.0  0.07531  0.45870  0.28911  1.0000
  H   H168      1.0  0.03540  0.47669  0.14989  1.0000
  C   C234      1.0  0.21162  0.35780  0.26665  1.0000
  C   C235      1.0  0.03200  0.38276  0.19297  1.0000
  C   C236      1.0  0.13285  0.28263  0.29127  1.0000
  H   H169      1.0  0.45726  0.39052  0.26997  1.0000
  H   H170      1.0  0.34920  0.45773  0.25605  1.0000
  C   C237      1.0  0.43260  0.39367  0.20606  1.0000
  C   C238      1.0  0.03311  0.28844  0.23470  1.0000
  H   H171      1.0  0.24229  0.33289  0.17584  1.0000
  H   H172      1.0  0.18884  0.29022  0.25283  1.0000
  H   H173      1.0  0.16393  0.27544  0.27273  1.0000
  H   H174      1.0  0.03832  0.39049  0.18356  1.0000
  H   H175      1.0  0.21250  0.38611  0.31403  1.0000
  H   H176      1.0  0.32688  0.47313  0.27271  1.0000
  H   H177      1.0  0.21944  0.20591  0.29529  1.0000
  H   H178      1.0  0.20443  0.24133  0.28689  1.0000
  C   C239      1.0  0.28861  0.30537  0.16769  1.0000
  C   C240      1.0  0.04081  0.38443  0.24809  1.0000
  C   C241      1.0  0.17953  0.44120  0.22675  1.0000
  C   C242      1.0  0.17553  0.44283  0.21392  1.0000
  C   C243      1.0  0.18452  0.42774  0.20609  1.0000
  C   C244      1.0  0.19722  0.41081  0.21109  1.0000
  P   P5        1.0  0.00465  0.34956  0.23290  1.0000
  H   H179      1.0  0.15128  0.45477  0.28426  1.0000
  H   H180      1.0  0.18151  0.42903  0.19613  1.0000
  C   C245      1.0  0.22127  0.36679  0.25454  1.0000
  C   C246      1.0  0.12512  0.45239  0.25200  1.0000
  C   C247      1.0  0.22859  0.30054  0.28375  1.0000
  H   H181      1.0  0.13952  0.31487  0.18326  1.0000
  H   H182      1.0  0.08589  0.45661  0.24912  1.0000
  H   H183      1.0  0.01993  0.23798  0.30655  1.0000
  H   H184      1.0  0.17742  0.34810  0.27948  1.0000
  C   C248      1.0  0.17714  0.36980  0.24927  1.0000
  C   C249      1.0  0.17151  0.35200  0.18264  1.0000
  C   C250      1.0  0.15897  0.32668  0.17906  1.0000
  C   C251      1.0  0.17108  0.31683  0.16987  1.0000
  C   C252      1.0  0.00759  0.38366  0.19797  1.0000
  P   P6        1.0  0.44142  0.47518  0.21831  1.0000
  C   C253      1.0  0.26398  0.42980  0.15653  1.0000
  H   H185      1.0  0.25938  0.39727  0.21069  1.0000
  C   C254      1.0  0.29419  0.42847  0.24061  1.0000
  H   H186      1.0  0.13382  0.45322  0.16867  1.0000
  H   H187      1.0  0.16409  0.35541  0.22073  1.0000
  H   H188      1.0  0.28211  0.42733  0.15268  1.0000
  H   H189      1.0  0.46256  0.43534  0.22827  1.0000
  C   C255      1.0  0.04900  0.40586  0.25543  1.0000
  C   C256      1.0  0.21715  0.32446  0.21063  1.0000
  C   C257      1.0  0.04837  0.37209  0.20012  1.0000
  C   C258      1.0  0.03391  0.27562  0.31418  1.0000
  H   H190      1.0  0.16181  0.35968  0.18963  1.0000
  C   C259      1.0  0.07224  0.46086  0.22343  1.0000
  H   H191      1.0  0.02053  0.31023  0.22031  1.0000
  H   H192      1.0  0.30921  0.41815  0.21096  1.0000
  H   H193      1.0  0.47681  0.44398  0.31298  1.0000
  C   C260      1.0  0.21528  0.42227  0.15557  1.0000
  H   H194      1.0  0.42516  0.47316  0.27063  1.0000
  H   H195      1.0  0.16336  0.37407  0.24265  1.0000
  C   C261      1.0  0.09907  0.46574  0.17068  1.0000
  H   H196      1.0  0.45198  0.46281  0.29430  1.0000
  H   H197      1.0  0.30384  0.43684  0.24903  1.0000
  H   H198      1.0  0.03292  0.29802  0.26571  1.0000
  C   C262      1.0  0.29714  0.41797  0.21921  1.0000
  H   H199      1.0  0.03760  0.27584  0.22826  1.0000
  H   H200      1.0  0.40971  0.40193  0.19070  1.0000
  H   H201      1.0  0.25624  0.39906  0.30225  1.0000
  H   H202      1.0  0.22760  0.36999  0.16357  1.0000
  C   C263      1.0  0.38754  0.46872  0.21222  1.0000
  C   C264      1.0  0.17078  0.32497  0.21100  1.0000
  H   H203      1.0  0.15602  0.31225  0.30957  1.0000
  C   C265      1.0  0.02375  0.30823  0.23021  1.0000
  H   H204      1.0  0.28311  0.32499  0.18374  1.0000
  H   H205      1.0  0.33198  0.43745  0.23018  1.0000
  H   H206      1.0  0.18343  0.29712  0.20162  1.0000
  C   C266      1.0  0.42784  0.47378  0.26067  1.0000
  H   H207      1.0  0.20414  0.39932  0.20487  1.0000
  C   C267      1.0  0.41825  0.45091  0.25447  1.0000
  P   P7        1.0  0.21673  0.38630  0.23034  1.0000
  H   H208      1.0  0.40983  0.42946  0.28787  1.0000
  C   C268      1.0  0.20843  0.35770  0.16786  1.0000
  C   C269      1.0  0.20267  0.23654  0.29681  1.0000
  C   C270      1.0  0.25199  0.32276  0.17015  1.0000
  C   C271      1.0  0.20666  0.35801  0.22124  1.0000
  C   C272      1.0  0.25161  0.47434  0.25747  1.0000
  C   C273      1.0  0.04039  0.36232  0.21231  1.0000
  H   H209      1.0  0.04411  0.26970  0.25095  1.0000
  H   H210      1.0  0.38254  0.44920  0.21632  1.0000
  C   C274      1.0  0.19236  0.42436  0.23179  1.0000
  C   C275      1.0  0.35567  0.47818  0.25768  1.0000
  H   H211      1.0  0.14497  0.30194  0.28776  1.0000
  H   H212      1.0  0.19538  0.42340  0.24175  1.0000
  H   H213      1.0  0.16535  0.45568  0.21003  1.0000
  C   C276      1.0  0.10062  0.23314  0.30032  1.0000
  H   H214      1.0  0.38929  0.47776  0.28525  1.0000
  C   C277      1.0  0.24265  0.30801  0.27233  1.0000
  C   C278      1.0  0.25312  0.40362  0.23005  1.0000
  C   C279      1.0  0.43600  0.47463  0.23489  1.0000
  H   H215      1.0  0.20612  0.38701  0.17986  1.0000
  C   C280      1.0  0.08928  0.43368  0.21113  1.0000
  H   H216      1.0  0.24034  0.30335  0.29218  1.0000
  C   C281      1.0  0.26586  0.41637  0.24055  1.0000
  Fe  Fe24      1.0  0.08848  0.36124  0.14919  1.0000
  S   S47       1.0  0.08055  0.36917  0.30505  1.0000
  C   C282      1.0  0.42955  0.42827  0.28540  1.0000
  H   H217      1.0  0.26475  0.31646  0.27213  1.0000
  H   H218      1.0  0.26469  0.47358  0.23855  1.0000
  C   C283      1.0  0.10140  0.46544  0.29416  1.0000
  H   H219      1.0  0.09463  0.28701  0.28569  1.0000
  H   H220      1.0  0.16502  0.45217  0.25692  1.0000
  C   C284      1.0  0.07316  0.43642  0.22098  1.0000
  H   H221      1.0  0.08797  0.21406  0.30387  1.0000
  H   H222      1.0  0.99484  0.42664  0.25125  1.0000
  C   C285      1.0  0.18983  0.31388  0.20721  1.0000
  H   H223      1.0  0.06625  0.24377  0.29401  1.0000
  H   H224      1.0  0.19729  0.26755  0.16313  1.0000
  C   C286      1.0  0.14544  0.26619  0.29708  1.0000
  H   H225      1.0  0.26536  0.46498  0.26140  1.0000
  C   C287      1.0  0.23914  0.42016  0.15047  1.0000
  C   C288      1.0  0.29476  0.45756  0.30962  1.0000
  C   C289      1.0  0.27846  0.46608  0.30137  1.0000
  C   C290      1.0  0.10396  0.47980  0.20623  1.0000
  H   H226      1.0  0.05963  0.46232  0.23110  1.0000
  H   H227      1.0  0.23384  0.47575  0.27513  1.0000
  C   C291      1.0  0.10588  0.46482  0.25303  1.0000
  C   C292      1.0  0.25518  0.30104  0.15150  1.0000
  S   S48       1.0  0.29216  0.32076  0.31072  1.0000
  C   C293      1.0  0.45069  0.42812  0.22014  1.0000
  C   C294      1.0  0.32307  0.46977  0.30927  1.0000
  H   H228      1.0  0.46872  0.47760  0.16696  1.0000
  H   H229      1.0  0.15242  0.43415  0.30496  1.0000
  C   C295      1.0  0.23372  0.48080  0.26531  1.0000
  H   H230      1.0  0.23217  0.29729  0.31324  1.0000
  H   H231      1.0  0.25660  0.45597  0.30135  1.0000
  P   P8        1.0  0.21189  0.32020  0.15220  1.0000
  H   H232      1.0  0.09821  0.30198  0.31087  1.0000
  H   H233      1.0  0.45696  0.39130  0.22196  1.0000
  C   C296      1.0  0.16979  0.24285  0.15051  1.0000
  C   C297      1.0  0.25117  0.47911  0.24462  1.0000
  C   C298      1.0  0.40466  0.47921  0.17118  1.0000
  C   C299      1.0  0.41093  0.47953  0.30239  1.0000
  C   C300      1.0  0.19202  0.46072  0.30934  1.0000
  H   H234      1.0  0.28916  0.28709  0.15054  1.0000
  S   S49       1.0  0.24646  0.20827  0.46980  1.0000
  S   S50       1.0  0.18530  0.00007  0.37223  1.0000
  Fe  Fe25      1.0  0.21556  0.18324  0.39594  1.0000
  S   S51       1.0  0.19497  0.14768  0.38537  1.0000
  S   S52       1.0  0.19808  0.17501  0.41602  1.0000
  Fe  Fe26      1.0  0.24722  0.21288  0.37169  1.0000
  S   S53       1.0  0.22954  0.17814  0.36026  1.0000
  S   S54       1.0  0.27529  0.25271  0.36311  1.0000
  Fe  Fe27      1.0  0.19023  0.17468  0.37004  1.0000
  S   S55       1.0  0.15230  0.16864  0.35884  1.0000
  Fe  Fe28      1.0  0.23593  0.15390  0.37684  1.0000
  S   S56       1.0  0.25250  0.12023  0.37705  1.0000
  S   S57       1.0  0.20713  0.20992  0.38102  1.0000
  S   S58       1.0  0.25732  0.18889  0.38778  1.0000
  Fe  Fe29      1.0  0.01118  0.15988  0.38288  1.0000
  S   S59       1.0  0.04795  0.15461  0.39225  1.0000
  S   S60       1.0  0.00384  0.19743  0.38406  1.0000
  H   H235      1.0  0.26708  0.22645  0.44491  1.0000
  H   H236      1.0  0.04467  0.25166  0.37786  1.0000
  C   C301      1.0  0.24173  0.12191  0.43391  1.0000
  C   C302      1.0  0.06332  0.24734  0.37656  1.0000
  H   H237      1.0  0.03156  0.28497  0.34527  1.0000
  C   C303      1.0  0.09883  0.19287  0.41585  1.0000
  C   C304      1.0  0.07698  0.25353  0.36504  1.0000
  C   C305      1.0  0.01763  0.24733  0.33765  1.0000
  C   C306      1.0  0.01476  0.23432  0.32660  1.0000
  H   H238      1.0  0.25191  0.05938  0.34600  1.0000
  C   C307      1.0  0.09035  0.25715  0.44497  1.0000
  C   C308      1.0  0.03714  0.28859  0.32525  1.0000
  C   C309      1.0  0.30348  0.17211  0.48015  1.0000
  H   H239      1.0  0.04553  0.30948  0.32489  1.0000
  C   C310      1.0  0.07694  0.15958  0.38276  1.0000
  C   C311      1.0  0.07663  0.16480  0.36990  1.0000
  C   C312      1.0  0.09979  0.16736  0.36254  1.0000
  C   C313      1.0  0.12355  0.16561  0.36808  1.0000
  C   C314      1.0  0.12410  0.16117  0.38096  1.0000
  C   C315      1.0  0.10068  0.15771  0.38823  1.0000
  H   H240      1.0  0.05847  0.16646  0.36560  1.0000
  H   H241      1.0  0.09932  0.17077  0.35258  1.0000
  H   H242      1.0  0.14242  0.15998  0.38530  1.0000
  H   H243      1.0  0.10096  0.15353  0.39810  1.0000
  C   C316      1.0  0.27997  0.27099  0.34832  1.0000
  C   C317      1.0  0.26613  0.26082  0.33754  1.0000
  C   C318      1.0  0.27026  0.27621  0.32622  1.0000
  C   C319      1.0  0.28818  0.30213  0.32537  1.0000
  C   C320      1.0  0.30188  0.31231  0.33616  1.0000
  C   C321      1.0  0.29784  0.29689  0.34747  1.0000
  H   H244      1.0  0.25234  0.24104  0.33792  1.0000
  H   H245      1.0  0.03452  0.11171  0.37387  1.0000
  C   C322      1.0  0.20523  0.06715  0.46333  1.0000
  H   H246      1.0  0.30870  0.30516  0.35566  1.0000
  C   C323      1.0  0.20397  0.03309  0.37474  1.0000
  C   C324      1.0  0.23233  0.04192  0.37614  1.0000
  C   C325      1.0  0.24678  0.06855  0.37703  1.0000
  C   C326      1.0  0.23308  0.08669  0.37672  1.0000
  C   C327      1.0  0.20459  0.07776  0.37585  1.0000
  C   C328      1.0  0.19016  0.05116  0.37469  1.0000
  H   H247      1.0  0.24327  0.02832  0.37611  1.0000
  H   H248      1.0  0.26879  0.07519  0.37777  1.0000
  H   H249      1.0  0.19383  0.09147  0.37590  1.0000
  H   H250      1.0  0.16821  0.04458  0.37368  1.0000
  H   H251      1.0  0.02145  0.08382  0.33707  1.0000
  C   C329      1.0  0.09464  0.04277  0.35215  1.0000
  H   H252      1.0  0.06853  0.26254  0.35765  1.0000
  H   H253      1.0  0.21360  0.05206  0.46174  1.0000
  C   C330      1.0  0.23402  0.19724  0.45489  1.0000
  C   C331      1.0  0.20976  0.17651  0.45357  1.0000
  C   C332      1.0  0.19941  0.16968  0.44163  1.0000
  C   C333      1.0  0.21344  0.18311  0.43078  1.0000
  C   C334      1.0  0.23824  0.20323  0.43207  1.0000
  C   C335      1.0  0.24829  0.21037  0.44405  1.0000
  H   H254      1.0  0.19854  0.16626  0.46178  1.0000
  H   H255      1.0  0.18021  0.15413  0.44083  1.0000
  H   H256      1.0  0.24928  0.21384  0.42386  1.0000
  C   C336      1.0  0.19045  0.07347  0.41323  1.0000
  H   H257      1.0  0.16532  0.29885  0.34576  1.0000
  H   H258      1.0  0.22145  0.11710  0.43787  1.0000
  H   H259      1.0  0.08481  0.17425  0.41337  1.0000
  C   C337      1.0  0.97775  0.10088  0.44467  1.0000
  H   H260      1.0  0.13452  0.22082  0.33021  1.0000
  H   H261      1.0  0.06116  0.22807  0.39471  1.0000
  H   H262      1.0  0.15608  0.09073  0.44186  1.0000
  H   H263      1.0  0.27344  0.98164  0.43906  1.0000
  C   C338      1.0  0.17846  0.06000  0.46801  1.0000
  H   H264      1.0  0.10242  0.21636  0.39114  1.0000
  C   C339      1.0  0.08852  0.21168  0.41974  1.0000
  S   S61       1.0  0.99860  0.15489  0.36294  1.0000
  C   C340      1.0  0.24493  0.05894  0.41827  1.0000
  C   C341      1.0  0.16689  0.00318  0.41482  1.0000
  C   C342      1.0  0.15787  0.01095  0.40348  1.0000
  C   C343      1.0  0.13927  0.99278  0.39632  1.0000
  C   C344      1.0  0.23061  0.99367  0.34708  1.0000
  C   C345      1.0  0.10830  0.32472  0.32695  1.0000
  H   H265      1.0  0.30592  0.12259  0.44083  1.0000
  H   H266      1.0  0.28547  0.08470  0.41330  1.0000
  H   H267      1.0  0.24061  0.07282  0.42393  1.0000
  H   H268      1.0  0.23488  0.01744  0.43934  1.0000
  H   H269      1.0  0.16576  0.03082  0.39988  1.0000
  H   H270      1.0  0.03788  0.22913  0.43628  1.0000
  C   C346      1.0  0.10347  0.30213  0.32061  1.0000
  H   H271      1.0  0.06008  0.27612  0.44605  1.0000
  H   H272      1.0  0.12024  0.23783  0.44748  1.0000
  H   H273      1.0  0.20068  0.06945  0.40519  1.0000
  H   H274      1.0  0.19204  0.11051  0.40521  1.0000
  H   H275      1.0  0.22857  0.26818  0.35519  1.0000
  H   H276      1.0  0.14817  0.00334  0.44267  1.0000
  C   C347      1.0  0.15298  0.34098  0.41535  1.0000
  C   C348      1.0  0.18182  0.10495  0.46744  1.0000
  C   C349      1.0  0.17717  0.13272  0.33759  1.0000
  C   C350      1.0  0.16536  0.08571  0.43381  1.0000
  H   H277      1.0  0.20106  0.11675  0.34979  1.0000
  H   H278      1.0  0.16708  0.35990  0.41234  1.0000
  C   C351      1.0  0.10498  0.27972  0.32687  1.0000
  C   C352      1.0  0.06777  0.02510  0.35268  1.0000
  H   H279      1.0  0.02994  0.27238  0.39566  1.0000
  C   C353      1.0  0.22917  0.01861  0.34649  1.0000
  H   H280      1.0  0.11285  0.31009  0.44021  1.0000
  H   H281      1.0  0.06659  0.20717  0.42023  1.0000
  H   H282      1.0  0.16501  0.04968  0.44226  1.0000
  C   C354      1.0  0.20734  0.26506  0.35320  1.0000
  C   C355      1.0  0.11271  0.21198  0.33166  1.0000
  C   C356      1.0  0.27532  0.12999  0.46593  1.0000
  C   C357      1.0  0.16080  0.23606  0.35176  1.0000
  C   C358      1.0  0.17049  0.06231  0.43398  1.0000
  H   H283      1.0  0.23401  0.99786  0.46052  1.0000
  H   H284      1.0  0.12091  0.14490  0.47580  1.0000
  H   H285      1.0  0.33587  0.46261  0.31538  1.0000
  C   C359      1.0  0.19861  0.22326  0.32237  1.0000
  C   C360      1.0  0.31568  0.99656  0.36277  1.0000
  C   C361      1.0  0.10999  0.01001  0.34341  1.0000
  H   H286      1.0  0.26204  0.00964  0.39830  1.0000
  C   C362      1.0  0.05759  0.26797  0.40991  1.0000
  C   C363      1.0  0.18552  0.09688  0.41316  1.0000
  H   H287      1.0  0.23158  0.13968  0.41710  1.0000
  C   C364      1.0  0.15785  0.09810  0.35325  1.0000
  C   C365      1.0  0.15188  0.25704  0.34886  1.0000
  C   C366      1.0  0.24734  0.13465  0.42210  1.0000
  H   H288      1.0  0.98860  0.24168  0.40643  1.0000
  Fe  Fe30      1.0  0.98905  0.19193  0.36431  1.0000
  C   C367      1.0  0.03186  0.26307  0.40457  1.0000
  C   C368      1.0  0.05615  0.18863  0.33481  1.0000
  C   C369      1.0  0.07078  0.17715  0.32763  1.0000
  H   H289      1.0  0.19507  0.22370  0.35601  1.0000
  H   H290      1.0  0.03419  0.17975  0.33606  1.0000
  C   C370      1.0  0.97972  0.08660  0.45554  1.0000
  C   C371      1.0  0.17124  0.28216  0.34799  1.0000
  H   H291      1.0  0.16087  0.08509  0.36054  1.0000
  H   H292      1.0  0.05125  0.03032  0.35655  1.0000
  H   H293      1.0  0.14485  0.35295  0.43325  1.0000
  H   H294      1.0  0.12021  0.30287  0.35574  1.0000
  H   H295      1.0  0.31572  0.33208  0.33580  1.0000
  C   C372      1.0  0.02914  0.27456  0.33685  1.0000
  H   H296      1.0  0.05799  0.21988  0.34619  1.0000
  C   C373      1.0  0.18066  0.11583  0.34707  1.0000
  H   H297      1.0  0.46928  0.45946  0.33330  1.0000
  C   C374      1.0  0.07218  0.26654  0.45120  1.0000
  C   C375      1.0  0.12916  0.29608  0.41134  1.0000
  P   P9        1.0  0.31280  0.00679  0.34675  1.0000
  C   C376      1.0  0.27887  0.15555  0.46159  1.0000
  C   C377      1.0  0.29449  0.13708  0.42355  1.0000
  H   H298      1.0  0.19730  0.21814  0.33227  1.0000
  H   H299      1.0  0.21605  0.19431  0.31799  1.0000
  C   C378      1.0  0.11541  0.30242  0.34594  1.0000
  C   C379      1.0  0.22103  0.09343  0.46123  1.0000
  C   C380      1.0  0.08317  0.99270  0.34380  1.0000
  C   C381      1.0  0.25312  0.04009  0.34595  1.0000
  H   H300      1.0  0.05473  0.27008  0.46893  1.0000
  H   H301      1.0  0.27032  0.15963  0.45287  1.0000
  H   H302      1.0  0.14822  0.14530  0.32712  1.0000
  C   C382      1.0  0.28933  0.04566  0.45156  1.0000
  C   C383      1.0  0.16711  0.99200  0.45863  1.0000
  C   C384      1.0  0.03354  0.08728  0.34542  1.0000
  H   H303      1.0  0.00596  0.21346  0.32697  1.0000
  C   C385      1.0  0.28916  0.12499  0.43550  1.0000
  C   C386      1.0  0.10593  0.24506  0.45197  1.0000
  C   C387      1.0  0.01086  0.23390  0.42214  1.0000
  C   C388      1.0  0.27335  0.04112  0.47293  1.0000
  H   H304      1.0  0.20946  0.02126  0.34691  1.0000
  C   C389      1.0  0.04909  0.11373  0.47154  1.0000
  C   C390      1.0  0.31551  0.98413  0.33566  1.0000
  H   H305      1.0  0.99603  0.11421  0.44013  1.0000
  H   H306      1.0  0.39825  0.10017  0.33187  1.0000
  H   H307      1.0  0.10118  0.26246  0.32178  1.0000
  H   H308      1.0  0.22071  0.13254  0.46167  1.0000
  H   H309      1.0  0.14630  0.21659  0.35266  1.0000
  H   H310      1.0  0.10616  0.10256  0.46163  1.0000
  C   C391      1.0  0.26438  0.06222  0.47080  1.0000
  C   C392      1.0  0.09576  0.22740  0.38400  1.0000
  H   H311      1.0  0.19131  0.98218  0.47302  1.0000
  H   H312      1.0  0.19488  0.14688  0.33302  1.0000
  C   C393      1.0  0.13478  0.24092  0.42223  1.0000
  C   C394      1.0  0.28050  0.06688  0.44942  1.0000
  C   C395      1.0  0.09826  0.22317  0.33923  1.0000
  C   C396      1.0  0.19883  0.28608  0.35020  1.0000
  C   C397      1.0  0.20893  0.11221  0.46316  1.0000
  C   C398      1.0  0.03874  0.09238  0.47998  1.0000
  H   H313      1.0  0.31501  0.14342  0.41960  1.0000
  H   H314      1.0  0.13336  0.99879  0.38732  1.0000
  H   H315      1.0  0.21369  0.30545  0.34973  1.0000
  H   H316      1.0  0.31343  0.01676  0.39210  1.0000
  H   H317      1.0  0.17125  0.34528  0.32484  1.0000
  C   C399      1.0  0.38306  0.06997  0.34633  1.0000
  C   C400      1.0  0.14502  0.22216  0.41818  1.0000
  H   H318      1.0  0.29280  0.01647  0.46497  1.0000
  C   C401      1.0  0.26254  0.11658  0.44064  1.0000
  C   C402      1.0  0.06767  0.10259  0.42272  1.0000
  C   C403      1.0  0.09185  0.11139  0.41563  1.0000
  C   C404      1.0  0.11517  0.12955  0.42030  1.0000
  C   C405      1.0  0.11417  0.13940  0.43195  1.0000
  C   C406      1.0  0.08966  0.13121  0.43898  1.0000
  C   C407      1.0  0.06664  0.11223  0.43441  1.0000
  P   P10       1.0  0.08683  0.14477  0.45365  1.0000
  C   C408      1.0  0.07349  0.11768  0.46485  1.0000
  C   C409      1.0  0.11928  0.16661  0.45853  1.0000
  C   C410      1.0  0.13085  0.16186  0.46979  1.0000
  C   C411      1.0  0.15554  0.17940  0.47358  1.0000
  C   C412      1.0  0.16885  0.20186  0.46624  1.0000
  C   C413      1.0  0.15740  0.20683  0.45505  1.0000
  C   C414      1.0  0.13252  0.18943  0.45128  1.0000
  H   H319      1.0  0.16707  0.03980  0.47036  1.0000
  C   C415      1.0  0.17301  0.10304  0.42343  1.0000
  H   H320      1.0  0.25352  0.06751  0.47820  1.0000
  H   H321      1.0  0.21671  0.99782  0.40830  1.0000
  C   C416      1.0  0.06419  0.16347  0.45256  1.0000
  C   C417      1.0  0.06205  0.17789  0.46265  1.0000
  C   C418      1.0  0.04282  0.19053  0.46259  1.0000
  C   C419      1.0  0.02557  0.18883  0.45251  1.0000
  C   C420      1.0  0.02844  0.17556  0.44216  1.0000
  C   C421      1.0  0.04777  0.16301  0.44213  1.0000
  H   H322      1.0  0.04955  0.08869  0.41903  1.0000
  H   H323      1.0  0.09227  0.10451  0.40641  1.0000
  H   H324      1.0  0.13388  0.13664  0.41473  1.0000
  H   H325      1.0  0.13247  0.15358  0.43526  1.0000
  H   H326      1.0  0.04763  0.10543  0.43975  1.0000
  C   C422      1.0  0.09906  0.18886  0.32603  1.0000
  H   H327      1.0  0.24759  0.33128  0.32810  1.0000
  H   H328      1.0  0.18835  0.21511  0.46912  1.0000
  H   H329      1.0  0.16802  0.22403  0.44927  1.0000
  H   H330      1.0  0.12367  0.19362  0.44267  1.0000
  H   H331      1.0  0.13520  0.18395  0.41160  1.0000
  C   C423      1.0  0.07257  0.23410  0.38601  1.0000
  H   H332      1.0  0.03790  0.12701  0.47033  1.0000
  H   H333      1.0  0.07461  0.17868  0.47077  1.0000
  H   H334      1.0  0.04066  0.20094  0.47059  1.0000
  H   H335      1.0  0.29541  0.19598  0.46523  1.0000
  H   H336      1.0  0.01546  0.17480  0.43419  1.0000
  H   H337      1.0  0.04948  0.15288  0.43401  1.0000
  C   C424      1.0  0.12799  0.11415  0.34051  1.0000
  P   P11       1.0  0.10222  0.07429  0.35838  1.0000
  C   C425      1.0  0.07271  0.08469  0.35712  1.0000
  C   C426      1.0  0.06456  0.09632  0.36702  1.0000
  C   C427      1.0  0.04083  0.10289  0.36618  1.0000
  C   C428      1.0  0.02530  0.09833  0.35541  1.0000
  H   H338      1.0  0.40013  0.07810  0.35239  1.0000
  C   C429      1.0  0.05715  0.08050  0.34625  1.0000
  C   C430      1.0  0.11083  0.07200  0.37457  1.0000
  C   C431      1.0  0.12606  0.09434  0.38051  1.0000
  C   C432      1.0  0.13260  0.09271  0.39305  1.0000
  C   C433      1.0  0.12403  0.06880  0.39976  1.0000
  C   C434      1.0  0.10903  0.04647  0.39390  1.0000
  C   C435      1.0  0.10236  0.04802  0.38136  1.0000
  H   H339      1.0  0.10791  0.11431  0.33803  1.0000
  H   H340      1.0  0.13673  0.04778  0.34734  1.0000
  H   H341      1.0  0.07633  0.10043  0.37542  1.0000
  C   C436      1.0  0.28611  0.03301  0.46335  1.0000
  C   C437      1.0  0.10297  0.24194  0.46494  1.0000
  C   C438      1.0  0.36217  0.04702  0.35007  1.0000
  H   H342      1.0  0.06316  0.07180  0.33846  1.0000
  H   H343      1.0  0.13278  0.11305  0.37543  1.0000
  H   H344      1.0  0.14419  0.11010  0.39756  1.0000
  H   H345      1.0  0.12894  0.06755  0.40951  1.0000
  H   H346      1.0  0.10251  0.02792  0.39909  1.0000
  H   H347      1.0  0.09062  0.03047  0.37704  1.0000
  P   P12       1.0  0.11571  0.25178  0.34750  1.0000
  H   H348      1.0  0.00685  0.10339  0.35484  1.0000
  C   C439      1.0  0.31465  0.01280  0.37228  1.0000
  H   H349      1.0  0.31313  0.03168  0.37002  1.0000
  C   C440      1.0  0.16721  0.00283  0.44656  1.0000
  S   S62       1.0  0.00713  0.23086  0.35265  1.0000
  C   C441      1.0  0.27051  0.06567  0.41236  1.0000
  C   C442      1.0  0.22493  0.03474  0.41659  1.0000
  P   P13       1.0  0.19161  0.02657  0.42391  1.0000
  C   C443      1.0  0.11574  0.03493  0.34757  1.0000
  C   C444      1.0  0.15086  0.13175  0.33425  1.0000
  C   C445      1.0  0.27663  0.04798  0.40508  1.0000
  C   C446      1.0  0.23142  0.01688  0.40948  1.0000
  C   C447      1.0  0.08727  0.09982  0.46667  1.0000
  C   C448      1.0  0.06979  0.21151  0.34059  1.0000
  C   C449      1.0  0.16678  0.07889  0.47010  1.0000
  C   C450      1.0  0.13135  0.09732  0.35016  1.0000
  H   H350      1.0  0.11751  0.34233  0.34453  1.0000
  C   C451      1.0  0.11124  0.27979  0.33956  1.0000
  C   C452      1.0  0.25721  0.02354  0.40377  1.0000
  C   C453      1.0  0.18311  0.05595  0.42367  1.0000
  H   H351      1.0  0.29636  0.05322  0.40043  1.0000
  C   C454      1.0  0.10951  0.23356  0.37249  1.0000
  H   H352      1.0  0.12666  0.22710  0.37108  1.0000
  C   C455      1.0  0.19131  0.99055  0.46368  1.0000
  H   H353      1.0  0.01001  0.19792  0.45274  1.0000
  C   C456      1.0  0.08454  0.25097  0.47104  1.0000
  C   C457      1.0  0.21586  0.01085  0.44464  1.0000
  C   C458      1.0  0.10021  0.24667  0.36289  1.0000
  C   C459      1.0  0.11405  0.32482  0.33963  1.0000
  C   C460      1.0  0.19172  0.01283  0.43955  1.0000
  C   C461      1.0  0.21554  0.99972  0.45665  1.0000
  C   C462      1.0  0.00853  0.24588  0.41064  1.0000
  H   H354      1.0  0.16987  0.12152  0.42345  1.0000
  C   C463      1.0  0.18840  0.24005  0.35382  1.0000
  H   H355      1.0  0.21709  0.35525  0.33419  1.0000
  H   H356      1.0  0.29841  0.03881  0.44401  1.0000
  H   H357      1.0  0.28267  0.07574  0.44013  1.0000
  H   H358      1.0  0.29682  0.05359  0.34575  1.0000
  C   C464      1.0  0.33993  0.03650  0.34228  1.0000
  H   H359      1.0  0.27766  0.15154  0.40762  1.0000
  H   H360      1.0  0.36361  0.03751  0.35898  1.0000
  C   C465      1.0  0.29309  0.17642  0.46861  1.0000
  P   P14       1.0  0.25675  0.10328  0.45657  1.0000
  H   H361      1.0  0.14904  0.25926  0.42488  1.0000
  C   C466      1.0  0.14731  0.32050  0.40746  1.0000
  C   C467      1.0  0.38205  0.08239  0.33475  1.0000
  C   C468      1.0  0.33929  0.04884  0.33058  1.0000
  C   C469      1.0  0.26860  0.07588  0.45913  1.0000
  C   C470      1.0  0.06920  0.26331  0.46418  1.0000
  H   H362      1.0  0.16691  0.22607  0.41758  1.0000
  C   C471      1.0  0.06010  0.25579  0.42145  1.0000
  C   C472      1.0  0.11656  0.29193  0.42319  1.0000
  C   C473      1.0  0.28018  0.01164  0.34604  1.0000
  C   C474      1.0  0.28591  0.12592  0.47759  1.0000
  C   C475      1.0  0.12707  0.19823  0.41490  1.0000
  H   H363      1.0  0.11045  0.17996  0.32049  1.0000
  C   C476      1.0  0.07701  0.07860  0.47521  1.0000
  H   H364      1.0  0.15702  0.32354  0.39832  1.0000
  H   H365      1.0  0.99274  0.22080  0.42690  1.0000
  H   H366      1.0  0.07533  0.28099  0.40491  1.0000
  H   H367      1.0  0.27891  0.98267  0.32552  1.0000
  H   H368      1.0  0.19248  0.45114  0.31837  1.0000
  H   H369      1.0  0.28552  0.44100  0.31603  1.0000
  C   C477      1.0  0.10642  0.23596  0.42285  1.0000
  C   C478      1.0  0.02276  0.24836  0.31499  1.0000
  C   C479      1.0  0.27352  0.14179  0.41682  1.0000
  C   C480      1.0  0.27857  0.03666  0.34580  1.0000
  H   H370      1.0  0.12491  0.28044  0.40507  1.0000
  H   H371      1.0  0.14629  0.07340  0.47403  1.0000
  C   C481      1.0  0.03649  0.23873  0.42746  1.0000
  C   C482      1.0  0.06207  0.00025  0.34843  1.0000
  C   C483      1.0  0.14045  0.33705  0.42713  1.0000
  H   H372      1.0  0.12644  0.00403  0.34001  1.0000
  H   H373      1.0  0.04131  0.98673  0.34884  1.0000
  P   P15       1.0  0.09328  0.26023  0.42812  1.0000
  H   H374      1.0  0.11457  0.23208  0.47030  1.0000
  H   H375      1.0  0.99948  0.08868  0.45942  1.0000
  C   C484      1.0  0.12229  0.31264  0.43106  1.0000
  H   H376      1.0  0.17289  0.11965  0.46921  1.0000
  C   C485      1.0  0.22740  0.32686  0.32416  1.0000
  H   H377      1.0  0.06017  0.15920  0.32333  1.0000
  C   C486      1.0  0.21024  0.34025  0.32760  1.0000
  H   H378      1.0  0.08802  0.06518  0.47680  1.0000
  C   C487      1.0  0.25601  0.99015  0.34700  1.0000
  H   H379      1.0  0.10743  0.34211  0.32204  1.0000
  H   H380      1.0  0.25956  0.26785  0.31801  1.0000
  C   C488      1.0  0.18442  0.33458  0.32236  1.0000
  H   H381      1.0  0.35376  0.98235  0.34286  1.0000
  H   H382      1.0  0.18279  0.25427  0.32414  1.0000
  C   C489      1.0  0.31471  0.00442  0.38479  1.0000
  H   H383      1.0  0.32255  0.04070  0.32434  1.0000
  H   H384      1.0  0.14834  0.98468  0.46413  1.0000
  C   C490      1.0  0.36021  0.07177  0.32686  1.0000
  S   S63       1.0  0.99616  0.14671  0.48026  1.0000
  C   C491      1.0  0.19042  0.24368  0.31772  1.0000
  H   H385      1.0  0.08186  0.24802  0.48108  1.0000
  C   C492      1.0  0.21868  0.30772  0.31556  1.0000
  H   H386      1.0  0.35952  0.08127  0.31785  1.0000
  Fe  Fe31      1.0  0.01841  0.15588  0.62390  1.0000
  C   C493      1.0  0.04641  0.22897  0.54926  1.0000
  S   S64       1.0  0.05808  0.14707  0.62650  1.0000
  C   C494      1.0  0.08797  0.26112  0.62509  1.0000
  C   C495      1.0  0.12236  0.22985  0.53089  1.0000
  C   C496      1.0  0.15215  0.99709  0.55398  1.0000
  H   H387      1.0  0.26719  0.00363  0.52767  1.0000
  H   H388      1.0  0.13761  0.22586  0.63241  1.0000
  Fe  Fe32      1.0  0.21872  0.19313  0.63110  1.0000
  S   S65       1.0  0.25511  0.22063  0.62030  1.0000
  C   C497      1.0  0.06269  0.25567  0.61934  1.0000
  Fe  Fe33      1.0  0.24589  0.15205  0.63454  1.0000
  S   S66       1.0  0.28332  0.17669  0.62378  1.0000
  H   H389      1.0  0.38521  0.01098  0.61485  1.0000
  Fe  Fe34      1.0  0.28089  0.20926  0.63503  1.0000
  C   C498      1.0  0.37625  0.14181  0.60553  1.0000
  Fe  Fe35      1.0  0.25418  0.18550  0.61017  1.0000
  S   S67       1.0  0.26002  0.17867  0.58965  1.0000
  H   H390      1.0  0.05949  0.41302  0.64593  1.0000
  S   S68       1.0  0.21663  0.15842  0.62032  1.0000
  S   S69       1.0  0.19346  0.00190  0.62611  1.0000
  H   H391      1.0  0.45202  0.15130  0.63629  1.0000
  Fe  Fe36      1.0  0.23301  0.18718  0.48893  1.0000
  H   H392      1.0  0.22668  0.99827  0.60193  1.0000
  Fe  Fe37      1.0  0.22961  0.19007  0.51784  1.0000
  S   S70       1.0  0.20864  0.14737  0.52055  1.0000
  S   S71       1.0  0.23323  0.21397  0.53495  1.0000
  Fe  Fe38      1.0  0.23890  0.14432  0.50653  1.0000
  S   S72       1.0  0.25860  0.11398  0.50972  1.0000
  Fe  Fe39      1.0  0.18406  0.15162  0.50402  1.0000
  S   S73       1.0  0.13914  0.12832  0.50376  1.0000
  S   S74       1.0  0.26211  0.18700  0.50466  1.0000
  S   S75       1.0  0.20299  0.19485  0.50195  1.0000
  Fe  Fe40      1.0  0.01889  0.17254  0.49507  1.0000
  H   H393      1.0  0.23094  0.12700  0.59695  1.0000
  S   S76       1.0  0.26195  0.98559  0.62188  1.0000
  C   C499      1.0  0.11762  0.14695  0.50249  1.0000
  C   C500      1.0  0.09007  0.13509  0.49963  1.0000
  C   C501      1.0  0.07302  0.14999  0.49782  1.0000
  H   H394      1.0  0.08829  0.20254  0.62873  1.0000
  S   S77       1.0  0.01095  0.18710  0.61162  1.0000
  C   C502      1.0  0.12777  0.17357  0.50400  1.0000
  H   H395      1.0  0.08203  0.11444  0.49869  1.0000
  H   H396      1.0  0.05180  0.14084  0.49552  1.0000
  H   H397      1.0  0.00992  0.11951  0.53821  1.0000
  H   H398      1.0  0.06157  0.26219  0.60974  1.0000
  C   C503      1.0  0.23576  0.08392  0.50571  1.0000
  C   C504      1.0  0.20811  0.08044  0.50399  1.0000
  C   C505      1.0  0.19005  0.05642  0.50068  1.0000
  C   C506      1.0  0.19945  0.03564  0.49940  1.0000
  C   C507      1.0  0.22700  0.03898  0.50131  1.0000
  C   C508      1.0  0.24522  0.06325  0.50422  1.0000
  H   H399      1.0  0.20054  0.09619  0.50524  1.0000
  H   H400      1.0  0.16873  0.05391  0.49923  1.0000
  C   C509      1.0  0.27328  0.09505  0.58802  1.0000
  P   P16       1.0  0.30532  0.10131  0.57979  1.0000
  C   C510      1.0  0.23492  0.08484  0.63786  1.0000
  C   C511      1.0  0.24971  0.06772  0.63768  1.0000
  C   C512      1.0  0.23725  0.04226  0.63408  1.0000
  C   C513      1.0  0.20968  0.03358  0.63089  1.0000
  C   C514      1.0  0.19483  0.05066  0.63110  1.0000
  C   C515      1.0  0.20743  0.07628  0.63453  1.0000
  H   H401      1.0  0.00266  0.24111  0.52822  1.0000
  H   H402      1.0  0.24893  0.02933  0.63390  1.0000
  H   H403      1.0  0.17345  0.04401  0.62872  1.0000
  H   H404      1.0  0.19576  0.08921  0.63491  1.0000
  C   C516      1.0  0.25043  0.18812  0.57474  1.0000
  C   C517      1.0  0.25158  0.17341  0.56457  1.0000
  C   C518      1.0  0.24568  0.18067  0.55242  1.0000
  C   C519      1.0  0.23901  0.20310  0.55024  1.0000
  C   C520      1.0  0.23747  0.21765  0.56042  1.0000
  C   C521      1.0  0.24302  0.21018  0.57262  1.0000
  H   H405      1.0  0.25757  0.15651  0.56605  1.0000
  H   H406      1.0  0.24706  0.16934  0.54469  1.0000
  H   H407      1.0  0.23259  0.23518  0.55883  1.0000
  H   H408      1.0  0.24261  0.22207  0.58025  1.0000
  S   S78       1.0  0.06347  0.19603  0.49547  1.0000
  C   C522      1.0  0.09326  0.16544  0.62766  1.0000
  C   C523      1.0  0.10264  0.19218  0.62898  1.0000
  C   C524      1.0  0.13060  0.20533  0.63103  1.0000
  C   C525      1.0  0.14950  0.19204  0.63141  1.0000
  C   C526      1.0  0.14025  0.16555  0.62955  1.0000
  C   C527      1.0  0.11225  0.15231  0.62782  1.0000
  S   S79       1.0  0.98225  0.14346  0.58195  1.0000
  C   C528      1.0  0.30409  0.15477  0.54539  1.0000
  H   H409      1.0  0.15455  0.15510  0.62982  1.0000
  C   C529      1.0  0.34907  0.30635  0.63696  1.0000
  C   C530      1.0  0.35443  0.19089  0.64064  1.0000
  H   H410      1.0  0.40090  0.12747  0.59381  1.0000
  H   H411      1.0  0.23441  0.02308  0.50030  1.0000
  H   H412      1.0  0.16442  0.17541  0.48222  1.0000
  H   H413      1.0  0.18689  0.01234  0.59857  1.0000
  C   C531      1.0  0.05889  0.21578  0.54176  1.0000
  C   C532      1.0  0.08368  0.17680  0.49871  1.0000
  H   H414      1.0  0.42571  0.03752  0.62602  1.0000
  H   H415      1.0  0.04283  0.16773  0.56734  1.0000
  C   C533      1.0  0.04004  0.23275  0.63829  1.0000
  P   P17       1.0  0.08214  0.20064  0.54828  1.0000
  C   C534      1.0  0.06997  0.16812  0.54291  1.0000
  H   H416      1.0  0.30412  0.03376  0.55065  1.0000
  C   C535      1.0  0.03159  0.22214  0.52437  1.0000
  C   C536      1.0  0.08772  0.15792  0.53689  1.0000
  C   C537      1.0  0.07743  0.13405  0.53146  1.0000
  C   C538      1.0  0.04949  0.12004  0.53208  1.0000
  C   C539      1.0  0.03172  0.12997  0.53808  1.0000
  C   C540      1.0  0.04186  0.15405  0.54330  1.0000
  C   C541      1.0  0.08016  0.20080  0.56512  1.0000
  C   C542      1.0  0.09886  0.22083  0.57147  1.0000
  C   C543      1.0  0.09684  0.22156  0.58442  1.0000
  C   C544      1.0  0.07594  0.20253  0.59113  1.0000
  C   C545      1.0  0.05677  0.18308  0.58487  1.0000
  C   C546      1.0  0.05863  0.18240  0.57193  1.0000
  H   H417      1.0  0.26867  0.05581  0.59466  1.0000
  H   H418      1.0  0.34531  0.15043  0.56930  1.0000
  H   H419      1.0  0.19157  0.24501  0.52945  1.0000
  H   H420      1.0  0.10602  0.23191  0.52519  1.0000
  H   H421      1.0  0.10933  0.16868  0.53587  1.0000
  H   H422      1.0  0.09102  0.12681  0.52635  1.0000
  H   H423      1.0  0.04149  0.10188  0.52758  1.0000
  H   H424      1.0  0.25755  0.99914  0.58428  1.0000
  H   H425      1.0  0.02764  0.16227  0.54715  1.0000
  H   H426      1.0  0.11478  0.23616  0.56643  1.0000
  H   H427      1.0  0.11143  0.23695  0.58923  1.0000
  H   H428      1.0  0.07437  0.20287  0.60118  1.0000
  H   H429      1.0  0.04017  0.16859  0.59002  1.0000
  C   C547      1.0  0.31629  0.03085  0.58162  1.0000
  H   H430      1.0  0.30082  0.07567  0.55584  1.0000
  H   H431      1.0  0.22707  0.99676  0.54144  1.0000
  H   H432      1.0  0.26538  0.09862  0.56051  1.0000
  H   H433      1.0  0.14855  0.18273  0.50672  1.0000
  S   S80       1.0  0.31971  0.23829  0.64313  1.0000
  H   H434      1.0  0.11912  0.20925  0.50277  1.0000
  C   C548      1.0  0.23903  0.11139  0.59616  1.0000
  C   C549      1.0  0.13880  0.21356  0.54951  1.0000
  C   C550      1.0  0.32685  0.16117  0.55306  1.0000
  S   S81       1.0  0.98895  0.12374  0.61378  1.0000
  C   C551      1.0  0.01885  0.23472  0.53193  1.0000
  C   C552      1.0  0.17080  0.23738  0.53316  1.0000
  H   H435      1.0  0.14734  0.99511  0.51806  1.0000
  H   H436      1.0  0.15318  0.24997  0.51703  1.0000
  H   H437      1.0  0.26671  0.06611  0.50516  1.0000
  C   C553      1.0  0.41053  0.02135  0.63097  1.0000
  C   C554      1.0  0.28203  0.13211  0.54804  1.0000
  H   H438      1.0  0.34675  0.15367  0.61539  1.0000
  C   C555      1.0  0.22242  0.00435  0.59265  1.0000
  C   C556      1.0  0.31472  0.05473  0.58466  1.0000
  C   C557      1.0  0.17310  0.01033  0.53350  1.0000
  H   H439      1.0  0.36299  0.10587  0.58001  1.0000
  H   H440      1.0  0.39293  0.15138  0.61154  1.0000
  H   H441      1.0  0.98142  0.12387  0.55800  1.0000
  C   C558      1.0  0.18820  0.07335  0.54472  1.0000
  H   H442      1.0  0.13513  0.20253  0.55836  1.0000
  C   C559      1.0  0.30701  0.03970  0.56014  1.0000
  H   H443      1.0  0.34377  0.17895  0.55106  1.0000
  C   C560      1.0  0.12953  0.11952  0.54390  1.0000
  C   C561      1.0  0.14895  0.14187  0.53858  1.0000
  C   C562      1.0  0.16353  0.16161  0.54610  1.0000
  C   C563      1.0  0.15832  0.15938  0.55895  1.0000
  C   C564      1.0  0.13833  0.13721  0.56436  1.0000
  C   C565      1.0  0.12406  0.11726  0.55670  1.0000
  P   P18       1.0  0.13045  0.13427  0.58091  1.0000
  C   C566      1.0  0.14116  0.10944  0.58878  1.0000
  C   C567      1.0  0.14867  0.16396  0.58817  1.0000
  C   C568      1.0  0.17703  0.17095  0.58979  1.0000
  C   C569      1.0  0.19105  0.19279  0.59625  1.0000
  C   C570      1.0  0.17695  0.20781  0.60112  1.0000
  C   C571      1.0  0.14881  0.20113  0.59944  1.0000
  C   C572      1.0  0.13467  0.17931  0.59298  1.0000
  C   C573      1.0  0.14583  0.11008  0.60167  1.0000
  C   C574      1.0  0.15295  0.09045  0.60797  1.0000
  C   C575      1.0  0.15543  0.06997  0.60150  1.0000
  C   C576      1.0  0.15143  0.06947  0.58866  1.0000
  C   C577      1.0  0.14448  0.08913  0.58231  1.0000
  C   C578      1.0  0.09399  0.12614  0.58361  1.0000
  C   C579      1.0  0.07633  0.12698  0.57379  1.0000
  C   C580      1.0  0.04817  0.11997  0.57603  1.0000
  C   C581      1.0  0.03753  0.11322  0.58813  1.0000
  C   C582      1.0  0.05496  0.11305  0.59798  1.0000
  C   C583      1.0  0.08301  0.11935  0.59575  1.0000
  H   H444      1.0  0.11850  0.10412  0.53801  1.0000
  H   H445      1.0  0.15276  0.14389  0.52862  1.0000
  H   H446      1.0  0.17904  0.17862  0.54192  1.0000
  H   H447      1.0  0.16996  0.17509  0.56450  1.0000
  H   H448      1.0  0.10838  0.10006  0.56061  1.0000
  H   H449      1.0  0.18831  0.15933  0.58626  1.0000
  H   H450      1.0  0.21281  0.19778  0.59769  1.0000
  H   H451      1.0  0.18776  0.22429  0.60645  1.0000
  H   H452      1.0  0.13783  0.21242  0.60351  1.0000
  H   H453      1.0  0.11280  0.17418  0.59205  1.0000
  H   H454      1.0  0.14390  0.12570  0.60691  1.0000
  H   H455      1.0  0.15645  0.09111  0.61792  1.0000
  H   H456      1.0  0.16069  0.05464  0.60643  1.0000
  H   H457      1.0  0.15354  0.05377  0.58362  1.0000
  H   H458      1.0  0.14171  0.08818  0.57239  1.0000
  H   H459      1.0  0.08403  0.13334  0.56442  1.0000
  H   H460      1.0  0.03456  0.12048  0.56845  1.0000
  H   H461      1.0  0.01585  0.10873  0.58991  1.0000
  H   H462      1.0  0.04673  0.10839  0.60741  1.0000
  H   H463      1.0  0.09605  0.11942  0.60358  1.0000
  H   H464      1.0  0.05998  0.20176  0.52334  1.0000
  C   C584      1.0  0.38764  0.00641  0.62460  1.0000
  H   H465      1.0  0.32011  0.01790  0.58877  1.0000
  C   C585      1.0  0.33295  0.11715  0.58994  1.0000
  C   C586      1.0  0.32869  0.13090  0.59994  1.0000
  C   C587      1.0  0.30865  0.07108  0.57550  1.0000
  P   P19       1.0  0.20542  0.03296  0.55335  1.0000
  C   C588      1.0  0.20012  0.06355  0.55460  1.0000
  C   C589      1.0  0.21165  0.02069  0.56862  1.0000
  C   C590      1.0  0.35917  0.11608  0.58776  1.0000
  C   C591      1.0  0.19452  0.02045  0.57877  1.0000
  H   H466      1.0  0.26433  0.12738  0.54210  1.0000
  C   C592      1.0  0.23982  0.00491  0.58270  1.0000
  C   C593      1.0  0.23443  0.01285  0.57072  1.0000
  C   C594      1.0  0.20983  0.07878  0.56484  1.0000
  C   C595      1.0  0.20768  0.10342  0.56510  1.0000
  C   C596      1.0  0.19604  0.11306  0.55517  1.0000
  C   C597      1.0  0.18604  0.09790  0.54506  1.0000
  H   H467      1.0  0.17716  0.10535  0.53729  1.0000
  C   C598      1.0  0.23434  0.03769  0.54300  1.0000
  C   C599      1.0  0.25119  0.06273  0.53901  1.0000
  C   C600      1.0  0.27414  0.06638  0.53143  1.0000
  C   C601      1.0  0.28006  0.04505  0.52748  1.0000
  C   C602      1.0  0.26287  0.02007  0.53102  1.0000
  C   C603      1.0  0.24009  0.01631  0.53876  1.0000
  C   C604      1.0  0.11693  0.21651  0.54263  1.0000
  C   C605      1.0  0.11096  0.18855  0.50192  1.0000
  C   C606      1.0  0.32762  0.14489  0.56341  1.0000
  C   C607      1.0  0.26063  0.07148  0.59479  1.0000
  C   C608      1.0  0.26219  0.11495  0.58873  1.0000
  H   H468      1.0  0.31361  0.00484  0.56702  1.0000
  C   C609      1.0  0.17509  0.01116  0.54653  1.0000
  H   H469      1.0  0.24833  0.01293  0.56325  1.0000
  H   H470      1.0  0.21994  0.07220  0.57243  1.0000
  H   H471      1.0  0.21556  0.11541  0.57286  1.0000
  H   H472      1.0  0.19529  0.13248  0.55522  1.0000
  H   H473      1.0  0.10518  0.13164  0.62683  1.0000
  C   C610      1.0  0.47281  0.03996  0.64226  1.0000
  H   H474      1.0  0.24648  0.07954  0.54146  1.0000
  H   H475      1.0  0.28672  0.08579  0.52822  1.0000
  H   H476      1.0  0.29751  0.04785  0.52137  1.0000
  H   H477      1.0  0.39186  0.32550  0.63273  1.0000
  H   H478      1.0  0.33985  0.18928  0.63327  1.0000
  C   C611      1.0  0.30505  0.06345  0.56317  1.0000
  C   C612      1.0  0.30550  0.12206  0.56614  1.0000
  H   H479      1.0  0.18132  0.06248  0.53652  1.0000
  H   H480      1.0  0.22824  0.05005  0.60758  1.0000
  H   H481      1.0  0.30885  0.13241  0.60182  1.0000
  H   H482      1.0  0.18250  0.22206  0.55017  1.0000
  H   H483      1.0  0.10657  0.27181  0.61992  1.0000
  C   C613      1.0  0.16563  0.22434  0.54487  1.0000
  C   C614      1.0  0.03875  0.24177  0.62600  1.0000
  S   S82       1.0  0.21235  0.14431  0.49014  1.0000
  C   C615      1.0  0.38071  0.12833  0.59555  1.0000
  S   S83       1.0  0.25054  0.11571  0.64364  1.0000
  C   C616      1.0  0.14918  0.24015  0.52619  1.0000
  C   C617      1.0  0.37526  0.32330  0.63926  1.0000
  C   C618      1.0  0.22682  0.08804  0.60294  1.0000
  H   H484      1.0  0.05138  0.23147  0.55898  1.0000
  H   H485      1.0  0.31770  0.06020  0.59423  1.0000
  H   H486      1.0  0.27203  0.13358  0.58390  1.0000
  C   C619      1.0  0.31245  0.02336  0.56936  1.0000
  H   H487      1.0  0.20955  0.08575  0.60901  1.0000
  S   S84       1.0  0.17651  0.00579  0.49526  1.0000
  H   H488      1.0  0.19011  0.02144  0.52743  1.0000
  C   C620      1.0  0.35026  0.14310  0.60771  1.0000
  C   C621      1.0  0.28267  0.11592  0.55843  1.0000
  H   H489      1.0  0.02566  0.21921  0.51479  1.0000
  C   C622      1.0  0.02633  0.23823  0.54436  1.0000
  C   C623      1.0  0.05129  0.21247  0.52926  1.0000
  C   C624      1.0  0.14874  0.99558  0.52810  1.0000
  S   S85       1.0  0.18419  0.20895  0.63473  1.0000
  H   H490      1.0  0.30336  0.16750  0.53744  1.0000
  C   C625      1.0  0.41352  0.01582  0.64369  1.0000
  H   H491      1.0  0.45908  0.99969  0.63778  1.0000
  C   C626      1.0  0.23748  0.06805  0.60218  1.0000
  H   H492      1.0  0.01601  0.24752  0.55027  1.0000
  H   H493      1.0  0.17742  0.02720  0.57751  1.0000
  H   H494      1.0  0.46544  0.10894  0.64411  1.0000
  C   C627      1.0  0.37426  0.21485  0.64252  1.0000
  H   H495      1.0  0.15275  0.99733  0.56398  1.0000
  H   H496      1.0  0.37483  0.23164  0.63663  1.0000
  S   S86       1.0  0.24458  0.18421  0.64639  1.0000
  S   S87       1.0  0.99094  0.19567  0.49518  1.0000
  C   C628      1.0  0.12780  0.98242  0.54852  1.0000
  C   C629      1.0  0.12611  0.98165  0.53558  1.0000
  H   H497      1.0  0.01904  0.23786  0.62164  1.0000
  H   H498      1.0  0.33709  0.15102  0.64694  1.0000
  S   S88       1.0  0.99805  0.14556  0.51111  1.0000
  H   H499      1.0  0.13908  0.98462  0.59528  1.0000
  C   C630      1.0  0.19982  0.01217  0.59070  1.0000
  H   H500      1.0  0.27093  0.07421  0.64030  1.0000
  H   H501      1.0  0.30778  0.28930  0.64358  1.0000
  H   H502      1.0  0.10907  0.25787  0.64181  1.0000
  Fe  Fe41      1.0  0.98015  0.15475  0.60194  1.0000
  C   C631      1.0  0.08925  0.25304  0.63756  1.0000
  H   H503      1.0  0.34537  0.29511  0.62874  1.0000
  H   H504      1.0  0.26999  0.03080  0.48198  1.0000
  H   H505      1.0  0.30736  0.14351  0.49373  1.0000
  C   C632      1.0  0.36770  0.98563  0.63084  1.0000
  S   S89       1.0  0.98623  0.15479  0.63826  1.0000
  H   H506      1.0  0.31380  0.18831  0.48572  1.0000
  H   H507      1.0  0.39830  0.05943  0.64169  1.0000
  C   C633      1.0  0.06521  0.23887  0.64430  1.0000
  C   C634      1.0  0.32769  0.30301  0.64548  1.0000
  H   H508      1.0  0.04484  0.05854  0.48853  1.0000
  C   C635      1.0  0.41199  0.07330  0.64752  1.0000
  H   H509      1.0  0.02125  0.22159  0.64318  1.0000
  C   C636      1.0  0.29989  0.14690  0.48462  1.0000
  H   H510      1.0  0.38684  0.10317  0.64576  1.0000
  C   C637      1.0  0.44061  0.13899  0.64401  1.0000
  H   H511      1.0  0.02000  0.08963  0.48522  1.0000
  C   C638      1.0  0.47519  0.01833  0.63663  1.0000
  H   H512      1.0  0.41206  0.16376  0.64705  1.0000
  H   H513      1.0  0.06059  0.18255  0.64743  1.0000
  C   C639      1.0  0.05272  0.07485  0.48184  1.0000
  H   H514      1.0  0.28321  0.10682  0.48152  1.0000
  H   H515      1.0  0.36470  0.27719  0.78921  1.0000
  C   C640      1.0  0.05366  0.38912  0.68076  1.0000
  S   S90       1.0  0.45072  0.05144  0.80257  1.0000
  Fe  Fe42      1.0  0.40699  0.05214  0.70328  1.0000
  S   S91       1.0  0.45040  0.07284  0.69659  1.0000
  S   S92       1.0  0.37213  0.04083  0.68900  1.0000
  Fe  Fe43      1.0  0.42236  0.06916  0.73048  1.0000
  S   S93       1.0  0.46614  0.09171  0.72526  1.0000
  S   S94       1.0  0.40273  0.06941  0.74948  1.0000
  Fe  Fe44      1.0  0.44918  0.10535  0.70808  1.0000
  H   H516      1.0  0.43171  0.99407  0.77472  1.0000
  Fe  Fe45      1.0  0.46384  0.05728  0.71421  1.0000
  S   S95       1.0  0.40561  0.08570  0.71406  1.0000
  S   S96       1.0  0.42030  0.03370  0.72032  1.0000
  Fe  Fe46      1.0  0.43170  0.30008  0.73273  1.0000
  H   H517      1.0  0.17950  0.24691  0.66860  1.0000
  S   S97       1.0  0.41556  0.31163  0.75041  1.0000
  Fe  Fe47      1.0  0.41453  0.27695  0.70676  1.0000
  C   C641      1.0  0.04721  0.17711  0.65554  1.0000
  S   S98       1.0  0.37521  0.25176  0.69717  1.0000
  C   C642      1.0  0.33110  0.99351  0.71226  1.0000
  C   C643      1.0  0.37549  0.15526  0.68434  1.0000
  H   H518      1.0  0.22143  0.21516  0.66229  1.0000
  C   C644      1.0  0.10166  0.23397  0.66422  1.0000
  S   S99       1.0  0.42208  0.26036  0.72561  1.0000
  S   S100      1.0  0.42076  0.31591  0.71447  1.0000
  H   H519      1.0  0.47544  0.19827  0.75469  1.0000
  H   H520      1.0  0.35062  0.00167  0.71672  1.0000
  H   H521      1.0  0.36040  0.98479  0.68643  1.0000
  H   H522      1.0  0.26053  0.07306  0.66654  1.0000
  C   C645      1.0  0.36068  0.26027  0.65979  1.0000
  H   H523      1.0  0.29925  0.05979  0.66007  1.0000
  C   C646      1.0  0.46889  0.25036  0.76812  1.0000
  H   H524      1.0  0.03027  0.26090  0.65570  1.0000
  C   C647      1.0  0.07922  0.39835  0.67471  1.0000
  C   C648      1.0  0.37098  0.17180  0.65841  1.0000
  C   C649      1.0  0.32026  0.00905  0.66094  1.0000
  C   C650      1.0  0.33721  0.02636  0.66924  1.0000
  C   C651      1.0  0.35176  0.01789  0.67857  1.0000
  C   C652      1.0  0.47521  0.21099  0.76199  1.0000
  C   C653      1.0  0.05786  0.40619  0.65563  1.0000
  H   H525      1.0  0.33916  0.04652  0.66843  1.0000
  C   C654      1.0  0.31706  0.98269  0.66202  1.0000
  H   H526      1.0  0.10116  0.41412  0.65750  1.0000
  C   C655      1.0  0.37357  0.26349  0.67149  1.0000
  C   C656      1.0  0.36075  0.24782  0.68193  1.0000
  C   C657      1.0  0.33508  0.22862  0.68037  1.0000
  C   C658      1.0  0.32239  0.22514  0.66862  1.0000
  H   H527      1.0  0.39326  0.27835  0.67244  1.0000
  H   H528      1.0  0.32485  0.21634  0.68833  1.0000
  H   H529      1.0  0.30274  0.21026  0.66763  1.0000
  H   H530      1.0  0.34800  0.09717  0.69354  1.0000
  C   C659      1.0  0.33498  0.24112  0.65822  1.0000
  C   C660      1.0  0.27834  0.28176  0.66592  1.0000
  C   C661      1.0  0.35279  0.16936  0.64852  1.0000
  C   C662      1.0  0.25725  0.23628  0.67237  1.0000
  C   C663      1.0  0.23810  0.25487  0.65541  1.0000
  H   H531      1.0  0.39542  0.98904  0.65945  1.0000
  C   C664      1.0  0.43832  0.05937  0.78802  1.0000
  C   C665      1.0  0.41232  0.06145  0.78697  1.0000
  C   C666      1.0  0.40172  0.06438  0.77512  1.0000
  C   C667      1.0  0.41717  0.06591  0.76419  1.0000
  C   C668      1.0  0.44346  0.06457  0.76526  1.0000
  C   C669      1.0  0.45390  0.06123  0.77709  1.0000
  H   H532      1.0  0.39995  0.05979  0.79527  1.0000
  H   H533      1.0  0.38125  0.06514  0.77442  1.0000
  H   H534      1.0  0.45550  0.06548  0.75695  1.0000
  S   S101      1.0  0.47649  0.31286  0.72805  1.0000
  C   C670      1.0  0.40762  0.28459  0.79191  1.0000
  C   C671      1.0  0.43343  0.29265  0.78596  1.0000
  C   C672      1.0  0.43606  0.29943  0.77301  1.0000
  C   C673      1.0  0.41296  0.29816  0.76595  1.0000
  C   C674      1.0  0.38734  0.29009  0.77196  1.0000
  C   C675      1.0  0.38466  0.28306  0.78475  1.0000
  H   H535      1.0  0.45138  0.29425  0.79134  1.0000
  H   H536      1.0  0.45603  0.30670  0.76861  1.0000
  H   H537      1.0  0.36947  0.28992  0.76676  1.0000
  H   H538      1.0  0.01828  0.28323  0.69210  1.0000
  C   C676      1.0  0.30496  0.11958  0.77479  1.0000
  C   C677      1.0  0.28017  0.12046  0.77014  1.0000
  C   C678      1.0  0.27988  0.14068  0.76177  1.0000
  C   C679      1.0  0.30439  0.15997  0.75798  1.0000
  C   C680      1.0  0.32941  0.15898  0.76247  1.0000
  C   C681      1.0  0.32948  0.13884  0.77104  1.0000
  P   P20       1.0  0.36133  0.18404  0.75818  1.0000
  C   C682      1.0  0.37540  0.19699  0.77275  1.0000
  C   C683      1.0  0.38403  0.17136  0.75012  1.0000
  C   C684      1.0  0.37658  0.14501  0.74771  1.0000
  C   C685      1.0  0.39466  0.13596  0.74129  1.0000
  C   C686      1.0  0.42002  0.15315  0.73708  1.0000
  C   C687      1.0  0.42714  0.17944  0.73916  1.0000
  C   C688      1.0  0.40931  0.18852  0.74566  1.0000
  C   C689      1.0  0.36156  0.20955  0.77988  1.0000
  H   H539      1.0  0.99934  0.34038  0.73216  1.0000
  H   H540      1.0  0.46752  0.35191  0.76108  1.0000
  H   H541      1.0  0.42532  0.19693  0.79334  1.0000
  H   H542      1.0  0.43402  0.14612  0.73210  1.0000
  C   C690      1.0  0.35635  0.20833  0.74738  1.0000
  C   C691      1.0  0.34634  0.20127  0.73547  1.0000
  C   C692      1.0  0.34309  0.21981  0.72679  1.0000
  C   C693      1.0  0.35000  0.24554  0.72988  1.0000
  C   C694      1.0  0.36023  0.25278  0.74163  1.0000
  C   C695      1.0  0.36380  0.23438  0.75031  1.0000
  H   H543      1.0  0.30518  0.10409  0.78141  1.0000
  H   H544      1.0  0.26115  0.10563  0.77314  1.0000
  H   H545      1.0  0.26061  0.14157  0.75832  1.0000
  H   H546      1.0  0.30358  0.17573  0.75172  1.0000
  H   H547      1.0  0.34853  0.13813  0.77486  1.0000
  C   C696      1.0  0.44663  0.02297  0.66708  1.0000
  C   C697      1.0  0.31561  0.10513  0.70310  1.0000
  S   S102      1.0  0.40253  0.27669  0.80821  1.0000
  H   H548      1.0  0.40910  0.18209  0.77262  1.0000
  H   H549      1.0  0.41515  0.20902  0.74712  1.0000
  H   H550      1.0  0.34325  0.21261  0.77644  1.0000
  C   C698      1.0  0.33505  0.12101  0.66837  1.0000
  H   H551      1.0  0.20266  0.02834  0.66935  1.0000
  H   H552      1.0  0.27841  0.99459  0.67807  1.0000
  H   H553      1.0  0.34133  0.18147  0.73286  1.0000
  H   H554      1.0  0.33576  0.21448  0.71755  1.0000
  H   H555      1.0  0.34814  0.25999  0.72302  1.0000
  H   H556      1.0  0.36613  0.27287  0.74390  1.0000
  H   H557      1.0  0.37296  0.24087  0.75910  1.0000
  H   H558      1.0  0.47677  0.12108  0.77150  1.0000
  P   P21       1.0  0.30476  0.31279  0.66737  1.0000
  C   C699      1.0  0.33236  0.31663  0.65640  1.0000
  C   C700      1.0  0.29004  0.33786  0.66416  1.0000
  C   C701      1.0  0.26356  0.33452  0.66856  1.0000
  C   C702      1.0  0.25200  0.35381  0.66612  1.0000
  C   C703      1.0  0.26679  0.37656  0.65928  1.0000
  C   C704      1.0  0.98197  0.33746  0.66510  1.0000
  C   C705      1.0  0.30481  0.36082  0.65733  1.0000
  C   C706      1.0  0.31800  0.31533  0.68299  1.0000
  C   C707      1.0  0.33786  0.30418  0.68626  1.0000
  C   C708      1.0  0.34906  0.30676  0.69814  1.0000
  C   C709      1.0  0.34040  0.32030  0.70691  1.0000
  C   C710      1.0  0.32043  0.33125  0.70380  1.0000
  C   C711      1.0  0.30925  0.32881  0.69190  1.0000
  C   C712      1.0  0.44196  0.37058  0.78004  1.0000
  H   H559      1.0  0.25189  0.31703  0.67392  1.0000
  H   H560      1.0  0.37087  0.27261  0.65186  1.0000
  C   C713      1.0  0.29002  0.99885  0.70355  1.0000
  H   H561      1.0  0.00490  0.46748  0.68895  1.0000
  H   H562      1.0  0.98451  0.39518  0.70592  1.0000
  H   H563      1.0  0.36464  0.29838  0.70051  1.0000
  H   H564      1.0  0.34930  0.32236  0.71608  1.0000
  H   H565      1.0  0.31378  0.34180  0.71062  1.0000
  H   H566      1.0  0.29404  0.33767  0.68971  1.0000
  C   C714      1.0  0.41150  0.13137  0.79652  1.0000
  C   C715      1.0  0.39510  0.11957  0.78676  1.0000
  C   C716      1.0  0.40546  0.12431  0.77457  1.0000
  C   C717      1.0  0.43229  0.14063  0.77214  1.0000
  C   C718      1.0  0.44920  0.15192  0.78197  1.0000
  C   C719      1.0  0.43842  0.14767  0.79416  1.0000
  C   C720      1.0  0.46218  0.08589  0.66432  1.0000
  C   C721      1.0  0.27431  0.06833  0.70717  1.0000
  P   P22       1.0  0.36935  0.14425  0.66865  1.0000
  H   H567      1.0  0.31596  0.14748  0.67500  1.0000
  P   P23       1.0  0.99681  0.37722  0.68183  1.0000
  H   H568      1.0  0.10116  0.19690  0.65791  1.0000
  C   C722      1.0  0.14655  0.26221  0.67022  1.0000
  H   H569      1.0  0.35325  0.18222  0.68194  1.0000
  Fe  Fe48      1.0  0.46547  0.32627  0.70939  1.0000
  H   H570      1.0  0.37454  0.10638  0.78870  1.0000
  H   H571      1.0  0.39301  0.11462  0.76702  1.0000
  H   H572      1.0  0.43990  0.14406  0.76261  1.0000
  H   H573      1.0  0.45070  0.15674  0.80188  1.0000
  H   H574      1.0  0.21035  0.98383  0.70138  1.0000
  H   H575      1.0  0.23157  0.35112  0.66954  1.0000
  H   H576      1.0  0.22489  0.03456  0.68987  1.0000
  H   H577      1.0  0.39821  0.36007  0.77881  1.0000
  C   C723      1.0  0.28636  0.05218  0.70159  1.0000
  C   C724      1.0  0.99308  0.44983  0.68468  1.0000
  H   H578      1.0  0.38912  0.11555  0.73961  1.0000
  H   H579      1.0  0.42481  0.00237  0.75228  1.0000
  H   H580      1.0  0.40728  0.02254  0.67373  1.0000
  H   H581      1.0  0.01426  0.39687  0.65654  1.0000
  H   H582      1.0  0.40341  0.12757  0.80596  1.0000
  H   H583      1.0  0.35698  0.13133  0.75073  1.0000
  H   H584      1.0  0.41647  0.07066  0.67360  1.0000
  H   H585      1.0  0.47398  0.05963  0.77776  1.0000
  C   C725      1.0  0.37139  0.21842  0.79149  1.0000
  H   H586      1.0  0.30934  0.01601  0.65383  1.0000
  C   C726      1.0  0.11867  0.25769  0.66848  1.0000
  H   H587      1.0  0.45976  0.23222  0.70332  1.0000
  C   C727      1.0  0.01352  0.14345  0.66807  1.0000
  H   H588      1.0  0.05262  0.38319  0.69055  1.0000
  H   H589      1.0  0.26900  0.11685  0.67391  1.0000
  H   H590      1.0  0.00874  0.28259  0.66959  1.0000
  C   C728      1.0  0.46670  0.21689  0.70700  1.0000
  H   H591      1.0  0.45625  0.00044  0.70116  1.0000
  H   H592      1.0  0.02014  0.42942  0.69032  1.0000
  C   C729      1.0  0.03214  0.15097  0.65807  1.0000
  H   H593      1.0  0.26997  0.02584  0.72744  1.0000
  C   C730      1.0  0.99979  0.34802  0.72263  1.0000
  C   C731      1.0  0.01027  0.16208  0.67566  1.0000
  C   C732      1.0  0.21903  0.02078  0.67141  1.0000
  C   C733      1.0  0.31484  0.00884  0.70979  1.0000
  C   C734      1.0  0.38009  0.33700  0.65009  1.0000
  C   C735      1.0  0.40990  0.34632  0.79628  1.0000
  H   H594      1.0  0.44643  0.19292  0.73569  1.0000
  H   H595      1.0  0.40740  0.23614  0.65394  1.0000
  C   C736      1.0  0.31261  0.06304  0.69624  1.0000
  C   C737      1.0  0.36464  0.17388  0.68826  1.0000
  H   H596      1.0  0.44733  0.19097  0.69281  1.0000
  H   H597      1.0  0.40747  0.14711  0.71112  1.0000
  C   C738      1.0  0.39850  0.19244  0.77768  1.0000
  H   H598      1.0  0.36285  0.34459  0.66695  1.0000
  C   C739      1.0  0.45847  0.35599  0.79909  1.0000
  H   H599      1.0  0.36152  0.19762  0.70307  1.0000
  C   C740      1.0  0.23725  0.23371  0.66336  1.0000
  H   H600      1.0  0.02305  0.20205  0.67948  1.0000
  H   H601      1.0  0.44196  0.14727  0.66983  1.0000
  H   H602      1.0  0.32713  0.12549  0.70379  1.0000
  H   H603      1.0  0.46869  0.36033  0.73839  1.0000
  C   C741      1.0  0.24239  0.00692  0.71308  1.0000
  C   C742      1.0  0.28612  0.11086  0.67152  1.0000
  H   H604      1.0  0.25366  0.06062  0.71093  1.0000
  C   C743      1.0  0.05912  0.25001  0.68300  1.0000
  C   C744      1.0  0.44877  0.11250  0.64901  1.0000
  C   C745      1.0  0.42894  0.00991  0.68821  1.0000
  H   H605      1.0  0.05060  0.26254  0.70074  1.0000
  C   C746      1.0  0.40788  0.20088  0.78943  1.0000
  H   H606      1.0  0.22313  0.25252  0.64814  1.0000
  C   C747      1.0  0.28131  0.08616  0.66732  1.0000
  H   H607      1.0  0.03431  0.13660  0.65200  1.0000
  C   C748      1.0  0.41740  0.08798  0.66791  1.0000
  H   H608      1.0  0.07217  0.24003  0.68701  1.0000
  H   H609      1.0  0.29338  0.26156  0.68049  1.0000
  C   C749      1.0  0.39465  0.21428  0.79622  1.0000
  C   C750      1.0  0.41507  0.35920  0.78452  1.0000
  H   H610      1.0  0.36115  0.22876  0.79683  1.0000
  C   C751      1.0  0.42583  0.01872  0.67607  1.0000
  C   C752      1.0  0.25861  0.27878  0.65664  1.0000
  C   C753      1.0  0.27782  0.26018  0.67362  1.0000
  H   H611      1.0  0.34483  0.29362  0.67959  1.0000
  C   C754      1.0  0.00732  0.33574  0.71292  1.0000
  C   C755      1.0  0.47455  0.01115  0.68284  1.0000
  H   H612      1.0  0.40077  0.13237  0.69007  1.0000
  C   C756      1.0  0.40467  0.10068  0.65031  1.0000
  C   C757      1.0  0.15782  0.24330  0.66750  1.0000
  C   C758      1.0  0.22744  0.00745  0.66243  1.0000
  C   C759      1.0  0.39445  0.13056  0.66348  1.0000
  C   C760      1.0  0.28894  0.09473  0.70792  1.0000
  C   C761      1.0  0.39096  0.19595  0.66021  1.0000
  C   C762      1.0  0.43161  0.34503  0.80361  1.0000
  C   C763      1.0  0.02603  0.18816  0.67341  1.0000
  C   C764      1.0  0.35873  0.33377  0.65862  1.0000
  C   C765      1.0  0.46385  0.36840  0.78716  1.0000
  C   C766      1.0  0.04683  0.26262  0.69083  1.0000
  C   C767      1.0  0.44002  0.12899  0.66567  1.0000
  C   C768      1.0  0.14117  0.21979  0.66315  1.0000
  P   P24       1.0  0.06631  0.22946  0.66062  1.0000
  C   C769      1.0  0.39107  0.14583  0.69273  1.0000
  C   C770      1.0  0.39507  0.15432  0.70483  1.0000
  H   H613      1.0  0.40520  0.19829  0.66779  1.0000
  C   C771      1.0  0.41519  0.14658  0.65103  1.0000
  C   C772      1.0  0.44921  0.00228  0.76847  1.0000
  H   H614      1.0  0.46472  0.26793  0.76561  1.0000
  H   H615      1.0  0.38046  0.09470  0.67911  1.0000
  H   H616      1.0  0.38908  0.33699  0.79967  1.0000
  C   C773      1.0  0.23167  0.02426  0.68299  1.0000
  C   C774      1.0  0.39486  0.10311  0.67154  1.0000
  C   C775      1.0  0.47564  0.00930  0.77317  1.0000
  C   C776      1.0  0.43908  0.06707  0.65428  1.0000
  C   C777      1.0  0.38437  0.17290  0.70860  1.0000
  H   H617      1.0  0.38846  0.18020  0.71782  1.0000
  C   C778      1.0  0.45339  0.00633  0.69162  1.0000
  C   C779      1.0  0.36919  0.18268  0.70030  1.0000
  H   H618      1.0  0.25712  0.21962  0.67823  1.0000
  C   C780      1.0  0.30318  0.07883  0.66355  1.0000
  H   H619      1.0  0.32184  0.05114  0.69145  1.0000
  C   C781      1.0  0.11323  0.21507  0.66156  1.0000
  H   H620      1.0  0.00135  0.12324  0.66980  1.0000
  C   C782      1.0  0.46786  0.01903  0.74796  1.0000
  H   H621      1.0  0.15954  0.28055  0.67347  1.0000
  C   C783      1.0  0.31283  0.12822  0.67206  1.0000
  C   C784      1.0  0.32993  0.09626  0.66392  1.0000
  C   C785      1.0  0.00142  0.42816  0.68556  1.0000
  C   C786      1.0  0.02347  0.27416  0.67326  1.0000
  C   C787      1.0  0.03229  0.39698  0.66165  1.0000
  C   C788      1.0  0.05359  0.24927  0.67020  1.0000
  C   C789      1.0  0.03571  0.26159  0.66539  1.0000
  C   C790      1.0  0.32739  0.08925  0.69727  1.0000
  C   C791      1.0  0.46783  0.17315  0.70593  1.0000
  C   C792      1.0  0.22997  0.00450  0.73500  1.0000
  H   H622      1.0  0.21727  0.00424  0.65356  1.0000
  S   S103      1.0  0.45868  0.28832  0.70037  1.0000
  C   C793      1.0  0.25269  0.01421  0.68569  1.0000
  C   C794      1.0  0.47118  0.01927  0.67058  1.0000
  H   H623      1.0  0.32192  0.02847  0.71274  1.0000
  C   C795      1.0  0.98533  0.40485  0.68060  1.0000
  H   H624      1.0  0.27964  0.10712  0.71227  1.0000
  C   C796      1.0  0.26168  0.00175  0.67644  1.0000
  Fe  Fe49      1.0  0.46620  0.27421  0.71962  1.0000
  C   C797      1.0  0.02880  0.27447  0.68597  1.0000
  H   H625      1.0  0.25925  0.29483  0.65023  1.0000
  C   C798      1.0  0.99182  0.36956  0.72001  1.0000
  H   H626      1.0  0.98648  0.30296  0.76300  1.0000
  C   C799      1.0  0.44532  0.00709  0.75586  1.0000
  H   H627      1.0  0.40238  0.22152  0.80516  1.0000
  H   H628      1.0  0.00314  0.34375  0.66209  1.0000
  H   H629      1.0  0.44542  0.38084  0.77101  1.0000
  H   H630      1.0  0.98574  0.20435  0.65744  1.0000
  C   C800      1.0  0.04496  0.19591  0.66339  1.0000
  H   H631      1.0  0.41268  0.00668  0.69505  1.0000
  P   P25       1.0  0.44289  0.03628  0.65172  1.0000
  H   H632      1.0  0.11058  0.27297  0.67018  1.0000
  H   H633      1.0  0.42756  0.33493  0.81270  1.0000
  H   H634      1.0  0.40047  0.34994  0.65195  1.0000
  C   C801      1.0  0.47030  0.23400  0.75885  1.0000
  H   H635      1.0  0.01261  0.31855  0.71497  1.0000
  H   H636      1.0  0.15002  0.20536  0.66070  1.0000
  C   C802      1.0  0.24899  0.99825  0.66489  1.0000
  C   C803      1.0  0.02996  0.38810  0.67421  1.0000
  C   C804      1.0  0.45956  0.19345  0.70110  1.0000
  C   C805      1.0  0.34934  0.99173  0.67938  1.0000
  H   H637      1.0  0.01160  0.33461  0.69311  1.0000
  C   C806      1.0  0.99883  0.36662  0.69787  1.0000
  C   C807      1.0  0.00667  0.34488  0.70057  1.0000
  S   S104      1.0  0.45892  0.14445  0.69794  1.0000
  H   H638      1.0  0.09745  0.39917  0.67982  1.0000
  H   H639      1.0  0.98169  0.30032  0.78585  1.0000
  H   H640      1.0  0.34631  0.09037  0.66053  1.0000
  P   P26       1.0  0.26804  0.01797  0.70085  1.0000
  H   H641      1.0  0.23551  0.00973  0.74446  1.0000
  H   H642      1.0  0.30465  0.39771  0.64960  1.0000
  C   C808      1.0  0.08132  0.40683  0.66215  1.0000
  H   H643      1.0  0.99549  0.15631  0.68330  1.0000
  H   H644      1.0  0.46729  0.23905  0.74921  1.0000
  C   C809      1.0  0.46349  0.11468  0.66985  1.0000
  H   H645      1.0  0.98527  0.37861  0.72753  1.0000
  H   H646      1.0  0.46470  0.02329  0.73827  1.0000
  C   C810      1.0  0.39368  0.99446  0.64979  1.0000
  C   C811      1.0  0.99139  0.37889  0.70769  1.0000
  H   H647      1.0  0.25584  0.98824  0.65787  1.0000
  C   C812      1.0  0.24939  0.01368  0.72534  1.0000
  H   H648      1.0  0.47494  0.35466  0.80494  1.0000
  H   H649      1.0  0.25784  0.39151  0.65738  1.0000
  H   H650      1.0  0.32526  0.36396  0.65384  1.0000
  C   C813      1.0  0.29318  0.38006  0.65490  1.0000
  C   C814      1.0  0.39250  0.21738  0.65230  1.0000
  H   H651      1.0  0.98034  0.38201  0.75941  1.0000
  H   H652      1.0  0.47059  0.25616  0.78782  1.0000
  C   C815      1.0  0.47236  0.24377  0.78057  1.0000
  C   C816      1.0  0.21596  0.99020  0.71066  1.0000
  H   H653      1.0  0.45500  0.22978  0.81407  1.0000
  H   H654      1.0  0.98109  0.21739  0.67884  1.0000
  C   C817      1.0  0.20353  0.98829  0.73250  1.0000
  H   H655      1.0  0.47672  0.41966  0.79176  1.0000
  C   C818      1.0  0.47739  0.22081  0.78374  1.0000
  H   H656      1.0  0.47751  0.07825  0.66795  1.0000
  C   C819      1.0  0.36643  0.09614  0.89911  1.0000
  S   S105      1.0  0.44841  0.33112  0.95402  1.0000
  Fe  Fe50      1.0  0.42766  0.25653  0.95444  1.0000
  S   S106      1.0  0.39882  0.27824  0.94920  1.0000
  S   S107      1.0  0.41434  0.21404  0.94955  1.0000
  Fe  Fe51      1.0  0.43442  0.30535  0.93804  1.0000
  S   S108      1.0  0.43095  0.32256  0.91863  1.0000
  Fe  Fe52      1.0  0.41516  0.30214  0.96579  1.0000
  S   S109      1.0  0.46232  0.28290  0.94243  1.0000
  S   S110      1.0  0.44164  0.27858  0.97187  1.0000
  C   C820      1.0  0.03228  0.43287  0.92718  1.0000
  S   S111      1.0  0.41637  0.01597  0.94948  1.0000
  Fe  Fe53      1.0  0.42030  0.07597  0.96761  1.0000
  S   S112      1.0  0.38293  0.05303  0.95743  1.0000
  H   H657      1.0  0.23600  0.10368  0.94005  1.0000
  Fe  Fe54      1.0  0.39022  0.01725  0.96597  1.0000
  H   H658      1.0  0.43973  0.16738  0.88658  1.0000
  Fe  Fe55      1.0  0.41276  0.05352  0.94205  1.0000
  S   S113      1.0  0.41170  0.07123  0.92241  1.0000
  H   H659      1.0  0.43043  0.20407  0.97470  1.0000
  S   S114      1.0  0.44979  0.07770  0.95210  1.0000
  Fe  Fe56      1.0  0.45507  0.28391  0.84967  1.0000
  C   C821      1.0  0.28692  0.09936  0.91460  1.0000
  Fe  Fe57      1.0  0.47390  0.30671  0.95914  1.0000
  H   H660      1.0  0.37772  0.25477  0.85460  1.0000
  H   H661      1.0  0.43509  0.44572  0.94438  1.0000
  C   C822      1.0  0.43659  0.19016  0.82096  1.0000
  C   C823      1.0  0.47729  0.42312  0.97816  1.0000
  C   C824      1.0  0.03166  0.46469  0.90613  1.0000
  S   S115      1.0  0.44415  0.25518  0.83476  1.0000
  S   S116      1.0  0.44317  0.31313  0.83765  1.0000
  Fe  Fe58      1.0  0.42920  0.06159  0.84979  1.0000
  S   S117      1.0  0.45012  0.10399  0.85187  1.0000
  S   S118      1.0  0.41033  0.03504  0.86688  1.0000
  C   C825      1.0  0.98782  0.44938  0.94917  1.0000
  C   C826      1.0  0.00935  0.45666  0.91445  1.0000
  Fe  Fe59      1.0  0.45109  0.04022  0.96067  1.0000
  Fe  Fe60      1.0  0.42979  0.10848  0.83400  1.0000
  S   S119      1.0  0.41314  0.14057  0.83046  1.0000
  S   S120      1.0  0.39141  0.32258  0.97701  1.0000
  S   S121      1.0  0.40629  0.06630  0.83236  1.0000
  H   H662      1.0  0.36403  0.08489  0.89094  1.0000
  C   C827      1.0  0.26254  0.10321  0.91121  1.0000
  H   H663      1.0  0.41504  0.12483  0.95150  1.0000
  C   C828      1.0  0.44089  0.16895  0.82715  1.0000
  H   H664      1.0  0.47080  0.15432  0.83554  1.0000
  C   C829      1.0  0.46734  0.17054  0.83064  1.0000
  C   C830      1.0  0.24417  0.10471  0.92037  1.0000
  H   H665      1.0  0.40113  0.35112  0.95410  1.0000
  H   H666      1.0  0.39220  0.01965  0.91212  1.0000
  C   C831      1.0  0.33712  0.04637  0.93343  1.0000
  C   C832      1.0  0.41352  0.05995  0.90738  1.0000
  C   C833      1.0  0.40167  0.03394  0.90470  1.0000
  C   C834      1.0  0.40114  0.02656  0.89229  1.0000
  C   C835      1.0  0.41267  0.04500  0.88246  1.0000
  C   C836      1.0  0.42520  0.07087  0.88523  1.0000
  C   C837      1.0  0.42528  0.07826  0.89758  1.0000
  C   C838      1.0  0.47256  0.36786  0.88285  1.0000
  H   H667      1.0  0.40504  0.12370  0.89287  1.0000
  H   H668      1.0  0.43435  0.08529  0.87787  1.0000
  H   H669      1.0  0.43426  0.09838  0.89959  1.0000
  C   C839      1.0  0.42069  0.18719  0.95712  1.0000
  C   C840      1.0  0.42710  0.18683  0.96972  1.0000
  C   C841      1.0  0.29104  0.01868  0.94799  1.0000
  C   C842      1.0  0.42381  0.14135  0.96937  1.0000
  C   C843      1.0  0.41874  0.14210  0.95659  1.0000
  C   C844      1.0  0.41699  0.16486  0.95054  1.0000
  C   C845      1.0  0.05456  0.44095  0.91884  1.0000
  H   H670      1.0  0.40211  0.40672  0.97992  1.0000
  H   H671      1.0  0.42688  0.21869  0.88636  1.0000
  C   C846      1.0  0.33302  0.02081  0.93759  1.0000
  C   C847      1.0  0.43521  0.30699  0.90511  1.0000
  C   C848      1.0  0.44597  0.28685  0.90572  1.0000
  H   H672      1.0  0.47502  0.44006  0.93068  1.0000
  C   C849      1.0  0.44282  0.28387  0.88309  1.0000
  C   C850      1.0  0.43216  0.30406  0.88246  1.0000
  C   C851      1.0  0.42811  0.31535  0.89344  1.0000
  C   C852      1.0  0.31012  0.00702  0.94496  1.0000
  S   S122      1.0  0.42528  0.04031  0.97734  1.0000
  H   H673      1.0  0.42649  0.31060  0.87355  1.0000
  H   H674      1.0  0.41934  0.33061  0.89290  1.0000
  H   H675      1.0  0.44418  0.00553  0.91889  1.0000
  Fe  Fe61      1.0  0.43715  0.28592  0.82203  1.0000
  H   H676      1.0  0.03142  0.47706  0.89797  1.0000
  H   H677      1.0  0.33176  0.14591  0.93639  1.0000
  H   H678      1.0  0.35559  0.05689  0.92819  1.0000
  H   H679      1.0  0.05704  0.40643  0.97809  1.0000
  C   C853      1.0  0.43725  0.18638  0.86871  1.0000
  H   H680      1.0  0.45798  0.25975  0.89537  1.0000
  P   P27       1.0  0.40047  0.17782  0.86952  1.0000
  C   C854      1.0  0.39142  0.18415  0.88499  1.0000
  C   C855      1.0  0.38974  0.19758  0.85809  1.0000
  C   C856      1.0  0.38542  0.19010  0.84575  1.0000
  C   C857      1.0  0.37790  0.20560  0.83674  1.0000
  C   C858      1.0  0.37489  0.22880  0.83993  1.0000
  C   C859      1.0  0.37927  0.23644  0.85217  1.0000
  C   C860      1.0  0.38658  0.22088  0.86123  1.0000
  C   C861      1.0  0.40863  0.20554  0.89103  1.0000
  C   C862      1.0  0.40231  0.21028  0.90310  1.0000
  C   C863      1.0  0.37870  0.19384  0.90924  1.0000
  C   C864      1.0  0.36121  0.17275  0.90324  1.0000
  C   C865      1.0  0.36754  0.16786  0.89118  1.0000
  C   C866      1.0  0.38361  0.14421  0.86632  1.0000
  C   C867      1.0  0.39791  0.12661  0.86656  1.0000
  C   C868      1.0  0.38431  0.10062  0.86423  1.0000
  C   C869      1.0  0.35657  0.09211  0.86146  1.0000
  C   C870      1.0  0.34227  0.10955  0.86104  1.0000
  C   C871      1.0  0.35571  0.13549  0.86344  1.0000
  C   C872      1.0  0.46753  0.03576  0.90570  1.0000
  H   H681      1.0  0.27893  0.09705  0.94616  1.0000
  H   H682      1.0  0.02132  0.42084  0.96789  1.0000
  H   H683      1.0  0.44246  0.20732  0.85070  1.0000
  H   H684      1.0  0.41625  0.18881  0.81812  1.0000
  H   H685      1.0  0.38837  0.17253  0.84303  1.0000
  S   S123      1.0  0.44632  0.26751  0.86976  1.0000
  C   C873      1.0  0.42831  0.16394  0.97586  1.0000
  H   H686      1.0  0.39044  0.22755  0.87055  1.0000
  H   H687      1.0  0.36490  0.15429  0.97305  1.0000
  C   C874      1.0  0.43331  0.44474  0.97967  1.0000
  H   H688      1.0  0.37405  0.19756  0.91864  1.0000
  H   H689      1.0  0.34293  0.15998  0.90802  1.0000
  H   H690      1.0  0.35392  0.15119  0.88685  1.0000
  H   H691      1.0  0.41952  0.13280  0.86842  1.0000
  H   H692      1.0  0.39527  0.08698  0.86442  1.0000
  H   H693      1.0  0.34631  0.07203  0.85949  1.0000
  H   H694      1.0  0.32083  0.10300  0.85871  1.0000
  H   H695      1.0  0.34440  0.14882  0.86300  1.0000
  C   C875      1.0  0.45243  0.20112  0.85846  1.0000
  C   C876      1.0  0.45998  0.02432  0.91764  1.0000
  H   H696      1.0  0.37107  0.22674  0.96176  1.0000
  H   H697      1.0  0.41215  0.16502  0.94078  1.0000
  C   C877      1.0  0.01884  0.41379  0.97756  1.0000
  H   H698      1.0  0.37505  0.19990  0.82721  1.0000
  H   H699      1.0  0.34812  0.01197  0.93542  1.0000
  H   H700      1.0  0.46616  0.04041  0.86917  1.0000
  C   C878      1.0  0.43525  0.41514  0.95794  1.0000
  C   C879      1.0  0.42509  0.38829  0.96065  1.0000
  H   H701      1.0  0.45744  0.02588  0.89767  1.0000
  C   C880      1.0  0.40283  0.38187  0.94067  1.0000
  C   C881      1.0  0.41233  0.40856  0.93801  1.0000
  C   C882      1.0  0.42828  0.42514  0.94663  1.0000
  H   H702      1.0  0.03287  0.42058  0.93532  1.0000
  C   C883      1.0  0.01456  0.46539  0.95165  1.0000
  C   C884      1.0  0.25021  0.10245  0.93294  1.0000
  H   H703      1.0  0.34445  0.08109  0.95659  1.0000
  H   H704      1.0  0.22526  0.10766  0.91773  1.0000
  H   H705      1.0  0.42931  0.37994  0.96945  1.0000
  H   H706      1.0  0.07208  0.43486  0.92054  1.0000
  H   H707      1.0  0.25785  0.10503  0.90146  1.0000
  H   H708      1.0  0.28023  0.05296  0.94644  1.0000
  H   H709      1.0  0.41567  0.22681  0.90772  1.0000
  C   C885      1.0  0.33265  0.21532  0.97177  1.0000
  C   C886      1.0  0.45102  0.17862  0.87856  1.0000
  C   C887      1.0  0.00942  0.44058  0.92503  1.0000
  H   H710      1.0  0.99222  0.46310  0.91255  1.0000
  H   H711      1.0  0.37787  0.13458  0.92898  1.0000
  C   C888      1.0  0.40899  0.37182  0.95202  1.0000
  H   H712      1.0  0.46764  0.02812  0.93722  1.0000
  C   C889      1.0  0.36089  0.22113  0.97077  1.0000
  H   H713      1.0  0.39058  0.36889  0.93400  1.0000
  H   H714      1.0  0.40727  0.41635  0.92925  1.0000
  P   P28       1.0  0.45588  0.43684  0.96903  1.0000
  H   H715      1.0  0.41204  0.14810  0.91204  1.0000
  H   H716      1.0  0.30074  0.09844  0.90730  1.0000
  H   H717      1.0  0.36993  0.24122  0.83285  1.0000
  S   S124      1.0  0.46378  0.05688  0.83865  1.0000
  C   C890      1.0  0.05424  0.45683  0.90831  1.0000
  H   H718      1.0  0.45917  0.37223  0.88943  1.0000
  H   H719      1.0  0.45143  0.28012  0.91462  1.0000
  H   H720      1.0  0.36231  0.10830  0.97412  1.0000
  S   S125      1.0  0.46454  0.10858  0.82186  1.0000
  H   H721      1.0  0.46864  0.10327  0.92158  1.0000
  H   H722      1.0  0.44900  0.37184  0.86685  1.0000
  H   H723      1.0  0.45957  0.39200  0.93045  1.0000
  C   C891      1.0  0.45849  0.21328  0.81871  1.0000
  C   C892      1.0  0.44967  0.27533  0.89478  1.0000
  Fe  Fe62      1.0  0.44325  0.06602  0.82132  1.0000
  H   H724      1.0  0.32929  0.07091  0.90789  1.0000
  H   H725      1.0  0.45237  0.13012  0.93493  1.0000
  H   H726      1.0  0.34982  0.17299  0.95418  1.0000
  H   H727      1.0  0.39137  0.00649  0.89026  1.0000
  H   H728      1.0  0.32106  0.21681  0.96356  1.0000
  C   C893      1.0  0.38969  0.11792  0.90023  1.0000
  C   C894      1.0  0.39364  0.13162  0.91103  1.0000
  C   C895      1.0  0.37402  0.12389  0.92065  1.0000
  C   C896      1.0  0.35022  0.10235  0.91952  1.0000
  C   C897      1.0  0.34684  0.08827  0.90874  1.0000
  P   P29       1.0  0.32459  0.09207  0.93190  1.0000
  C   C898      1.0  0.31812  0.05833  0.93645  1.0000
  C   C899      1.0  0.33642  0.11134  0.94520  1.0000
  C   C900      1.0  0.34485  0.10089  0.95599  1.0000
  C   C901      1.0  0.35462  0.11622  0.96607  1.0000
  C   C902      1.0  0.35608  0.14210  0.96548  1.0000
  C   C903      1.0  0.34765  0.15266  0.95479  1.0000
  C   C904      1.0  0.33772  0.13732  0.94471  1.0000
  H   H729      1.0  0.98020  0.34168  0.92826  1.0000
  C   C905      1.0  0.47407  0.13538  0.93293  1.0000
  H   H730      1.0  0.07150  0.46307  0.90184  1.0000
  S   S126      1.0  0.42295  0.11227  0.97767  1.0000
  C   C906      1.0  0.29497  0.04421  0.94376  1.0000
  C   C907      1.0  0.29310  0.09686  0.92722  1.0000
  C   C908      1.0  0.27456  0.09860  0.93636  1.0000
  H   H731      1.0  0.27344  0.00800  0.95382  1.0000
  H   H732      1.0  0.03165  0.46576  0.94585  1.0000
  H   H733      1.0  0.98008  0.41918  0.97980  1.0000
  P   P30       1.0  0.98063  0.42957  0.93585  1.0000
  H   H734      1.0  0.00075  0.32525  0.98013  1.0000
  H   H735      1.0  0.39789  0.22425  0.98028  1.0000
  C   C909      1.0  0.97892  0.37967  0.93149  1.0000
  H   H736      1.0  0.98372  0.38654  0.92186  1.0000
  H   H737      1.0  0.30747  0.98747  0.94850  1.0000
  C   C910      1.0  0.46676  0.36753  0.87016  1.0000
  C   C911      1.0  0.47280  0.03719  0.92799  1.0000
  Fe  Fe63      1.0  0.07577  0.60189  0.03125  1.0000
  S   S127      1.0  0.11598  0.59965  0.02425  1.0000
  S   S128      1.0  0.03281  0.58900  0.02226  1.0000
  Fe  Fe64      1.0  0.10035  0.61908  0.05717  1.0000
  S   S129      1.0  0.14114  0.61728  0.05180  1.0000
  S   S130      1.0  0.09602  0.63462  0.07606  1.0000
  Fe  Fe65      1.0  0.13628  0.63733  0.03374  1.0000
  S   S131      1.0  0.17553  0.66864  0.02616  1.0000
  Fe  Fe66      1.0  0.11795  0.58040  0.04302  1.0000
  S   S132      1.0  0.13095  0.54613  0.04864  1.0000
  S   S133      1.0  0.09608  0.64105  0.03940  1.0000
  S   S134      1.0  0.07726  0.58059  0.04969  1.0000
  Fe  Fe67      1.0  0.31812  0.86966  0.03191  1.0000
  S   S135      1.0  0.30478  0.83306  0.02136  1.0000
  S   S136      1.0  0.32900  0.91247  0.02494  1.0000
  Fe  Fe68      1.0  0.32280  0.83996  0.05690  1.0000
  S   S137      1.0  0.31057  0.80209  0.04780  1.0000
  S   S138      1.0  0.33660  0.83438  0.07672  1.0000
  Fe  Fe69      1.0  0.33798  0.82356  0.03197  1.0000
  S   S139      1.0  0.36939  0.80823  0.02406  1.0000
  Fe  Fe70      1.0  0.27810  0.81402  0.03827  1.0000
  S   S140      1.0  0.23367  0.78645  0.04017  1.0000
  S   S141      1.0  0.35257  0.86071  0.04153  1.0000
  S   S142      1.0  0.28890  0.85146  0.04821  1.0000
  H   H738      1.0  0.33818  0.53801  0.07756  1.0000
  S   S143      1.0  0.31596  0.86520  0.13076  1.0000
  H   H739      1.0  0.45939  0.89285  0.14364  1.0000
  C   C912      1.0  0.44659  0.56819  0.14058  1.0000
  S   S144      1.0  0.10005  0.57933  0.12928  1.0000
  H   H740      1.0  0.41621  0.54130  0.01433  1.0000
  C   C913      1.0  0.04954  0.52929  0.01920  1.0000
  H   H741      1.0  0.23910  0.68204  0.12686  1.0000
  C   C914      1.0  0.38854  0.89270  0.01476  1.0000
  C   C915      1.0  0.32473  0.84070  0.09121  1.0000
  C   C916      1.0  0.31943  0.86357  0.09299  1.0000
  C   C917      1.0  0.31556  0.87035  0.10514  1.0000
  C   C918      1.0  0.31695  0.85436  0.11558  1.0000
  C   C919      1.0  0.32050  0.83073  0.11371  1.0000
  C   C920      1.0  0.32445  0.82400  0.10159  1.0000
  H   H742      1.0  0.31965  0.87663  0.08508  1.0000
  H   H743      1.0  0.31233  0.88847  0.10648  1.0000
  H   H744      1.0  0.32168  0.81824  0.12163  1.0000
  H   H745      1.0  0.32864  0.80634  0.10033  1.0000
  P   P31       1.0  0.47109  0.51784  0.12088  1.0000
  C   C921      1.0  0.42323  0.83422  0.05153  1.0000
  C   C922      1.0  0.39954  0.82728  0.04445  1.0000
  C   C923      1.0  0.39978  0.81833  0.03256  1.0000
  C   C924      1.0  0.42419  0.81676  0.02768  1.0000
  C   C925      1.0  0.41798  0.90518  0.05182  1.0000
  H   H746      1.0  0.42235  0.84026  0.06086  1.0000
  H   H747      1.0  0.38072  0.82765  0.04851  1.0000
  H   H748      1.0  0.42444  0.80971  0.01850  1.0000
  C   C926      1.0  0.19843  0.65523  0.12501  1.0000
  C   C927      1.0  0.19178  0.70095  0.03076  1.0000
  C   C928      1.0  0.17909  0.71296  0.03873  1.0000
  C   C929      1.0  0.19236  0.73896  0.04164  1.0000
  C   C930      1.0  0.21854  0.75327  0.03672  1.0000
  C   C931      1.0  0.23146  0.74108  0.02898  1.0000
  C   C932      1.0  0.21813  0.71516  0.02600  1.0000
  H   H749      1.0  0.15880  0.70242  0.04243  1.0000
  H   H750      1.0  0.18208  0.74817  0.04759  1.0000
  H   H751      1.0  0.25138  0.75187  0.02498  1.0000
  H   H752      1.0  0.22812  0.70617  0.01978  1.0000
  C   C933      1.0  0.09939  0.61962  0.09069  1.0000
  C   C934      1.0  0.10077  0.63321  0.10154  1.0000
  C   C935      1.0  0.10194  0.62144  0.11340  1.0000
  C   C936      1.0  0.10151  0.59586  0.11453  1.0000
  C   C937      1.0  0.10030  0.58234  0.10368  1.0000
  C   C938      1.0  0.09962  0.59426  0.09181  1.0000
  H   H753      1.0  0.10026  0.65273  0.10077  1.0000
  H   H754      1.0  0.10204  0.63177  0.12169  1.0000
  H   H755      1.0  0.09957  0.56244  0.10447  1.0000
  H   H756      1.0  0.09845  0.58363  0.08353  1.0000
  C   C939      1.0  0.98753  0.56667  0.00777  1.0000
  C   C940      1.0  0.45862  0.78002  0.10805  1.0000
  H   H757      1.0  0.08566  0.73460  0.13201  1.0000
  C   C941      1.0  0.11681  0.51761  0.04072  1.0000
  C   C942      1.0  0.11595  0.51817  0.02773  1.0000
  C   C943      1.0  0.39483  0.77423  0.06322  1.0000
  H   H758      1.0  0.44273  0.97584  0.03581  1.0000
  H   H759      1.0  0.12249  0.53652  0.02240  1.0000
  C   C944      1.0  0.35419  0.59301  0.01744  1.0000
  C   C945      1.0  0.41594  0.50098  0.05972  1.0000
  C   C946      1.0  0.43415  0.52288  0.05330  1.0000
  H   H760      1.0  0.41409  0.50046  0.06975  1.0000
  C   C947      1.0  0.01636  0.57642  0.00807  1.0000
  H   H761      1.0  0.22537  0.54882  0.14167  1.0000
  C   C948      1.0  0.05226  0.50764  0.01392  1.0000
  H   H762      1.0  0.20624  0.52392  0.05682  1.0000
  C   C949      1.0  0.14588  0.72346  0.12850  1.0000
  C   C950      1.0  0.33382  0.91736  0.99886  1.0000
  C   C951      1.0  0.34011  0.92945  0.01015  1.0000
  C   C952      1.0  0.35445  0.95631  0.00974  1.0000
  C   C953      1.0  0.45901  0.88113  0.09319  1.0000
  H   H763      1.0  0.32256  0.89684  0.99895  1.0000
  C   C954      1.0  0.17306  0.50855  0.06998  1.0000
  H   H764      1.0  0.37767  0.90439  0.01847  1.0000
  H   H765      1.0  0.15560  0.63329  0.12393  1.0000
  H   H766      1.0  0.28556  0.56727  0.09844  1.0000
  C   C955      1.0  0.17105  0.65239  0.12315  1.0000
  C   C956      1.0  0.46076  0.87562  0.13971  1.0000
  C   C957      1.0  0.24207  0.55180  0.01821  1.0000
  C   C958      1.0  0.35407  0.77816  0.07241  1.0000
  C   C959      1.0  0.09215  0.51462  0.08684  1.0000
  H   H767      1.0  0.27925  0.53232  0.11467  1.0000
  P   P32       1.0  0.40729  0.78072  0.10074  1.0000
  C   C960      1.0  0.40010  0.80437  0.10988  1.0000
  C   C961      1.0  0.39281  0.74862  0.10805  1.0000
  C   C962      1.0  0.37099  0.74269  0.11669  1.0000
  C   C963      1.0  0.36064  0.71803  0.12261  1.0000
  C   C964      1.0  0.37137  0.69887  0.11968  1.0000
  C   C965      1.0  0.39233  0.70432  0.11072  1.0000
  C   C966      1.0  0.40291  0.72906  0.10486  1.0000
  C   C967      1.0  0.40185  0.80267  0.12291  1.0000
  C   C968      1.0  0.39454  0.81978  0.13013  1.0000
  C   C969      1.0  0.38614  0.83908  0.12438  1.0000
  C   C970      1.0  0.38626  0.84208  0.11140  1.0000
  C   C971      1.0  0.39311  0.82474  0.10414  1.0000
  H   H768      1.0  0.16424  0.76907  0.10180  1.0000
  H   H769      1.0  0.05299  0.58397  0.99704  1.0000
  H   H770      1.0  0.31493  0.57025  0.07985  1.0000
  H   H771      1.0  0.45757  0.69858  0.07474  1.0000
  C   C972      1.0  0.46772  0.87854  0.08120  1.0000
  C   C973      1.0  0.03089  0.57641  0.99710  1.0000
  H   H772      1.0  0.36203  0.75708  0.11899  1.0000
  H   H773      1.0  0.34451  0.71393  0.12961  1.0000
  H   H774      1.0  0.36348  0.67984  0.12437  1.0000
  H   H775      1.0  0.40058  0.68944  0.10841  1.0000
  H   H776      1.0  0.35944  0.96598  0.01837  1.0000
  H   H777      1.0  0.40818  0.78774  0.12758  1.0000
  C   C974      1.0  0.20969  0.51676  0.03074  1.0000
  H   H778      1.0  0.37916  0.85147  0.13001  1.0000
  H   H779      1.0  0.37993  0.85725  0.10696  1.0000
  H   H780      1.0  0.13799  0.52060  0.14112  1.0000
  C   C975      1.0  0.16349  0.67422  0.12068  1.0000
  C   C976      1.0  0.18719  0.66644  0.08771  1.0000
  C   C977      1.0  0.17609  0.66022  0.07601  1.0000
  C   C978      1.0  0.18921  0.67485  0.06540  1.0000
  C   C979      1.0  0.21343  0.69571  0.06647  1.0000
  C   C980      1.0  0.22476  0.70221  0.07823  1.0000
  C   C981      1.0  0.21113  0.68762  0.08885  1.0000
  P   P33       1.0  0.25507  0.73039  0.07965  1.0000
  C   C982      1.0  0.26996  0.73011  0.09495  1.0000
  C   C983      1.0  0.27904  0.72979  0.06755  1.0000
  C   C984      1.0  0.30041  0.72005  0.06998  1.0000
  C   C985      1.0  0.31799  0.71891  0.06035  1.0000
  C   C986      1.0  0.31446  0.72753  0.04823  1.0000
  C   C987      1.0  0.29341  0.73736  0.04574  1.0000
  C   C988      1.0  0.27590  0.73865  0.05535  1.0000
  C   C989      1.0  0.27684  0.75194  0.10217  1.0000
  C   C990      1.0  0.10366  0.71639  0.14607  1.0000
  C   C991      1.0  0.21821  0.67990  0.12459  1.0000
  C   C992      1.0  0.28584  0.70731  0.11165  1.0000
  C   C993      1.0  0.27436  0.70768  0.09989  1.0000
  C   C994      1.0  0.24655  0.75940  0.07663  1.0000
  C   C995      1.0  0.21953  0.75813  0.07432  1.0000
  C   C996      1.0  0.21362  0.78080  0.07158  1.0000
  C   C997      1.0  0.23441  0.80484  0.07139  1.0000
  C   C998      1.0  0.26124  0.80623  0.07375  1.0000
  C   C999      1.0  0.26742  0.78361  0.07603  1.0000
  H   H781      1.0  0.17675  0.65514  0.09591  1.0000
  H   H782      1.0  0.15707  0.64429  0.07519  1.0000
  H   H783      1.0  0.18048  0.67023  0.05629  1.0000
  H   H784      1.0  0.22273  0.70699  0.05810  1.0000
  H   H785      1.0  0.21871  0.69264  0.09802  1.0000
  H   H786      1.0  0.30389  0.71354  0.07925  1.0000
  H   H787      1.0  0.33462  0.71169  0.06230  1.0000
  H   H788      1.0  0.32825  0.72702  0.04077  1.0000
  H   H789      1.0  0.29086  0.74443  0.03638  1.0000
  H   H790      1.0  0.25998  0.74675  0.05320  1.0000
  H   H791      1.0  0.27358  0.76947  0.09889  1.0000
  P   P34       1.0  0.46478  0.90208  0.11649  1.0000
  H   H792      1.0  0.28919  0.68996  0.11537  1.0000
  H   H793      1.0  0.26879  0.69043  0.09463  1.0000
  H   H794      1.0  0.20302  0.73980  0.07429  1.0000
  H   H795      1.0  0.19314  0.77973  0.06908  1.0000
  H   H796      1.0  0.22991  0.82232  0.06895  1.0000
  H   H797      1.0  0.27743  0.82484  0.07342  1.0000
  H   H798      1.0  0.28854  0.78507  0.07734  1.0000
  C   C1000     1.0  0.37871  0.90908  0.06257  1.0000
  H   H799      1.0  0.45409  0.86514  0.07512  1.0000
  C   C1001     1.0  0.46340  0.87443  0.12676  1.0000
  C   C1002     1.0  0.37393  0.92343  0.05228  1.0000
  C   C1003     1.0  0.38108  0.59617  0.01371  1.0000
  C   C1004     1.0  0.00499  0.54832  0.05408  1.0000
  C   C1005     1.0  0.41579  0.86196  0.00496  1.0000
  H   H800      1.0  0.99404  0.54610  0.04539  1.0000
  C   C1006     1.0  0.24582  0.80110  0.12374  1.0000
  H   H801      1.0  0.45623  0.88478  0.03653  1.0000
  C   C1007     1.0  0.38909  0.90547  0.12508  1.0000
  H   H802      1.0  0.21462  0.76335  0.10039  1.0000
  C   C1008     1.0  0.37453  0.87234  0.00743  1.0000
  C   C1009     1.0  0.38805  0.85675  0.00265  1.0000
  H   H803      1.0  0.07284  0.50753  0.08217  1.0000
  H   H804      1.0  0.35300  0.86835  0.00569  1.0000
  H   H805      1.0  0.37684  0.84026  0.99742  1.0000
  C   C1010     1.0  0.38049  0.91296  0.11368  1.0000
  H   H806      1.0  0.41589  0.66665  0.04479  1.0000
  H   H807      1.0  0.40627  0.77283  0.05503  1.0000
  H   H808      1.0  0.46595  0.60596  0.11386  1.0000
  H   H809      1.0  0.18535  0.56664  0.02520  1.0000
  H   H810      1.0  0.45792  0.48269  0.04942  1.0000
  H   H811      1.0  0.22643  0.72069  0.12199  1.0000
  C   C1011     1.0  0.37663  0.52181  0.13146  1.0000
  C   C1012     1.0  0.40080  0.90006  0.06236  1.0000
  H   H812      1.0  0.10684  0.49533  0.01156  1.0000
  C   C1013     1.0  0.44112  0.64595  0.05260  1.0000
  C   C1014     1.0  0.18145  0.53586  0.14247  1.0000
  C   C1015     1.0  0.30486  0.51471  0.10531  1.0000
  C   C1016     1.0  0.29196  0.53316  0.10659  1.0000
  C   C1017     1.0  0.29554  0.55306  0.09740  1.0000
  C   C1018     1.0  0.31209  0.55475  0.08693  1.0000
  C   C1019     1.0  0.32514  0.53657  0.08563  1.0000
  C   C1020     1.0  0.12377  0.73182  0.12558  1.0000
  C   C1021     1.0  0.02581  0.57531  0.07098  1.0000
  H   H813      1.0  0.03428  0.54372  0.03454  1.0000
  H   H814      1.0  0.18458  0.50450  0.11130  1.0000
  H   H815      1.0  0.44794  0.82023  0.08492  1.0000
  C   C1022     1.0  0.21078  0.70180  0.12203  1.0000
  C   C1023     1.0  0.09633  0.50208  0.09789  1.0000
  H   H816      1.0  0.24867  0.51639  0.02383  1.0000
  C   C1024     1.0  0.37368  0.51053  0.14355  1.0000
  C   C1025     1.0  0.43419  0.95427  0.01915  1.0000
  C   C1026     1.0  0.41618  0.89772  0.01742  1.0000
  C   C1027     1.0  0.36184  0.97095  0.99828  1.0000
  C   C1028     1.0  0.09771  0.48725  0.12772  1.0000
  H   H817      1.0  0.36475  0.90414  0.07052  1.0000
  C   C1029     1.0  0.18333  0.69905  0.11983  1.0000
  H   H818      1.0  0.46689  0.82261  0.03101  1.0000
  H   H819      1.0  0.14206  0.67177  0.11958  1.0000
  H   H820      1.0  0.25289  0.80350  0.10394  1.0000
  C   C1030     1.0  0.45692  0.55754  0.00682  1.0000
  C   C1031     1.0  0.41317  0.91936  0.04133  1.0000
  H   H821      1.0  0.14579  0.77116  0.08077  1.0000
  C   C1032     1.0  0.15794  0.75187  0.09651  1.0000
  C   C1033     1.0  0.39760  0.91775  0.10317  1.0000
  C   C1034     1.0  0.28796  0.75140  0.11398  1.0000
  C   C1035     1.0  0.10867  0.49378  0.04754  1.0000
  C   C1036     1.0  0.14742  0.75313  0.08461  1.0000
  C   C1037     1.0  0.35454  0.95903  0.98699  1.0000
  H   H822      1.0  0.12249  0.74087  0.11655  1.0000
  C   C1038     1.0  0.19928  0.55572  0.02493  1.0000
  C   C1039     1.0  0.39102  0.92853  0.04172  1.0000
  H   H823      1.0  0.34622  0.58365  0.02643  1.0000
  H   H824      1.0  0.20414  0.63838  0.12742  1.0000
  C   C1040     1.0  0.13908  0.73119  0.07761  1.0000
  H   H825      1.0  0.13110  0.73214  0.06834  1.0000
  C   C1041     1.0  0.10276  0.72828  0.13435  1.0000
  C   C1042     1.0  0.16011  0.72856  0.10156  1.0000
  P   P35       1.0  0.17281  0.72701  0.11719  1.0000
  C   C1043     1.0  0.98802  0.55809  0.98568  1.0000
  C   C1044     1.0  0.44411  0.79096  0.09978  1.0000
  C   C1045     1.0  0.20772  0.52706  0.12581  1.0000
  C   C1046     1.0  0.29250  0.72912  0.11872  1.0000
  C   C1047     1.0  0.46851  0.73999  0.07231  1.0000
  H   H826      1.0  0.19547  0.75398  0.13982  1.0000
  C   C1048     1.0  0.14229  0.53287  0.09881  1.0000
  C   C1049     1.0  0.36868  0.77576  0.06193  1.0000
  H   H827      1.0  0.29294  0.76830  0.11950  1.0000
  C   C1050     1.0  0.22434  0.56607  0.01856  1.0000
  H   H828      1.0  0.42056  0.89627  0.13491  1.0000
  H   H829      1.0  0.43432  0.89730  0.05190  1.0000
  H   H830      1.0  0.36730  0.51830  0.05865  1.0000
  H   H831      1.0  0.44903  0.48330  0.10004  1.0000
  H   H832      1.0  0.40198  0.89557  0.98343  1.0000
  P   P36       1.0  0.40251  0.58488  0.02406  1.0000
  C   C1051     1.0  0.14078  0.70786  0.08260  1.0000
  C   C1052     1.0  0.15100  0.70647  0.09455  1.0000
  H   H833      1.0  0.44805  0.76531  0.11512  1.0000
  C   C1053     1.0  0.46463  0.83315  0.14304  1.0000
  C   C1054     1.0  0.20144  0.75602  0.11976  1.0000
  H   H834      1.0  0.40392  0.88820  0.07018  1.0000
  H   H835      1.0  0.13384  0.69067  0.07725  1.0000
  H   H836      1.0  0.35405  0.78122  0.09219  1.0000
  H   H837      1.0  0.41921  0.73305  0.09796  1.0000
  C   C1055     1.0  0.19193  0.53116  0.03093  1.0000
  Fe  Fe71      1.0  0.11910  0.59642  0.14736  1.0000
  H   H838      1.0  0.39235  0.82707  0.09409  1.0000
  H   H839      1.0  0.05935  0.52025  0.13968  1.0000
  H   H840      1.0  0.05786  0.54823  0.01442  1.0000
  C   C1056     1.0  0.21832  0.76990  0.10974  1.0000
  C   C1057     1.0  0.14666  0.71167  0.14034  1.0000
  H   H841      1.0  0.35993  0.77563  0.05276  1.0000
  H   H842      1.0  0.15355  0.56287  0.08400  1.0000
  H   H843      1.0  0.33474  0.62188  0.99212  1.0000
  H   H844      1.0  0.47707  0.56838  0.10771  1.0000
  H   H845      1.0  0.22727  0.52867  0.12170  1.0000
  H   H846      1.0  0.26135  0.55974  0.01315  1.0000
  C   C1058     1.0  0.02552  0.50245  0.03710  1.0000
  H   H847      1.0  0.15149  0.68802  0.09817  1.0000
  C   C1059     1.0  0.01122  0.57171  0.05991  1.0000
  C   C1060     1.0  0.20754  0.76457  0.13184  1.0000
  H   H848      1.0  0.30095  0.72880  0.12793  1.0000
  H   H849      1.0  0.09861  0.52691  0.12558  1.0000
  C   C1061     1.0  0.46187  0.58923  0.12031  1.0000
  H   H850      1.0  0.16346  0.70504  0.14281  1.0000
  H   H851      1.0  0.03140  0.59374  0.07529  1.0000
  H   H852      1.0  0.36486  0.53899  0.01333  1.0000
  C   C1062     1.0  0.42040  0.50230  0.03381  1.0000
  C   C1063     1.0  0.43650  0.52346  0.04034  1.0000
  C   C1064     1.0  0.34072  0.93209  0.98740  1.0000
  H   H853      1.0  0.45136  0.88622  0.01367  1.0000
  C   C1065     1.0  0.43194  0.58283  0.01579  1.0000
  H   H854      1.0  0.39494  0.81778  0.14020  1.0000
  C   C1066     1.0  0.36622  0.52314  0.04881  1.0000
  H   H855      1.0  0.04542  0.55833  0.08482  1.0000
  C   C1067     1.0  0.36573  0.77943  0.08417  1.0000
  C   C1068     1.0  0.43886  0.49236  0.11844  1.0000
  C   C1069     1.0  0.32159  0.51664  0.09478  1.0000
  H   H856      1.0  0.46419  0.62149  0.05826  1.0000
  C   C1070     1.0  0.41585  0.60801  0.03581  1.0000
  C   C1071     1.0  0.47285  0.90301  0.03509  1.0000
  C   C1072     1.0  0.39250  0.77915  0.08548  1.0000
  P   P37       1.0  0.00589  0.49840  0.05142  1.0000
  H   H857      1.0  0.39349  0.63356  0.03005  1.0000
  H   H858      1.0  0.33391  0.77963  0.07135  1.0000
  H   H859      1.0  0.17221  0.52337  0.03567  1.0000
  C   C1073     1.0  0.40840  0.63026  0.03631  1.0000
  C   C1074     1.0  0.03397  0.55539  0.07628  1.0000
  C   C1075     1.0  0.36526  0.53485  0.02327  1.0000
  C   C1076     1.0  0.38206  0.54759  0.04379  1.0000
  C   C1077     1.0  0.03615  0.52669  0.03071  1.0000
  C   C1078     1.0  0.34760  0.61462  0.99812  1.0000
  C   C1079     1.0  0.24020  0.79254  0.11172  1.0000
  C   C1080     1.0  0.38177  0.55365  0.03094  1.0000
  C   C1081     1.0  0.41867  0.48502  0.12792  1.0000
  H   H860      1.0  0.38614  0.93878  0.03369  1.0000
  H   H861      1.0  0.42549  0.93884  0.00092  1.0000
  C   C1082     1.0  0.22961  0.78703  0.13379  1.0000
  C   C1083     1.0  0.43594  0.60495  0.04385  1.0000
  H   H862      1.0  0.33207  0.50283  0.09368  1.0000
  C   C1084     1.0  0.32933  0.49677  0.12729  1.0000
  C   C1085     1.0  0.26931  0.48383  0.12599  1.0000
  H   H863      1.0  0.03469  0.51706  0.07463  1.0000
  C   C1086     1.0  0.46715  0.85244  0.12209  1.0000
  H   H864      1.0  0.41172  0.61151  0.99901  1.0000
  H   H865      1.0  0.36046  0.91491  0.11302  1.0000
  H   H866      1.0  0.39086  0.92360  0.09433  1.0000
  C   C1087     1.0  0.35023  0.50445  0.04108  1.0000
  C   C1088     1.0  0.23480  0.52720  0.02428  1.0000
  H   H867      1.0  0.99635  0.49777  0.00203  1.0000
  H   H868      1.0  0.37555  0.90152  0.13318  1.0000
  H   H869      1.0  0.44247  0.58826  0.04346  1.0000
  H   H870      1.0  0.43854  0.86957  0.09631  1.0000
  C   C1089     1.0  0.40668  0.77572  0.07496  1.0000
  H   H871      1.0  0.33780  0.49556  0.02232  1.0000
  C   C1090     1.0  0.34971  0.51032  0.02832  1.0000
  C   C1091     1.0  0.47313  0.71711  0.07606  1.0000
  H   H872      1.0  0.39482  0.56131  0.04998  1.0000
  C   C1092     1.0  0.02801  0.53206  0.07040  1.0000
  H   H873      1.0  0.35621  0.92962  0.05219  1.0000
  H   H874      1.0  0.10950  0.54624  0.07328  1.0000
  H   H875      1.0  0.42701  0.77464  0.07572  1.0000
  C   C1093     1.0  0.42106  0.64916  0.04467  1.0000
  H   H876      1.0  0.45084  0.53114  0.14413  1.0000
  H   H877      1.0  0.00546  0.58736  0.05561  1.0000
  H   H878      1.0  0.44655  0.60628  0.13493  1.0000
  H   H879      1.0  0.17863  0.52602  0.07506  1.0000
  H   H880      1.0  0.45044  0.54039  0.03538  1.0000
  C   C1094     1.0  0.06599  0.50405  0.13788  1.0000
  S   S145      1.0  0.29820  0.79620  0.14692  1.0000
  C   C1095     1.0  0.43316  0.55895  0.01238  1.0000
  C   C1096     1.0  0.10729  0.49487  0.02161  1.0000
  C   C1097     1.0  0.18352  0.51336  0.11996  1.0000
  H   H881      1.0  0.42262  0.49323  0.13692  1.0000
  C   C1098     1.0  0.44829  0.62372  0.05227  1.0000
  C   C1099     1.0  0.12168  0.51066  0.10380  1.0000
  H   H882      1.0  0.42209  0.50279  0.02378  1.0000
  S   S146      1.0  0.45275  0.54957  0.06169  1.0000
  P   P38       1.0  0.43339  0.92418  0.02707  1.0000
  H   H883      1.0  0.45177  0.66097  0.05875  1.0000
  H   H884      1.0  0.39605  0.53585  0.12836  1.0000
  H   H885      1.0  0.42613  0.84961  0.00139  1.0000
  C   C1100     1.0  0.35461  0.51497  0.12335  1.0000
  C   C1101     1.0  0.44818  0.82409  0.03473  1.0000
  C   C1102     1.0  0.47657  0.89865  0.10107  1.0000
  C   C1103     1.0  0.41466  0.90236  0.12599  1.0000
  C   C1104     1.0  0.15806  0.51108  0.12526  1.0000
  C   C1105     1.0  0.42993  0.88255  0.01218  1.0000
  C   C1106     1.0  0.42983  0.95573  0.00629  1.0000
  H   H886      1.0  0.44942  0.73927  0.06803  1.0000
  H   H887      1.0  0.46656  0.95613  0.11752  1.0000
  C   C1107     1.0  0.45863  0.81112  0.09124  1.0000
  H   H888      1.0  0.43629  0.91913  0.09581  1.0000
  C   C1108     1.0  0.13782  0.54563  0.08784  1.0000
  H   H889      1.0  0.16165  0.54060  0.10336  1.0000
  H   H890      1.0  0.31689  0.59991  0.01262  1.0000
  C   C1109     1.0  0.11288  0.53635  0.08180  1.0000
  C   C1110     1.0  0.45332  0.54684  0.13724  1.0000
  C   C1111     1.0  0.18849  0.50736  0.05956  1.0000
  C   C1112     1.0  0.39105  0.60866  0.00210  1.0000
  C   C1113     1.0  0.43179  0.90648  0.11542  1.0000
  C   C1114     1.0  0.01379  0.52845  0.05915  1.0000
  C   C1115     1.0  0.46371  0.54617  0.12525  1.0000
  H   H891      1.0  0.22986  0.58509  0.01384  1.0000
  C   C1116     1.0  0.33754  0.60221  0.00967  1.0000
  H   H892      1.0  0.10905  0.49344  0.05758  1.0000
  C   C1117     1.0  0.15720  0.52230  0.13662  1.0000
  C   C1118     1.0  0.20668  0.53831  0.13707  1.0000
  H   H893      1.0  0.45049  0.90111  0.98719  1.0000
  C   C1119     1.0  0.45093  0.58941  0.13214  1.0000
  H   H894      1.0  0.06292  0.50975  0.00507  1.0000
  C   C1120     1.0  0.42326  0.91483  0.10405  1.0000
  H   H895      1.0  0.23414  0.79358  0.14314  1.0000
  H   H896      1.0  0.07989  0.48538  0.10173  1.0000
  H   H897      1.0  0.26279  0.81862  0.12531  1.0000
  C   C1121     1.0  0.44753  0.83250  0.04675  1.0000
  H   H898      1.0  0.35750  0.52406  0.11407  1.0000
  C   C1122     1.0  0.45452  0.60537  0.01314  1.0000
  C   C1123     1.0  0.46098  0.85491  0.14778  1.0000
  C   C1124     1.0  0.26984  0.49791  0.13659  1.0000
  C   C1125     1.0  0.43939  0.97659  0.02587  1.0000
  P   P39       1.0  0.30028  0.48880  0.11705  1.0000
  C   C1126     1.0  0.08834  0.50781  0.12990  1.0000
  H   H899      1.0  0.46312  0.52969  0.09437  1.0000
  H   H900      1.0  0.45823  0.53900  0.00466  1.0000
  C   C1127     1.0  0.24581  0.49421  0.14342  1.0000
  C   C1128     1.0  0.37432  0.61782  0.99434  1.0000
  C   C1129     1.0  0.04192  0.48340  0.02025  1.0000
  C   C1130     1.0  0.46791  0.92530  0.03039  1.0000
  H   H901      1.0  0.45430  0.62403  0.01581  1.0000
  C   C1131     1.0  0.01684  0.56746  0.98603  1.0000
  C   C1132     1.0  0.43056  0.97911  0.00026  1.0000
  H   H902      1.0  0.43084  0.49268  0.99809  1.0000
  H   H903      1.0  0.05645  0.48766  0.05585  1.0000
  H   H904      1.0  0.28883  0.51144  0.13973  1.0000
  P   P40       1.0  0.12705  0.49290  0.11763  1.0000
  H   H905      1.0  0.38215  0.62755  0.98541  1.0000
  H   H906      1.0  0.33901  0.48512  0.04491  1.0000
  C   C1133     1.0  0.32674  0.48514  0.13939  1.0000
  H   H907      1.0  0.42660  0.98001  0.99037  1.0000
  P   P41       1.0  0.19953  0.48491  0.03851  1.0000
  H   H908      1.0  0.47190  0.81563  0.12668  1.0000
  C   C1134     1.0  0.46792  0.83203  0.13024  1.0000
  C   C1135     1.0  0.46819  0.56771  0.11684  1.0000
  C   C1136     1.0  0.14968  0.48774  0.07348  1.0000
  H   H909      1.0  0.47044  0.85119  0.11227  1.0000
  H   H910      1.0  0.16506  0.48922  0.01717  1.0000
  H   H911      1.0  0.46111  0.48332  0.98276  1.0000
  H   H912      1.0  0.13717  0.48930  0.08118  1.0000
  C   C1137     1.0  0.18039  0.48542  0.05244  1.0000
  S   S147      1.0  0.47611  0.84012  0.05639  1.0000
  H   H913      1.0  0.22951  0.48504  0.06186  1.0000
  C   C1138     1.0  0.34878  0.49213  0.14749  1.0000
  C   C1139     1.0  0.44549  0.91560  0.98149  1.0000
  Fe  Fe72      1.0  0.33359  0.79562  0.15868  1.0000
  S   S148      1.0  0.35262  0.83882  0.15863  1.0000
  H   H914      1.0  0.22692  0.80905  0.30543  1.0000
  Fe  Fe73      1.0  0.27750  0.79665  0.16510  1.0000
  S   S149      1.0  0.29174  0.83985  0.16550  1.0000
  S   S150      1.0  0.23354  0.77283  0.16881  1.0000
  Fe  Fe74      1.0  0.32714  0.83505  0.17617  1.0000
  S   S151      1.0  0.34602  0.85634  0.19339  1.0000
  S   S152      1.0  0.31113  0.79168  0.17690  1.0000
  S   S153      1.0  0.08086  0.65116  0.30283  1.0000
  Fe  Fe75      1.0  0.11775  0.61488  0.17391  1.0000
  S   S154      1.0  0.15943  0.61413  0.17823  1.0000
  S   S155      1.0  0.09371  0.62678  0.18870  1.0000
  Fe  Fe76      1.0  0.17082  0.63170  0.15892  1.0000
  H   H915      1.0  0.39144  0.91045  0.24290  1.0000
  Fe  Fe77      1.0  0.14614  0.57650  0.16907  1.0000
  S   S156      1.0  0.16149  0.54510  0.17646  1.0000
  C   C1140     1.0  0.37277  0.50155  0.20164  1.0000
  S   S157      1.0  0.10317  0.57557  0.16594  1.0000
  Fe  Fe78      1.0  0.27835  0.80150  0.29048  1.0000
  S   S158      1.0  0.26693  0.83344  0.28115  1.0000
  S   S159      1.0  0.24413  0.76633  0.29817  1.0000
  Fe  Fe79      1.0  0.33895  0.83388  0.28944  1.0000
  S   S160      1.0  0.33138  0.86870  0.28000  1.0000
  S   S161      1.0  0.37714  0.82482  0.29535  1.0000
  Fe  Fe80      1.0  0.29603  0.85990  0.29402  1.0000
  C   C1141     1.0  0.39963  0.51878  0.20147  1.0000
  Fe  Fe81      1.0  0.30239  0.83923  0.26798  1.0000
  S   S162      1.0  0.28979  0.83866  0.24753  1.0000
  S   S163      1.0  0.30576  0.82737  0.30405  1.0000
  S   S164      1.0  0.31177  0.80515  0.27668  1.0000
  Fe  Fe82      1.0  0.12037  0.58120  0.28688  1.0000
  S   S165      1.0  0.08149  0.58964  0.28327  1.0000
  S   S166      1.0  0.12715  0.54402  0.29403  1.0000
  Fe  Fe83      1.0  0.15581  0.63533  0.27740  1.0000
  S   S167      1.0  0.11964  0.64757  0.27291  1.0000
  S   S168      1.0  0.19923  0.65994  0.27194  1.0000
  Fe  Fe84      1.0  0.10243  0.62828  0.29168  1.0000
  Fe  Fe85      1.0  0.10186  0.60851  0.26498  1.0000
  S   S169      1.0  0.07728  0.59964  0.24720  1.0000
  S   S170      1.0  0.14022  0.61847  0.29654  1.0000
  S   S171      1.0  0.13912  0.59762  0.26816  1.0000
  H   H916      1.0  0.37626  0.83181  0.26982  1.0000
  H   H917      1.0  0.41079  0.89303  0.26098  1.0000
  C   C1142     1.0  0.10676  0.51145  0.29175  1.0000
  C   C1143     1.0  0.08081  0.50480  0.28650  1.0000
  H   H918      1.0  0.04580  0.57618  0.20000  1.0000
  C   C1144     1.0  0.37481  0.59816  0.29322  1.0000
  H   H919      1.0  0.07267  0.51986  0.28364  1.0000
  C   C1145     1.0  0.14741  0.71796  0.31094  1.0000
  C   C1146     1.0  0.23223  0.73739  0.29037  1.0000
  C   C1147     1.0  0.24505  0.73341  0.27960  1.0000
  C   C1148     1.0  0.23498  0.70948  0.27402  1.0000
  C   C1149     1.0  0.21161  0.68987  0.27895  1.0000
  C   C1150     1.0  0.19856  0.69416  0.28953  1.0000
  C   C1151     1.0  0.20922  0.71766  0.29533  1.0000
  H   H920      1.0  0.26289  0.74856  0.27573  1.0000
  H   H921      1.0  0.24528  0.70621  0.26588  1.0000
  H   H922      1.0  0.18069  0.67911  0.29343  1.0000
  C   C1152     1.0  0.42870  0.73688  0.21943  1.0000
  C   C1153     1.0  0.41231  0.84174  0.29211  1.0000
  C   C1154     1.0  0.43119  0.82903  0.29480  1.0000
  C   C1155     1.0  0.10560  0.72037  0.26788  1.0000
  C   C1156     1.0  0.21872  0.69013  0.15856  1.0000
  C   C1157     1.0  0.31886  0.49973  0.29255  1.0000
  C   C1158     1.0  0.42191  0.86729  0.28715  1.0000
  H   H923      1.0  0.42395  0.80923  0.29860  1.0000
  C   C1159     1.0  0.41809  0.89253  0.19020  1.0000
  C   C1160     1.0  0.43433  0.88692  0.22726  1.0000
  S   S172      1.0  0.27579  0.88625  0.30305  1.0000
  H   H924      1.0  0.40760  0.87729  0.28507  1.0000
  C   C1161     1.0  0.41110  0.50563  0.17283  1.0000
  H   H925      1.0  0.39495  0.51330  0.17466  1.0000
  C   C1162     1.0  0.09262  0.62076  0.20517  1.0000
  C   C1163     1.0  0.07215  0.62599  0.21183  1.0000
  C   C1164     1.0  0.06871  0.62038  0.22471  1.0000
  C   C1165     1.0  0.08616  0.61012  0.23136  1.0000
  C   C1166     1.0  0.10743  0.60550  0.22484  1.0000
  C   C1167     1.0  0.11060  0.61075  0.21174  1.0000
  H   H926      1.0  0.05817  0.63369  0.20692  1.0000
  H   H927      1.0  0.05196  0.62360  0.22952  1.0000
  H   H928      1.0  0.12068  0.59697  0.22979  1.0000
  H   H929      1.0  0.12651  0.60664  0.20671  1.0000
  C   C1168     1.0  0.13754  0.51477  0.17387  1.0000
  C   C1169     1.0  0.21530  0.49238  0.26036  1.0000
  C   C1170     1.0  0.44496  0.83276  0.20781  1.0000
  C   C1171     1.0  0.44226  0.92974  0.20185  1.0000
  C   C1172     1.0  0.35493  0.57692  0.28829  1.0000
  C   C1173     1.0  0.10967  0.51133  0.17388  1.0000
  C   C1174     1.0  0.21387  0.48258  0.30525  1.0000
  C   C1175     1.0  0.40413  0.79653  0.20395  1.0000
  H   H930      1.0  0.10285  0.52734  0.17551  1.0000
  C   C1176     1.0  0.33043  0.85027  0.20850  1.0000
  C   C1177     1.0  0.30432  0.83226  0.21081  1.0000
  C   C1178     1.0  0.29250  0.82855  0.22288  1.0000
  C   C1179     1.0  0.30683  0.84232  0.23285  1.0000
  C   C1180     1.0  0.33311  0.86011  0.23056  1.0000
  C   C1181     1.0  0.34466  0.86415  0.21843  1.0000
  H   H931      1.0  0.29301  0.82178  0.20321  1.0000
  H   H932      1.0  0.27193  0.81524  0.22445  1.0000
  H   H933      1.0  0.34404  0.87153  0.23799  1.0000
  H   H934      1.0  0.36447  0.87855  0.21663  1.0000
  C   C1182     1.0  0.22785  0.74112  0.16472  1.0000
  C   C1183     1.0  0.20128  0.72319  0.16506  1.0000
  C   C1184     1.0  0.19677  0.69753  0.16219  1.0000
  C   C1185     1.0  0.05733  0.58049  0.31454  1.0000
  H   H935      1.0  0.19986  0.57666  0.21567  1.0000
  C   C1186     1.0  0.24982  0.73355  0.16127  1.0000
  H   H936      1.0  0.18428  0.72906  0.16771  1.0000
  C   C1187     1.0  0.04418  0.50192  0.23619  1.0000
  C   C1188     1.0  0.43974  0.78727  0.17128  1.0000
  C   C1189     1.0  0.43067  0.76731  0.16309  1.0000
  H   H937      1.0  0.06365  0.49417  0.19489  1.0000
  C   C1190     1.0  0.38873  0.77694  0.15995  1.0000
  C   C1191     1.0  0.39816  0.79742  0.16785  1.0000
  C   C1192     1.0  0.42372  0.80267  0.17344  1.0000
  H   H938      1.0  0.38553  0.80884  0.16989  1.0000
  C   C1193     1.0  0.22376  0.61335  0.17819  1.0000
  C   C1194     1.0  0.23031  0.59299  0.18400  1.0000
  C   C1195     1.0  0.24174  0.59569  0.19581  1.0000
  C   C1196     1.0  0.24609  0.61857  0.20193  1.0000
  C   C1197     1.0  0.23868  0.63885  0.19629  1.0000
  C   C1198     1.0  0.22782  0.63612  0.18432  1.0000
  P   P42       1.0  0.24348  0.66844  0.20406  1.0000
  C   C1199     1.0  0.24402  0.66127  0.22066  1.0000
  C   C1200     1.0  0.27469  0.69326  0.19848  1.0000
  C   C1201     1.0  0.28911  0.71295  0.20623  1.0000
  C   C1202     1.0  0.31201  0.73334  0.20163  1.0000
  C   C1203     1.0  0.32056  0.73432  0.18924  1.0000
  C   C1204     1.0  0.30605  0.71511  0.18141  1.0000
  C   C1205     1.0  0.28317  0.69469  0.18598  1.0000
  C   C1206     1.0  0.22021  0.65549  0.22806  1.0000
  C   C1207     1.0  0.22061  0.64884  0.24077  1.0000
  C   C1208     1.0  0.24462  0.64783  0.24621  1.0000
  C   C1209     1.0  0.26824  0.65296  0.23888  1.0000
  C   C1210     1.0  0.26802  0.65984  0.22616  1.0000
  C   C1211     1.0  0.21525  0.67970  0.20049  1.0000
  C   C1212     1.0  0.18853  0.66198  0.20012  1.0000
  C   C1213     1.0  0.16678  0.67053  0.19703  1.0000
  C   C1214     1.0  0.17142  0.69678  0.19435  1.0000
  C   C1215     1.0  0.19786  0.71459  0.19485  1.0000
  C   C1216     1.0  0.21974  0.70613  0.19782  1.0000
  H   H939      1.0  0.21502  0.61134  0.16898  1.0000
  H   H940      1.0  0.22631  0.57510  0.17933  1.0000
  H   H941      1.0  0.24706  0.57992  0.20023  1.0000
  H   H942      1.0  0.25492  0.62010  0.21105  1.0000
  H   H943      1.0  0.22215  0.65155  0.17979  1.0000
  H   H944      1.0  0.28217  0.71304  0.21569  1.0000
  H   H945      1.0  0.32273  0.74877  0.20756  1.0000
  H   H946      1.0  0.33801  0.75031  0.18554  1.0000
  H   H947      1.0  0.31221  0.71646  0.17168  1.0000
  H   H948      1.0  0.27178  0.68056  0.17959  1.0000
  H   H949      1.0  0.20128  0.65622  0.22417  1.0000
  H   H950      1.0  0.20228  0.64462  0.24647  1.0000
  H   H951      1.0  0.24482  0.64326  0.25614  1.0000
  H   H952      1.0  0.28684  0.65206  0.24310  1.0000
  H   H953      1.0  0.28648  0.66379  0.22058  1.0000
  H   H954      1.0  0.18449  0.64150  0.20206  1.0000
  H   H955      1.0  0.14632  0.65675  0.19652  1.0000
  H   H956      1.0  0.15457  0.70323  0.19169  1.0000
  H   H957      1.0  0.20156  0.73491  0.19245  1.0000
  H   H958      1.0  0.24007  0.72030  0.19770  1.0000
  C   C1217     1.0  0.35219  0.51344  0.26949  1.0000
  C   C1218     1.0  0.11215  0.48742  0.25945  1.0000
  C   C1219     1.0  0.40933  0.90842  0.18191  1.0000
  C   C1220     1.0  0.05981  0.51198  0.19623  1.0000
  H   H959      1.0  0.15352  0.71982  0.30122  1.0000
  C   C1221     1.0  0.30884  0.53566  0.27300  1.0000
  C   C1222     1.0  0.43404  0.90296  0.20045  1.0000
  C   C1223     1.0  0.01722  0.58330  0.26954  1.0000
  C   C1224     1.0  0.14626  0.49377  0.17200  1.0000
  P   P43       1.0  0.19072  0.49929  0.27032  1.0000
  H   H960      1.0  0.28868  0.54775  0.24382  1.0000
  C   C1225     1.0  0.40525  0.76224  0.15737  1.0000
  H   H961      1.0  0.43073  0.81825  0.17968  1.0000
  H   H962      1.0  0.18515  0.75682  0.27912  1.0000
  H   H963      1.0  0.40638  0.90692  0.22157  1.0000
  C   C1226     1.0  0.10193  0.71801  0.29037  1.0000
  C   C1227     1.0  0.11692  0.49163  0.29554  1.0000
  H   H964      1.0  0.18483  0.53054  0.29089  1.0000
  H   H965      1.0  0.38545  0.48871  0.24272  1.0000
  C   C1228     1.0  0.43548  0.77180  0.23830  1.0000
  H   H966      1.0  0.02471  0.62861  0.29673  1.0000
  C   C1229     1.0  0.14099  0.53109  0.22674  1.0000
  H   H967      1.0  0.13376  0.51614  0.23414  1.0000
  C   C1230     1.0  0.47081  0.82330  0.24678  1.0000
  H   H968      1.0  0.45918  0.86692  0.23617  1.0000
  H   H969      1.0  0.41549  0.61814  0.26605  1.0000
  C   C1231     1.0  0.47490  0.49642  0.21312  1.0000
  H   H970      1.0  0.45251  0.74620  0.29628  1.0000
  C   C1232     1.0  0.37344  0.53085  0.26211  1.0000
  C   C1233     1.0  0.12269  0.53529  0.21797  1.0000
  C   C1234     1.0  0.12699  0.75864  0.27935  1.0000
  H   H971      1.0  0.47225  0.74586  0.22020  1.0000
  H   H972      1.0  0.40993  0.94711  0.17717  1.0000
  C   C1235     1.0  0.08757  0.48280  0.21603  1.0000
  H   H973      1.0  0.35674  0.50735  0.19733  1.0000
  C   C1236     1.0  0.44406  0.49781  0.24108  1.0000
  H   H974      1.0  0.46567  0.81746  0.14931  1.0000
  C   C1237     1.0  0.02937  0.62630  0.27712  1.0000
  H   H975      1.0  0.19044  0.57646  0.29194  1.0000
  H   H976      1.0  0.03245  0.55277  0.18071  1.0000
  H   H977      1.0  0.27744  0.49191  0.28606  1.0000
  C   C1238     1.0  0.40075  0.83827  0.20785  1.0000
  C   C1239     1.0  0.37636  0.49566  0.25022  1.0000
  H   H978      1.0  0.20732  0.54347  0.25188  1.0000
  H   H979      1.0  0.13943  0.77883  0.27916  1.0000
  H   H980      1.0  0.03784  0.64709  0.27545  1.0000
  C   C1240     1.0  0.30770  0.53682  0.25993  1.0000
  C   C1241     1.0  0.42059  0.51090  0.20644  1.0000
  H   H981      1.0  0.43884  0.56863  0.14989  1.0000
  H   H982      1.0  0.21227  0.58947  0.25310  1.0000
  C   C1242     1.0  0.03228  0.56319  0.31079  1.0000
  C   C1243     1.0  0.20339  0.83231  0.29879  1.0000
  C   C1244     1.0  0.38406  0.55125  0.29207  1.0000
  C   C1245     1.0  0.20727  0.57662  0.26140  1.0000
  C   C1246     1.0  0.19387  0.76711  0.27040  1.0000
  C   C1247     1.0  0.21942  0.79381  0.24848  1.0000
  C   C1248     1.0  0.21023  0.76661  0.24925  1.0000
  C   C1249     1.0  0.19766  0.75341  0.26039  1.0000
  P   P44       1.0  0.21895  0.74922  0.23701  1.0000
  C   C1250     1.0  0.25150  0.74622  0.24108  1.0000
  C   C1251     1.0  0.19187  0.71845  0.23565  1.0000
  C   C1252     1.0  0.17274  0.71507  0.22607  1.0000
  C   C1253     1.0  0.15070  0.69193  0.22560  1.0000
  C   C1254     1.0  0.14743  0.67209  0.23472  1.0000
  C   C1255     1.0  0.16644  0.67513  0.24417  1.0000
  C   C1256     1.0  0.18874  0.69806  0.24457  1.0000
  C   C1257     1.0  0.27196  0.76744  0.24575  1.0000
  C   C1258     1.0  0.29767  0.76607  0.24853  1.0000
  C   C1259     1.0  0.30315  0.74334  0.24681  1.0000
  C   C1260     1.0  0.28299  0.72214  0.24209  1.0000
  C   C1261     1.0  0.25730  0.72360  0.23910  1.0000
  C   C1262     1.0  0.22311  0.76722  0.22217  1.0000
  C   C1263     1.0  0.20620  0.78179  0.21905  1.0000
  C   C1264     1.0  0.20911  0.79521  0.20745  1.0000
  C   C1265     1.0  0.22857  0.79385  0.19881  1.0000
  C   C1266     1.0  0.24503  0.77895  0.20174  1.0000
  C   C1267     1.0  0.24243  0.76575  0.21339  1.0000
  C   C1268     1.0  0.44992  0.75503  0.28733  1.0000
  H   H983      1.0  0.23092  0.80471  0.24042  1.0000
  H   H984      1.0  0.19162  0.73263  0.26164  1.0000
  H   H985      1.0  0.17445  0.73023  0.21898  1.0000
  H   H986      1.0  0.13589  0.68943  0.21825  1.0000
  H   H987      1.0  0.13001  0.65448  0.23454  1.0000
  H   H988      1.0  0.16363  0.65979  0.25131  1.0000
  H   H989      1.0  0.20317  0.70007  0.25201  1.0000
  H   H990      1.0  0.26817  0.78519  0.24724  1.0000
  H   H991      1.0  0.31325  0.78270  0.25208  1.0000
  H   H992      1.0  0.32298  0.74222  0.24918  1.0000
  H   H993      1.0  0.28737  0.70464  0.24079  1.0000
  H   H994      1.0  0.24207  0.70720  0.23527  1.0000
  H   H995      1.0  0.19072  0.78272  0.22556  1.0000
  H   H996      1.0  0.19627  0.80666  0.20509  1.0000
  H   H997      1.0  0.23081  0.80419  0.18979  1.0000
  H   H998      1.0  0.25981  0.77770  0.19492  1.0000
  H   H999      1.0  0.25547  0.75441  0.21547  1.0000
  H   H1000     1.0  0.45759  0.90020  0.28180  1.0000
  C   C1269     1.0  0.20254  0.79407  0.26941  1.0000
  H   H1001     1.0  0.41197  0.87216  0.18855  1.0000
  H   H1002     1.0  0.19993  0.72058  0.30382  1.0000
  C   C1270     1.0  0.42421  0.51305  0.28559  1.0000
  C   C1271     1.0  0.09993  0.76610  0.31250  1.0000
  H   H1003     1.0  0.43241  0.64949  0.18983  1.0000
  H   H1004     1.0  0.36782  0.82403  0.23053  1.0000
  C   C1272     1.0  0.18381  0.78711  0.30581  1.0000
  H   H1005     1.0  0.18261  0.54292  0.23281  1.0000
  C   C1273     1.0  0.21535  0.80741  0.25847  1.0000
  C   C1274     1.0  0.19230  0.54327  0.28268  1.0000
  C   C1275     1.0  0.38828  0.81238  0.20515  1.0000
  H   H1006     1.0  0.20438  0.60623  0.27319  1.0000
  H   H1007     1.0  0.16785  0.49645  0.17186  1.0000
  H   H1008     1.0  0.46780  0.53033  0.30963  1.0000
  C   C1276     1.0  0.19734  0.53362  0.27142  1.0000
  C   C1277     1.0  0.19527  0.56941  0.28331  1.0000
  S   S173      1.0  0.46638  0.55944  0.28590  1.0000
  H   H1009     1.0  0.23032  0.51140  0.29042  1.0000
  H   H1010     1.0  0.47453  0.81708  0.22721  1.0000
  C   C1278     1.0  0.40656  0.90127  0.24140  1.0000
  H   H1011     1.0  0.38826  0.85030  0.20883  1.0000
  C   C1279     1.0  0.06247  0.54846  0.20846  1.0000
  C   C1280     1.0  0.17840  0.56514  0.21636  1.0000
  C   C1281     1.0  0.40593  0.74097  0.22458  1.0000
  H   H1012     1.0  0.42012  0.52029  0.27654  1.0000
  C   C1282     1.0  0.41739  0.89144  0.25159  1.0000
  H   H1013     1.0  0.25832  0.56397  0.25609  1.0000
  H   H1014     1.0  0.44129  0.52447  0.20593  1.0000
  C   C1283     1.0  0.41265  0.80868  0.25006  1.0000
  H   H1015     1.0  0.40690  0.80790  0.23018  1.0000
  C   C1284     1.0  0.24522  0.70812  0.15806  1.0000
  H   H1016     1.0  0.45331  0.51622  0.23595  1.0000
  H   H1017     1.0  0.20029  0.80467  0.27727  1.0000
  C   C1285     1.0  0.41505  0.89913  0.22929  1.0000
  C   C1286     1.0  0.43656  0.87927  0.24966  1.0000
  C   C1287     1.0  0.44026  0.49731  0.25397  1.0000
  H   H1018     1.0  0.06834  0.73175  0.30662  1.0000
  C   C1288     1.0  0.20285  0.58612  0.27270  1.0000
  C   C1289     1.0  0.44647  0.52823  0.29238  1.0000
  C   C1290     1.0  0.39991  0.81232  0.23894  1.0000
  H   H1019     1.0  0.37124  0.61640  0.29368  1.0000
  C   C1291     1.0  0.20438  0.55047  0.26075  1.0000
  C   C1292     1.0  0.44465  0.87667  0.23754  1.0000
  H   H1020     1.0  0.47744  0.49920  0.27952  1.0000
  H   H1021     1.0  0.40169  0.53547  0.24677  1.0000
  S   S174      1.0  0.21351  0.65844  0.15468  1.0000
  H   H1022     1.0  0.40448  0.53798  0.19701  1.0000
  C   C1293     1.0  0.37797  0.82165  0.23908  1.0000
  P   P45       1.0  0.00430  0.57473  0.30726  1.0000
  C   C1294     1.0  0.36917  0.82818  0.25028  1.0000
  H   H1023     1.0  0.46693  0.84022  0.20861  1.0000
  C   C1295     1.0  0.40446  0.81645  0.26117  1.0000
  H   H1024     1.0  0.38574  0.73108  0.22110  1.0000
  P   P46       1.0  0.44475  0.88284  0.21168  1.0000
  C   C1296     1.0  0.28923  0.54668  0.25390  1.0000
  C   C1297     1.0  0.43833  0.52200  0.17235  1.0000
  H   H1025     1.0  0.11587  0.49635  0.20031  1.0000
  C   C1298     1.0  0.40392  0.57247  0.29694  1.0000
  H   H1026     1.0  0.01141  0.52400  0.30541  1.0000
  H   H1027     1.0  0.14204  0.51530  0.26979  1.0000
  P   P47       1.0  0.12782  0.75861  0.30548  1.0000
  C   C1299     1.0  0.35927  0.55307  0.28777  1.0000
  P   P48       1.0  0.44029  0.79562  0.24985  1.0000
  C   C1300     1.0  0.43369  0.94563  0.19346  1.0000
  H   H1028     1.0  0.39611  0.89997  0.17432  1.0000
  C   C1301     1.0  0.38266  0.82595  0.26125  1.0000
  H   H1029     1.0  0.10134  0.71097  0.25913  1.0000
  C   C1302     1.0  0.03186  0.50332  0.24757  1.0000
  P   P49       1.0  0.08725  0.51487  0.21886  1.0000
  H   H1030     1.0  0.22335  0.82839  0.25790  1.0000
  H   H1031     1.0  0.36639  0.80488  0.20378  1.0000
  C   C1303     1.0  0.08622  0.53393  0.24250  1.0000
  H   H1032     1.0  0.35212  0.83532  0.25047  1.0000
  H   H1033     1.0  0.41487  0.81536  0.26979  1.0000
  S   S175      1.0  0.16085  0.59392  0.15012  1.0000
  C   C1304     1.0  0.21481  0.49678  0.24738  1.0000
  H   H1034     1.0  0.10680  0.54694  0.24059  1.0000
  C   C1305     1.0  0.20658  0.80949  0.30364  1.0000
  C   C1306     1.0  0.07378  0.53541  0.25383  1.0000
  H   H1035     1.0  0.27041  0.74721  0.16114  1.0000
  C   C1307     1.0  0.40924  0.75810  0.23410  1.0000
  H   H1036     1.0  0.23194  0.49331  0.22955  1.0000
  C   C1308     1.0  0.15749  0.78751  0.30319  1.0000
  C   C1309     1.0  0.40650  0.48896  0.29056  1.0000
  C   C1310     1.0  0.46914  0.86762  0.28826  1.0000
  C   C1311     1.0  0.02172  0.61568  0.28921  1.0000
  C   C1312     1.0  0.43284  0.61685  0.26091  1.0000
  C   C1313     1.0  0.42410  0.75507  0.28371  1.0000
  H   H1037     1.0  0.16817  0.58296  0.19967  1.0000
  H   H1038     1.0  0.40075  0.76665  0.26961  1.0000
  H   H1039     1.0  0.06856  0.55919  0.21675  1.0000
  H   H1040     1.0  0.17498  0.85029  0.29186  1.0000
  C   C1314     1.0  0.13268  0.55409  0.20818  1.0000
  C   C1315     1.0  0.04947  0.55810  0.19902  1.0000
  H   H1041     1.0  0.08446  0.68558  0.27904  1.0000
  P   P50       1.0  0.33461  0.52547  0.28086  1.0000
  H   H1042     1.0  0.33652  0.57954  0.28485  1.0000
  C   C1316     1.0  0.07175  0.51657  0.23372  1.0000
  C   C1317     1.0  0.16046  0.56893  0.20741  1.0000
  H   H1043     1.0  0.17632  0.68356  0.16270  1.0000
  H   H1044     1.0  0.03215  0.48960  0.22925  1.0000
  C   C1318     1.0  0.45942  0.84179  0.29279  1.0000
  H   H1045     1.0  0.42301  0.57069  0.30020  1.0000
  C   C1319     1.0  0.38544  0.52196  0.25250  1.0000
  C   C1320     1.0  0.16868  0.54616  0.22600  1.0000
  C   C1321     1.0  0.45467  0.74927  0.22408  1.0000
  H   H1046     1.0  0.25831  0.56024  0.27920  1.0000
  H   H1047     1.0  0.22123  0.84951  0.29706  1.0000
  H   H1048     1.0  0.09492  0.70641  0.29894  1.0000
  C   C1322     1.0  0.21324  0.49455  0.29351  1.0000
  H   H1049     1.0  0.11934  0.55707  0.20096  1.0000
  H   H1050     1.0  0.13686  0.49651  0.29969  1.0000
  C   C1323     1.0  0.12098  0.74666  0.26802  1.0000
  C   C1324     1.0  0.09601  0.70609  0.27906  1.0000
  C   C1325     1.0  0.04188  0.54488  0.18814  1.0000
  C   C1326     1.0  0.04672  0.51996  0.25642  1.0000
  C   C1327     1.0  0.46321  0.59340  0.25623  1.0000
  H   H1051     1.0  0.28434  0.95299  0.31021  1.0000
  S   S176      1.0  0.44580  0.55437  0.17569  1.0000
  H   H1052     1.0  0.40655  0.74616  0.28986  1.0000
  H   H1053     1.0  0.03716  0.52138  0.26517  1.0000
  C   C1328     1.0  0.45100  0.51881  0.30420  1.0000
  C   C1329     1.0  0.23277  0.49031  0.23957  1.0000
  C   C1330     1.0  0.41702  0.93493  0.18355  1.0000
  C   C1331     1.0  0.45909  0.51215  0.16969  1.0000
  C   C1332     1.0  0.04683  0.52172  0.18679  1.0000
  C   C1333     1.0  0.06804  0.52549  0.20707  1.0000
  C   C1334     1.0  0.11767  0.74433  0.29066  1.0000
  C   C1335     1.0  0.43240  0.80663  0.20549  1.0000
  C   C1336     1.0  0.45025  0.88022  0.28532  1.0000
  H   H1054     1.0  0.39077  0.51592  0.14982  1.0000
  H   H1055     1.0  0.19986  0.50429  0.24323  1.0000
  C   C1337     1.0  0.47079  0.63597  0.24623  1.0000
  C   C1338     1.0  0.42096  0.76702  0.27227  1.0000
  H   H1056     1.0  0.12868  0.75770  0.25936  1.0000
  H   H1057     1.0  0.08497  0.54906  0.26049  1.0000
  H   H1058     1.0  0.32117  0.53043  0.25430  1.0000
  H   H1059     1.0  0.03383  0.61835  0.25797  1.0000
  C   C1339     1.0  0.44385  0.77982  0.26457  1.0000
  H   H1060     1.0  0.39132  0.76079  0.23806  1.0000
  C   C1340     1.0  0.45627  0.67452  0.21759  1.0000
  C   C1341     1.0  0.42921  0.84889  0.20885  1.0000
  H   H1061     1.0  0.38034  0.55135  0.26361  1.0000
  C   C1342     1.0  0.19084  0.48451  0.28572  1.0000
  C   C1343     1.0  0.15445  0.81050  0.29819  1.0000
  H   H1062     1.0  0.08727  0.71346  0.15282  1.0000
  C   C1344     1.0  0.44235  0.67137  0.20631  1.0000
  H   H1063     1.0  0.26222  0.70234  0.15531  1.0000
  H   H1064     1.0  0.18702  0.76956  0.30933  1.0000
  C   C1345     1.0  0.02713  0.61013  0.26728  1.0000
  H   H1065     1.0  0.43182  0.68452  0.20329  1.0000
  H   H1066     1.0  0.43974  0.96621  0.19470  1.0000
  S   S177      1.0  0.13007  0.63608  0.15495  1.0000
  C   C1346     1.0  0.44245  0.65151  0.19875  1.0000
  H   H1067     1.0  0.04109  0.51158  0.17830  1.0000
  S   S178      1.0  0.46857  0.79022  0.18037  1.0000
  H   H1068     1.0  0.12631  0.69873  0.15812  1.0000
  H   H1069     1.0  0.45503  0.93826  0.20954  1.0000
  H   H1070     1.0  0.06887  0.48405  0.17254  1.0000
  H   H1071     1.0  0.44489  0.87158  0.25757  1.0000
  H   H1072     1.0  0.01064  0.49187  0.24945  1.0000
  C   C1347     1.0  0.27180  0.55548  0.26084  1.0000
  C   C1348     1.0  0.33508  0.49072  0.30079  1.0000
  C   C1349     1.0  0.43320  0.49471  0.30920  1.0000
  H   H1073     1.0  0.39469  0.77664  0.20152  1.0000
  H   H1074     1.0  0.47284  0.83611  0.26560  1.0000
  H   H1075     1.0  0.44288  0.75522  0.16148  1.0000
  C   C1350     1.0  0.46956  0.63728  0.21389  1.0000
  C   C1351     1.0  0.45804  0.76640  0.23359  1.0000
  C   C1352     1.0  0.27204  0.55356  0.27384  1.0000
  H   H1076     1.0  0.44111  0.65378  0.25106  1.0000
  H   H1077     1.0  0.17244  0.86643  0.31351  1.0000
  H   H1078     1.0  0.45911  0.85595  0.15775  1.0000
  H   H1079     1.0  0.42623  0.72413  0.21185  1.0000
  C   C1353     1.0  0.44087  0.59515  0.26287  1.0000
  C   C1354     1.0  0.39929  0.59593  0.29754  1.0000
  H   H1080     1.0  0.13438  0.81110  0.29586  1.0000
  H   H1081     1.0  0.38827  0.53351  0.29153  1.0000
  C   C1355     1.0  0.44753  0.63707  0.25250  1.0000
  C   C1356     1.0  0.01161  0.58876  0.29156  1.0000
  H   H1082     1.0  0.45563  0.61881  0.19673  1.0000
  H   H1083     1.0  0.43008  0.57980  0.26965  1.0000
  C   C1357     1.0  0.17734  0.83272  0.29591  1.0000
  H   H1084     1.0  0.29075  0.54258  0.29001  1.0000
  H   H1085     1.0  0.41475  0.61235  0.30133  1.0000
  C   C1358     1.0  0.34337  0.48699  0.26722  1.0000
  C   C1359     1.0  0.29038  0.54354  0.27992  1.0000
  H   H1086     1.0  0.09684  0.49646  0.26066  1.0000
  H   H1087     1.0  0.32397  0.93787  0.31100  1.0000
  H   H1088     1.0  0.39805  0.74646  0.15123  1.0000
  S   S179      1.0  0.35601  0.76889  0.15357  1.0000
  H   H1089     1.0  0.44476  0.79445  0.20436  1.0000
  H   H1090     1.0  0.34649  0.48328  0.15688  1.0000
  H   H1091     1.0  0.23130  0.49013  0.31118  1.0000
  C   C1360     1.0  0.13786  0.49796  0.26468  1.0000
  H   H1092     1.0  0.05132  0.68328  0.31129  1.0000
  H   H1093     1.0  0.18058  0.54445  0.15123  1.0000
  C   C1361     1.0  0.41474  0.48567  0.21171  1.0000
  H   H1094     1.0  0.24644  0.50428  0.15187  1.0000
  C   C1362     1.0  0.03006  0.53748  0.30885  1.0000
  H   H1095     1.0  0.35706  0.49914  0.30056  1.0000
  C   C1363     1.0  0.15744  0.48572  0.26361  1.0000
  H   H1096     1.0  0.46489  0.49244  0.19369  1.0000
  H   H1097     1.0  0.44648  0.51513  0.25874  1.0000
  H   H1098     1.0  0.46953  0.57666  0.25786  1.0000
  C   C1364     1.0  0.46954  0.77888  0.26808  1.0000
  C   C1365     1.0  0.29044  0.48675  0.29274  1.0000
  C   C1366     1.0  0.00956  0.57261  0.28163  1.0000
  C   C1367     1.0  0.09046  0.48681  0.17233  1.0000
  H   H1099     1.0  0.01644  0.57090  0.26193  1.0000
  H   H1100     1.0  0.45582  0.68993  0.22334  1.0000
  C   C1368     1.0  0.47075  0.65798  0.22126  1.0000
  C   C1369     1.0  0.12563  0.70811  0.14907  1.0000
  C   C1370     1.0  0.47256  0.76662  0.27944  1.0000
  C   C1371     1.0  0.05228  0.52907  0.31114  1.0000
  H   H1101     1.0  0.00280  0.55181  0.28330  1.0000
  C   C1372     1.0  0.45266  0.48555  0.16832  1.0000
  C   C1373     1.0  0.45572  0.63427  0.20262  1.0000
  H   H1102     1.0  0.47369  0.83183  0.29507  1.0000
  C   C1374     1.0  0.07299  0.74892  0.31184  1.0000
  H   H1103     1.0  0.05064  0.50928  0.30958  1.0000
  Fe  Fe86      1.0  0.31539  0.83914  0.14799  1.0000
  S   S180      1.0  0.21956  0.91670  0.47079  1.0000
  S   S181      1.0  0.03681  0.71536  0.46823  1.0000
  Fe  Fe87      1.0  0.23071  0.94754  0.39761  1.0000
  S   S182      1.0  0.18721  0.94515  0.39532  1.0000
  S   S183      1.0  0.25374  0.96212  0.41533  1.0000
  Fe  Fe88      1.0  0.23492  0.93211  0.37033  1.0000
  S   S184      1.0  0.19172  0.93001  0.36624  1.0000
  S   S185      1.0  0.26416  0.91888  0.35855  1.0000
  C   C1375     1.0  0.04436  0.78729  0.45858  1.0000
  Fe  Fe89      1.0  0.18168  0.90918  0.38506  1.0000
  S   S186      1.0  0.14945  0.87066  0.39060  1.0000
  C   C1376     1.0  0.05500  0.84536  0.39122  1.0000
  S   S187      1.0  0.22435  0.90992  0.38887  1.0000
  Fe  Fe90      1.0  0.01479  0.72541  0.39033  1.0000
  S   S188      1.0  0.99548  0.75066  0.37944  1.0000
  S   S189      1.0  0.00926  0.73138  0.41103  1.0000
  Fe  Fe91      1.0  0.02852  0.70364  0.36564  1.0000
  S   S190      1.0  0.00884  0.72703  0.35376  1.0000
  S   S191      1.0  0.05106  0.67783  0.35762  1.0000
  Fe  Fe92      1.0  0.03096  0.75933  0.36610  1.0000
  S   S192      1.0  0.05454  0.79970  0.35797  1.0000
  S   S193      1.0  0.05181  0.73656  0.37756  1.0000
  S   S194      1.0  0.99314  0.69027  0.37965  1.0000
  C   C1377     1.0  0.22953  0.86227  0.45515  1.0000
  C   C1378     1.0  0.02448  0.79877  0.46026  1.0000
  C   C1379     1.0  0.05990  0.67152  0.34225  1.0000
  C   C1380     1.0  0.05184  0.68205  0.33140  1.0000
  C   C1381     1.0  0.12870  0.85486  0.42053  1.0000
  C   C1382     1.0  0.27083  0.89212  0.31891  1.0000
  C   C1383     1.0  0.08174  0.64838  0.32904  1.0000
  C   C1384     1.0  0.07497  0.65471  0.34092  1.0000
  H   H1104     1.0  0.04013  0.69486  0.33217  1.0000
  H   H1105     1.0  0.09424  0.53983  0.31675  1.0000
  C   C1385     1.0  0.13848  0.95873  0.41163  1.0000
  H   H1106     1.0  0.08135  0.64637  0.34919  1.0000
  C   C1386     1.0  0.26511  0.90759  0.34335  1.0000
  C   C1387     1.0  0.28639  0.89839  0.34028  1.0000
  C   C1388     1.0  0.28916  0.89056  0.32820  1.0000
  C   C1389     1.0  0.02896  0.82770  0.38936  1.0000
  C   C1390     1.0  0.33835  0.97595  0.33584  1.0000
  C   C1391     1.0  0.24617  0.90829  0.33420  1.0000
  H   H1107     1.0  0.30121  0.89779  0.34724  1.0000
  H   H1108     1.0  0.13218  0.84213  0.41388  1.0000
  H   H1109     1.0  0.22964  0.91521  0.33639  1.0000
  C   C1392     1.0  0.12474  0.85099  0.38081  1.0000
  C   C1393     1.0  0.11759  0.86067  0.36955  1.0000
  C   C1394     1.0  0.09644  0.84462  0.36244  1.0000
  C   C1395     1.0  0.08206  0.81899  0.36667  1.0000
  C   C1396     1.0  0.08946  0.80935  0.37789  1.0000
  C   C1397     1.0  0.11079  0.82523  0.38487  1.0000
  H   H1110     1.0  0.12789  0.88064  0.36648  1.0000
  H   H1111     1.0  0.09078  0.85225  0.35379  1.0000
  H   H1112     1.0  0.07839  0.78986  0.38135  1.0000
  H   H1113     1.0  0.11604  0.81763  0.39362  1.0000
  C   C1398     1.0  0.02907  0.71999  0.45234  1.0000
  C   C1399     1.0  0.00967  0.73144  0.44888  1.0000
  C   C1400     1.0  0.00425  0.73501  0.43619  1.0000
  C   C1401     1.0  0.01771  0.72674  0.42680  1.0000
  C   C1402     1.0  0.03707  0.71522  0.43024  1.0000
  C   C1403     1.0  0.04275  0.71195  0.44294  1.0000
  H   H1114     1.0  0.99896  0.73760  0.45600  1.0000
  H   H1115     1.0  0.05984  0.60063  0.31552  1.0000
  H   H1116     1.0  0.04758  0.70876  0.42313  1.0000
  H   H1117     1.0  0.05772  0.70299  0.44551  1.0000
  C   C1404     1.0  0.22565  0.93248  0.45569  1.0000
  C   C1405     1.0  0.24794  0.95517  0.45324  1.0000
  C   C1406     1.0  0.25568  0.96454  0.44085  1.0000
  C   C1407     1.0  0.24137  0.95126  0.43076  1.0000
  C   C1408     1.0  0.21862  0.92902  0.43321  1.0000
  C   C1409     1.0  0.21085  0.91971  0.44561  1.0000
  H   H1118     1.0  0.12343  0.70847  0.34551  1.0000
  C   C1410     1.0  0.23972  0.85268  0.37841  1.0000
  H   H1119     1.0  0.09339  0.63553  0.32829  1.0000
  H   H1120     1.0  0.06475  0.86018  0.38403  1.0000
  C   C1411     1.0  0.31618  0.96334  0.37848  1.0000
  H   H1121     1.0  0.06509  0.84127  0.47002  1.0000
  H   H1122     1.0  0.02301  0.58507  0.33303  1.0000
  C   C1412     1.0  0.05726  0.77485  0.32552  1.0000
  C   C1413     1.0  0.11451  0.79200  0.42714  1.0000
  C   C1414     1.0  0.00836  0.61477  0.33876  1.0000
  C   C1415     1.0  0.12585  0.75587  0.45742  1.0000
  C   C1416     1.0  0.14040  0.78199  0.45905  1.0000
  H   H1123     1.0  0.08807  0.80852  0.33198  1.0000
  C   C1417     1.0  0.20901  0.85110  0.46419  1.0000
  C   C1418     1.0  0.09966  0.86521  0.43544  1.0000
  C   C1419     1.0  0.29631  0.97617  0.32619  1.0000
  H   H1124     1.0  0.16577  0.88279  0.46994  1.0000
  H   H1125     1.0  0.23871  0.87289  0.43568  1.0000
  C   C1420     1.0  0.22281  0.86369  0.44262  1.0000
  H   H1126     1.0  0.16008  0.91468  0.43124  1.0000
  H   H1127     1.0  0.98940  0.74408  0.43362  1.0000
  H   H1128     1.0  0.01745  0.61564  0.34788  1.0000
  C   C1421     1.0  0.03094  0.80558  0.40923  1.0000
  H   H1129     1.0  0.08711  0.76740  0.35044  1.0000
  H   H1130     1.0  0.06148  0.77522  0.40699  1.0000
  C   C1422     1.0  0.25240  0.82156  0.32950  1.0000
  H   H1131     1.0  0.99686  0.79405  0.39684  1.0000
  H   H1132     1.0  0.12354  0.80543  0.43419  1.0000
  H   H1133     1.0  0.07489  0.78304  0.44639  1.0000
  C   C1423     1.0  0.01182  0.59776  0.33021  1.0000
  H   H1134     1.0  0.27026  0.83656  0.32551  1.0000
  C   C1424     1.0  0.14296  0.69500  0.33109  1.0000
  H   H1135     1.0  0.02175  0.78943  0.41588  1.0000
  H   H1136     1.0  0.21476  0.85117  0.47385  1.0000
  H   H1137     1.0  0.11658  0.90252  0.44322  1.0000
  C   C1425     1.0  0.05733  0.82306  0.41109  1.0000
  H   H1138     1.0  0.26007  0.96474  0.46087  1.0000
  H   H1139     1.0  0.08978  0.85638  0.40296  1.0000
  H   H1140     1.0  0.12339  0.74112  0.41323  1.0000
  C   C1426     1.0  0.10527  0.78764  0.31984  1.0000
  C   C1427     1.0  0.19547  0.85440  0.43913  1.0000
  C   C1428     1.0  0.17486  0.84384  0.44820  1.0000
  C   C1429     1.0  0.13225  0.84644  0.47084  1.0000
  C   C1430     1.0  0.14383  0.87350  0.46979  1.0000
  C   C1431     1.0  0.12719  0.88880  0.46875  1.0000
  C   C1432     1.0  0.09882  0.87716  0.46867  1.0000
  C   C1433     1.0  0.08711  0.85023  0.46967  1.0000
  C   C1434     1.0  0.10371  0.83486  0.47079  1.0000
  H   H1141     1.0  0.19027  0.85620  0.42946  1.0000
  H   H1142     1.0  0.15371  0.83793  0.44547  1.0000
  H   H1143     1.0  0.11578  0.95256  0.39463  1.0000
  H   H1144     1.0  0.20779  0.91844  0.42553  1.0000
  C   C1435     1.0  0.07340  0.65866  0.31820  1.0000
  H   H1145     1.0  0.04093  0.77796  0.33078  1.0000
  H   H1146     1.0  0.09884  0.58557  0.31961  1.0000
  H   H1147     1.0  0.22089  0.75649  0.32982  1.0000
  H   H1148     1.0  0.24253  0.84766  0.35901  1.0000
  H   H1149     1.0  0.13161  0.93837  0.41455  1.0000
  H   H1150     1.0  0.12594  0.80059  0.32101  1.0000
  H   H1151     1.0  0.07878  0.97337  0.34060  1.0000
  H   H1152     1.0  0.23107  0.85590  0.39770  1.0000
  H   H1153     1.0  0.11688  0.74364  0.33224  1.0000
  C   C1436     1.0  0.01953  0.81487  0.45079  1.0000
  P   P51       1.0  0.15443  0.82736  0.47226  1.0000
  C   C1437     1.0  0.09119  0.79315  0.42091  1.0000
  H   H1154     1.0  0.16200  0.81585  0.37611  1.0000
  C   C1438     1.0  0.05497  0.80858  0.43795  1.0000
  H   H1155     1.0  0.08077  0.86059  0.44069  1.0000
  C   C1439     1.0  0.10379  0.84790  0.42714  1.0000
  C   C1440     1.0  0.01682  0.80800  0.39843  1.0000
  H   H1156     1.0  0.00427  0.82388  0.45221  1.0000
  H   H1157     1.0  0.31624  0.95846  0.35889  1.0000
  H   H1158     1.0  0.30614  0.88430  0.32595  1.0000
  C   C1441     1.0  0.00090  0.59731  0.31824  1.0000
  C   C1442     1.0  0.13614  0.79364  0.46982  1.0000
  H   H1159     1.0  0.09568  0.72100  0.46526  1.0000
  C   C1443     1.0  0.12691  0.73143  0.32833  1.0000
  C   C1444     1.0  0.15738  0.97680  0.41874  1.0000
  H   H1160     1.0  0.23492  0.90222  0.31496  1.0000
  P   P52       1.0  0.07682  0.81787  0.42425  1.0000
  C   C1445     1.0  0.12952  0.96671  0.40040  1.0000
  H   H1161     1.0  0.14527  0.67924  0.33692  1.0000
  C   C1446     1.0  0.05179  0.75327  0.31835  1.0000
  H   H1162     1.0  0.04789  0.77449  0.46590  1.0000
  C   C1447     1.0  0.14891  0.87884  0.42202  1.0000
  C   C1448     1.0  0.05958  0.79213  0.44746  1.0000
  C   C1449     1.0  0.14455  0.89598  0.43021  1.0000
  H   H1163     1.0  0.08585  0.88897  0.46813  1.0000
  H   H1164     1.0  0.26121  0.86407  0.37896  1.0000
  C   C1450     1.0  0.11450  0.75565  0.41537  1.0000
  C   C1451     1.0  0.24917  0.90080  0.32205  1.0000
  C   C1452     1.0  0.05832  0.67546  0.31952  1.0000
  H   H1165     1.0  0.09408  0.81412  0.47178  1.0000
  C   C1453     1.0  0.13079  0.71161  0.33595  1.0000
  H   H1166     1.0  0.13639  0.90967  0.46813  1.0000
  C   C1454     1.0  0.03457  0.81964  0.43964  1.0000
  C   C1455     1.0  0.11998  0.88914  0.43693  1.0000
  H   H1167     1.0  0.12888  0.74687  0.44910  1.0000
  C   C1456     1.0  0.22273  0.84817  0.38895  1.0000
  Fe  Fe93      1.0  0.20135  0.96669  0.37684  1.0000
  C   C1457     1.0  0.10972  0.74603  0.35998  1.0000
  H   H1168     1.0  0.15503  0.79273  0.45193  1.0000
  H   H1169     1.0  0.16768  0.88439  0.41652  1.0000
  C   C1458     1.0  0.07950  0.57204  0.31681  1.0000
  C   C1459     1.0  0.19477  0.83476  0.38804  1.0000
  H   H1170     1.0  0.14460  0.77306  0.42894  1.0000
  H   H1171     1.0  0.09203  0.72872  0.36160  1.0000
  H   H1172     1.0  0.16503  0.96994  0.42708  1.0000
  S   S195      1.0  0.24538  0.97047  0.37941  1.0000
  C   C1460     1.0  0.07953  0.77511  0.41195  1.0000
  C   C1461     1.0  0.10727  0.74116  0.46657  1.0000
  C   C1462     1.0  0.18151  0.84131  0.46075  1.0000
  C   C1463     1.0  0.17158  0.86477  0.32357  1.0000
  H   H1173     1.0  0.31569  0.94378  0.38083  1.0000
  C   C1464     1.0  0.31652  0.97180  0.36597  1.0000
  H   H1174     1.0  0.25059  0.87063  0.45793  1.0000
  C   C1465     1.0  0.24822  0.79569  0.32739  1.0000
  C   C1466     1.0  0.06918  0.84307  0.40202  1.0000
  C   C1467     1.0  0.12632  0.77355  0.42427  1.0000
  H   H1175     1.0  0.03091  0.83262  0.43248  1.0000
  C   C1468     1.0  0.34139  0.95931  0.32699  1.0000
  H   H1176     1.0  0.01851  0.82885  0.38074  1.0000
  C   C1469     1.0  0.13514  0.74664  0.36443  1.0000
  C   C1470     1.0  0.10709  0.76769  0.35348  1.0000
  C   C1471     1.0  0.13013  0.78965  0.35092  1.0000
  C   C1472     1.0  0.15596  0.78995  0.35487  1.0000
  C   C1473     1.0  0.15815  0.76861  0.36200  1.0000
  P   P53       1.0  0.18630  0.81758  0.35133  1.0000
  C   C1474     1.0  0.21015  0.80877  0.34175  1.0000
  C   C1475     1.0  0.17766  0.84310  0.34306  1.0000
  C   C1476     1.0  0.17790  0.84479  0.32998  1.0000
  C   C1477     1.0  0.98545  0.61329  0.31518  1.0000
  C   C1478     1.0  0.16449  0.88288  0.33013  1.0000
  C   C1479     1.0  0.16376  0.88106  0.34312  1.0000
  C   C1480     1.0  0.17044  0.86135  0.34959  1.0000
  C   C1481     1.0  0.23334  0.82813  0.33652  1.0000
  H   H1177     1.0  0.19387  0.90198  0.44741  1.0000
  C   C1482     1.0  0.99370  0.63118  0.33550  1.0000
  C   C1483     1.0  0.22454  0.77641  0.33196  1.0000
  C   C1484     1.0  0.20549  0.78286  0.33906  1.0000
  C   C1485     1.0  0.20091  0.82936  0.36605  1.0000
  C   C1486     1.0  0.22891  0.84335  0.36701  1.0000
  C   C1487     1.0  0.09107  0.75638  0.40926  1.0000
  H   H1178     1.0  0.15967  0.89839  0.32516  1.0000
  C   C1488     1.0  0.98212  0.63036  0.32374  1.0000
  C   C1489     1.0  0.18387  0.82548  0.37665  1.0000
  H   H1179     1.0  0.13695  0.72996  0.36969  1.0000
  H   H1180     1.0  0.12759  0.80630  0.34597  1.0000
  H   H1181     1.0  0.17779  0.76886  0.36549  1.0000
  H   H1182     1.0  0.18325  0.83086  0.32474  1.0000
  H   H1183     1.0  0.01305  0.79542  0.46895  1.0000
  C   C1490     1.0  0.08394  0.79212  0.32618  1.0000
  H   H1184     1.0  0.15813  0.89503  0.34819  1.0000
  H   H1185     1.0  0.16997  0.86048  0.35968  1.0000
  H   H1186     1.0  0.23667  0.84836  0.33780  1.0000
  H   H1187     1.0  0.18132  0.83227  0.39605  1.0000
  H   H1188     1.0  0.26289  0.79061  0.32186  1.0000
  H   H1189     1.0  0.08161  0.74234  0.40247  1.0000
  H   H1190     1.0  0.18718  0.76750  0.34221  1.0000
  H   H1191     1.0  0.99159  0.64471  0.34209  1.0000
  H   H1192     1.0  0.43669  0.48776  0.31842  1.0000
  H   H1193     1.0  0.03114  0.73963  0.31804  1.0000
  H   H1194     1.0  0.98141  0.53130  0.32534  1.0000
  C   C1491     1.0  0.15125  0.69816  0.31860  1.0000
  C   C1492     1.0  0.31522  0.97960  0.38789  1.0000
  H   H1195     1.0  0.31409  0.97271  0.39758  1.0000
  H   H1196     1.0  0.25684  0.97067  0.34785  1.0000
  C   C1493     1.0  0.11763  0.77855  0.47904  1.0000
  C   C1494     1.0  0.10334  0.75242  0.47741  1.0000
  C   C1495     1.0  0.13488  0.73455  0.31571  1.0000
  C   C1496     1.0  0.07692  0.54630  0.31517  1.0000
  H   H1197     1.0  0.35870  0.95255  0.32732  1.0000
  H   H1198     1.0  0.21198  0.97710  0.34793  1.0000
  C   C1497     1.0  0.29950  0.95965  0.31733  1.0000
  C   C1498     1.0  0.32195  0.95115  0.31775  1.0000
  H   H1199     1.0  0.16011  0.68489  0.31476  1.0000
  Fe  Fe94      1.0  0.24937  0.95246  0.60902  1.0000
  S   S196      1.0  0.20440  0.94282  0.61214  1.0000
  S   S197      1.0  0.27116  0.95450  0.59031  1.0000
  Fe  Fe95      1.0  0.26173  0.95633  0.63743  1.0000
  Fe  Fe96      1.0  0.20771  0.91573  0.62803  1.0000
  S   S198      1.0  0.18214  0.87222  0.62987  1.0000
  C   C1499     1.0  0.09068  0.82620  0.59803  1.0000
  S   S199      1.0  0.25268  0.92397  0.62420  1.0000
  H   H1200     1.0  0.10732  0.97022  0.53132  1.0000
  Fe  Fe97      1.0  0.03352  0.75987  0.62545  1.0000
  S   S200      1.0  0.04775  0.72549  0.62449  1.0000
  S   S201      1.0  0.05550  0.80105  0.63159  1.0000
  C   C1500     1.0  0.20639  0.88295  0.59816  1.0000
  S   S202      1.0  0.00384  0.70582  0.50238  1.0000
  Fe  Fe98      1.0  0.00484  0.70059  0.63116  1.0000
  Fe  Fe99      1.0  0.03111  0.72297  0.60498  1.0000
  S   S203      1.0  0.05556  0.71687  0.58863  1.0000
  S   S204      1.0  0.01918  0.75818  0.60571  1.0000
  Fe  Fe100     1.0  0.22481  0.94784  0.51596  1.0000
  S   S205      1.0  0.18465  0.95293  0.51940  1.0000
  H   H1201     1.0  0.14715  0.72083  0.55065  1.0000
  Fe  Fe101     1.0  0.21023  0.93273  0.48871  1.0000
  S   S206      1.0  0.99755  0.75807  0.51442  1.0000
  H   H1202     1.0  0.20752  0.80115  0.50513  1.0000
  Fe  Fe102     1.0  0.16683  0.91607  0.50966  1.0000
  S   S207      1.0  0.13337  0.88346  0.51942  1.0000
  H   H1203     1.0  0.21425  0.88017  0.60726  1.0000
  S   S208      1.0  0.20684  0.90990  0.50705  1.0000
  Fe  Fe103     1.0  0.01618  0.77853  0.49628  1.0000
  S   S209      1.0  0.04988  0.76180  0.49606  1.0000
  C   C1501     1.0  0.37088  0.97954  0.64337  1.0000
  C   C1502     1.0  0.05204  0.66081  0.61930  1.0000
  H   H1204     1.0  0.09303  0.80813  0.60129  1.0000
  Fe  Fe104     1.0  0.02918  0.73880  0.51345  1.0000
  S   S210      1.0  0.05583  0.73323  0.52937  1.0000
  C   C1503     1.0  0.07915  0.67913  0.63711  1.0000
  C   C1504     1.0  0.13535  0.91610  0.60763  1.0000
  C   C1505     1.0  0.18636  0.89053  0.57476  1.0000
  C   C1506     1.0  0.10433  0.86657  0.51119  1.0000
  C   C1507     1.0  0.09123  0.84030  0.51440  1.0000
  C   C1508     1.0  0.06714  0.82636  0.50851  1.0000
  C   C1509     1.0  0.05575  0.83878  0.49954  1.0000
  C   C1510     1.0  0.06853  0.86525  0.49651  1.0000
  C   C1511     1.0  0.09315  0.87909  0.50216  1.0000
  H   H1205     1.0  0.09983  0.83067  0.52143  1.0000
  H   H1206     1.0  0.05718  0.80609  0.51107  1.0000
  C   C1512     1.0  0.18110  0.88660  0.59716  1.0000
  H   H1207     1.0  0.10306  0.89948  0.49978  1.0000
  C   C1513     1.0  0.05286  0.72159  0.57224  1.0000
  C   C1514     1.0  0.03239  0.72934  0.56639  1.0000
  H   H1208     1.0  0.13787  0.85812  0.54555  1.0000
  C   C1515     1.0  0.05267  0.72846  0.54587  1.0000
  C   C1516     1.0  0.07278  0.72080  0.55185  1.0000
  C   C1517     1.0  0.07284  0.71732  0.56482  1.0000
  Fe  Fe105     1.0  0.02124  0.73065  0.48497  1.0000
  C   C1518     1.0  0.18430  0.81281  0.49085  1.0000
  H   H1209     1.0  0.08843  0.71730  0.54635  1.0000
  H   H1210     1.0  0.08866  0.71130  0.56915  1.0000
  C   C1519     1.0  0.14664  0.85329  0.62963  1.0000
  C   C1520     1.0  0.12602  0.86336  0.63234  1.0000
  C   C1521     1.0  0.09832  0.84719  0.63271  1.0000
  C   C1522     1.0  0.09074  0.82077  0.63032  1.0000
  S   S211      1.0  0.21682  0.94605  0.64235  1.0000
  C   C1523     1.0  0.99015  0.82654  0.62247  1.0000
  C   C1524     1.0  0.26374  0.95198  0.57412  1.0000
  C   C1525     1.0  0.23850  0.95062  0.56885  1.0000
  C   C1526     1.0  0.23520  0.94997  0.55570  1.0000
  C   C1527     1.0  0.25720  0.95083  0.54784  1.0000
  H   H1211     1.0  0.11409  0.78701  0.48748  1.0000
  S   S212      1.0  0.16833  0.93540  0.49075  1.0000
  H   H1212     1.0  0.22173  0.95018  0.57489  1.0000
  H   H1213     1.0  0.21589  0.94896  0.55166  1.0000
  C   C1528     1.0  0.06206  0.85271  0.59526  1.0000
  H   H1214     1.0  0.17065  0.95299  0.54571  1.0000
  H   H1215     1.0  0.15482  0.81882  0.62523  1.0000
  C   C1529     1.0  0.06131  0.79860  0.54166  1.0000
  C   C1530     1.0  0.05223  0.81382  0.54935  1.0000
  C   C1531     1.0  0.06845  0.82598  0.55910  1.0000
  C   C1532     1.0  0.09425  0.82377  0.56084  1.0000
  C   C1533     1.0  0.10377  0.80890  0.55301  1.0000
  C   C1534     1.0  0.08689  0.79601  0.54350  1.0000
  P   P54       1.0  0.13724  0.80649  0.55550  1.0000
  C   C1535     1.0  0.16417  0.83553  0.54989  1.0000
  C   C1536     1.0  0.13968  0.80024  0.57206  1.0000
  C   C1537     1.0  0.11842  0.78053  0.57836  1.0000
  C   C1538     1.0  0.11971  0.77552  0.59118  1.0000
  C   C1539     1.0  0.14200  0.79045  0.59786  1.0000
  C   C1540     1.0  0.16307  0.81039  0.59171  1.0000
  C   C1541     1.0  0.16195  0.81532  0.57885  1.0000
  H   H1216     1.0  0.24200  0.88187  0.58834  1.0000
  H   H1217     1.0  0.23319  0.85772  0.54447  1.0000
  C   C1542     1.0  0.22193  0.88365  0.58750  1.0000
  C   C1543     1.0  0.13594  0.95921  0.61149  1.0000
  C   C1544     1.0  0.09734  0.69225  0.61604  1.0000
  C   C1545     1.0  0.14135  0.78070  0.54686  1.0000
  C   C1546     1.0  0.14319  0.75810  0.55291  1.0000
  C   C1547     1.0  0.14636  0.73846  0.54595  1.0000
  H   H1218     1.0  0.99087  0.79430  0.57022  1.0000
  H   H1219     1.0  0.13131  0.92777  0.53330  1.0000
  C   C1548     1.0  0.14759  0.74118  0.53295  1.0000
  H   H1220     1.0  0.04854  0.78859  0.53425  1.0000
  H   H1221     1.0  0.03263  0.81615  0.54775  1.0000
  H   H1222     1.0  0.06098  0.83708  0.56529  1.0000
  H   H1223     1.0  0.10679  0.83354  0.56832  1.0000
  H   H1224     1.0  0.09302  0.78374  0.53750  1.0000
  S   S213      1.0  0.25615  0.95110  0.53124  1.0000
  C   C1549     1.0  0.13243  0.92258  0.54310  1.0000
  H   H1225     1.0  0.04236  0.85514  0.59633  1.0000
  C   C1550     1.0  0.03221  0.73266  0.55317  1.0000
  H   H1226     1.0  0.17831  0.83108  0.57437  1.0000
  H   H1227     1.0  0.19592  0.81855  0.55248  1.0000
  H   H1228     1.0  0.13242  0.92950  0.62587  1.0000
  H   H1229     1.0  0.08193  0.89151  0.58776  1.0000
  H   H1230     1.0  0.10080  0.76894  0.57335  1.0000
  C   C1551     1.0  0.18878  0.82752  0.51183  1.0000
  H   H1231     1.0  0.14182  0.75530  0.56293  1.0000
  C   C1552     1.0  0.08449  0.87320  0.59042  1.0000
  S   S214      1.0  0.99025  0.69563  0.61139  1.0000
  H   H1232     1.0  0.01127  0.82851  0.62436  1.0000
  H   H1233     1.0  0.10320  0.76017  0.59594  1.0000
  H   H1234     1.0  0.13328  0.89683  0.61128  1.0000
  C   C1553     1.0  0.06521  0.82928  0.59912  1.0000
  C   C1554     1.0  0.19475  0.81269  0.50283  1.0000
  C   C1555     1.0  0.20663  0.87979  0.54073  1.0000
  H   H1235     1.0  0.01680  0.73273  0.57200  1.0000
  H   H1236     1.0  0.09522  0.88998  0.54306  1.0000
  H   H1237     1.0  0.29909  0.95243  0.54736  1.0000
  C   C1556     1.0  0.11132  0.81076  0.62743  1.0000
  C   C1557     1.0  0.13429  0.93444  0.61594  1.0000
  H   H1238     1.0  0.11024  0.97148  0.55431  1.0000
  S   S215      1.0  0.02584  0.82116  0.49196  1.0000
  C   C1558     1.0  0.11322  0.84669  0.59325  1.0000
  C   C1559     1.0  0.13883  0.92252  0.59478  1.0000
  C   C1560     1.0  0.13565  0.90831  0.56832  1.0000
  C   C1561     1.0  0.11024  0.87033  0.58936  1.0000
  P   P55       1.0  0.13934  0.89796  0.58426  1.0000
  H   H1239     1.0  0.34970  0.97419  0.62601  1.0000
  H   H1240     1.0  0.22297  0.89689  0.53714  1.0000
  C   C1562     1.0  0.15627  0.92958  0.56261  1.0000
  H   H1241     1.0  0.16965  0.88619  0.60555  1.0000
  C   C1563     1.0  0.21234  0.85769  0.54484  1.0000
  H   H1242     1.0  0.07071  0.67454  0.60125  1.0000
  C   C1564     1.0  0.17214  0.84223  0.50888  1.0000
  C   C1565     1.0  0.07327  0.67552  0.61124  1.0000
  H   H1243     1.0  0.10591  0.79049  0.62565  1.0000
  C   C1566     1.0  0.15461  0.93667  0.55007  1.0000
  H   H1244     1.0  0.18012  0.82225  0.59695  1.0000
  H   H1245     1.0  0.16736  0.85354  0.51590  1.0000
  C   C1567     1.0  0.15856  0.85776  0.54564  1.0000
  H   H1246     1.0  0.17545  0.89693  0.53781  1.0000
  C   C1568     1.0  0.13998  0.94741  0.59037  1.0000
  C   C1569     1.0  0.13835  0.96555  0.59871  1.0000
  S   S216      1.0  0.98884  0.74903  0.48403  1.0000
  C   C1570     1.0  0.11192  0.90134  0.54865  1.0000
  H   H1247     1.0  0.03297  0.64855  0.61557  1.0000
  H   H1248     1.0  0.14897  0.85421  0.49487  1.0000
  H   H1249     1.0  0.09756  0.87761  0.56527  1.0000
  H   H1250     1.0  0.17393  0.94035  0.56782  1.0000
  H   H1251     1.0  0.14171  0.80074  0.52895  1.0000
  C   C1571     1.0  0.14611  0.76374  0.52688  1.0000
  H   H1252     1.0  0.04810  0.81369  0.60329  1.0000
  C   C1572     1.0  0.13905  0.82689  0.62718  1.0000
  H   H1253     1.0  0.01656  0.73866  0.54867  1.0000
  H   H1254     1.0  0.05953  0.87497  0.48970  1.0000
  H   H1255     1.0  0.13289  0.84414  0.59285  1.0000
  H   H1256     1.0  0.22398  0.88802  0.56751  1.0000
  C   C1573     1.0  0.14327  0.78352  0.53380  1.0000
  H   H1257     1.0  0.17919  0.89321  0.56557  1.0000
  C   C1574     1.0  0.28516  0.95230  0.56617  1.0000
  H   H1258     1.0  0.14169  0.95295  0.58057  1.0000
  H   H1259     1.0  0.14279  0.78672  0.60782  1.0000
  C   C1575     1.0  0.17981  0.87982  0.54114  1.0000
  S   S217      1.0  0.99175  0.73539  0.63348  1.0000
  C   C1576     1.0  0.28199  0.95188  0.55325  1.0000
  C   C1577     1.0  0.11345  0.89427  0.56123  1.0000
  C   C1578     1.0  0.17111  0.89113  0.58547  1.0000
  C   C1579     1.0  0.19121  0.83561  0.54938  1.0000
  C   C1580     1.0  0.21176  0.88713  0.57579  1.0000
  H   H1260     1.0  0.14927  0.72565  0.52757  1.0000
  C   C1581     1.0  0.10022  0.69423  0.62893  1.0000
  H   H1261     1.0  0.99453  0.86516  0.62739  1.0000
  Fe  Fe106     1.0  0.19028  0.97196  0.50016  1.0000
  H   H1262     1.0  0.11337  0.70424  0.60973  1.0000
  H   H1263     1.0  0.11856  0.70802  0.63247  1.0000
  S   S218      1.0  0.98952  0.66098  0.64251  1.0000
  H   H1264     1.0  0.19692  0.82757  0.52110  1.0000
  C   C1582     1.0  0.05490  0.66270  0.63217  1.0000
  C   C1583     1.0  0.16182  0.84260  0.49688  1.0000
  H   H1265     1.0  0.14659  0.76571  0.51679  1.0000
  H   H1266     1.0  0.97947  0.78707  0.61723  1.0000
  C   C1584     1.0  0.16807  0.82804  0.48773  1.0000
  H   H1267     1.0  0.98420  0.67647  0.55173  1.0000
  H   H1268     1.0  0.13148  0.88342  0.63451  1.0000
  H   H1269     1.0  0.08266  0.85515  0.63504  1.0000
  S   S219      1.0  0.23253  0.97045  0.49724  1.0000
  H   H1270     1.0  0.13549  0.97350  0.61799  1.0000
  H   H1271     1.0  0.30465  0.95319  0.57005  1.0000
  Fe  Fe107     1.0  0.21686  0.97375  0.62610  1.0000
  H   H1272     1.0  0.03784  0.65182  0.63821  1.0000
  Fe  Fe108     1.0  0.97926  0.73112  0.61353  1.0000
  H   H1273     1.0  0.12412  0.66426  0.64572  1.0000
  H   H1274     1.0  0.99240  0.77956  0.54882  1.0000
  H   H1275     1.0  0.08883  0.74082  0.48445  1.0000
  H   H1276     1.0  0.18898  0.80115  0.48397  1.0000
  C   C1585     1.0  0.98066  0.84712  0.62419  1.0000
  C   C1586     1.0  0.15215  0.70787  0.67330  1.0000
  C   C1587     1.0  0.05773  0.75743  0.65647  1.0000
  H   H1277     1.0  0.05417  0.67987  0.67792  1.0000
  C   C1588     1.0  0.29730  0.95747  0.70307  1.0000
  H   H1278     1.0  0.18876  0.69841  0.67091  1.0000
  H   H1279     1.0  0.01350  0.59811  0.68358  1.0000
  C   C1589     1.0  0.06001  0.65695  0.66306  1.0000
  H   H1280     1.0  0.11331  0.71360  0.67370  1.0000
  H   H1281     1.0  0.02959  0.69198  0.65889  1.0000
  C   C1590     1.0  0.05475  0.63163  0.65936  1.0000
  C   C1591     1.0  0.33196  0.97429  0.67125  1.0000
  H   H1282     1.0  0.02433  0.64236  0.69069  1.0000
  C   C1592     1.0  0.03800  0.73293  0.65850  1.0000
  H   H1283     1.0  0.01693  0.73106  0.66036  1.0000
  C   C1593     1.0  0.04967  0.66065  0.67462  1.0000
  C   C1594     1.0  0.12581  0.70447  0.66902  1.0000
  H   H1284     1.0  0.17619  0.96818  0.71844  1.0000
  C   C1595     1.0  0.03306  0.63945  0.68198  1.0000
  P   P56       1.0  0.08152  0.68439  0.65357  1.0000
  H   H1285     1.0  0.11297  0.73986  0.65052  1.0000
  S   S220      1.0  0.29498  0.95938  0.65222  1.0000
  H   H1286     1.0  0.32988  0.95403  0.67217  1.0000
  C   C1596     1.0  0.15822  0.68020  0.65760  1.0000
  H   H1287     1.0  0.33524  0.95615  0.71062  1.0000
  H   H1288     1.0  0.05199  0.77461  0.65675  1.0000
  H   H1289     1.0  0.35537  0.96332  0.64815  1.0000
  C   C1597     1.0  0.07246  0.71298  0.65524  1.0000
  C   C1598     1.0  0.28095  0.97274  0.70061  1.0000
  C   C1599     1.0  0.02701  0.61442  0.67799  1.0000
  C   C1600     1.0  0.03800  0.61049  0.66673  1.0000
  C   C1601     1.0  0.16839  0.69582  0.66756  1.0000
  C   C1602     1.0  0.11570  0.68926  0.65886  1.0000
  H   H1290     1.0  0.03326  0.59104  0.66367  1.0000
  C   C1603     1.0  0.19656  0.98109  0.72034  1.0000
  H   H1291     1.0  0.29053  0.93758  0.70042  1.0000
  C   C1604     1.0  0.04528  0.71079  0.65775  1.0000
  H   H1292     1.0  0.15990  0.71974  0.68111  1.0000
  H   H1293     1.0  0.98294  0.67573  0.66816  1.0000
  C   C1605     1.0  0.08473  0.75980  0.65367  1.0000
  C   C1606     1.0  0.13189  0.67677  0.65330  1.0000
  H   H1294     1.0  0.26133  0.96418  0.69633  1.0000
  H   H1295     1.0  0.17068  0.67060  0.65326  1.0000
  C   C1607     1.0  0.32244  0.96789  0.70883  1.0000
  H   H1296     1.0  0.06333  0.62817  0.65075  1.0000
  H   H1297     1.0  0.09979  0.77885  0.65177  1.0000
  C   C1608     1.0  0.09210  0.73767  0.65300  1.0000
  C   C1609     1.0  0.97753  0.64299  0.65707  1.0000
  H   H1298     1.0  0.18853  0.98104  0.74000  1.0000
  H   H1299     1.0  0.02846  0.56822  0.97759  1.0000
  H   H1300     1.0  0.46845  0.90683  0.87751  1.0000
  C   C1610     1.0  0.46959  0.48598  0.95684  1.0000
  H   H1301     1.0  0.44936  0.48565  0.95946  1.0000
  C   C1611     1.0  0.46616  0.93761  0.97641  1.0000
  C   C1612     1.0  0.41084  0.93110  0.97233  1.0000
  H   H1302     1.0  0.38950  0.92904  0.97104  1.0000
  H   H1303     1.0  0.00118  0.49607  0.97627  1.0000
  H   H1304     1.0  0.03989  0.49476  0.96320  1.0000
  H   H1305     1.0  0.42583  0.96734  0.96156  1.0000
  C   C1613     1.0  0.43129  0.95270  0.96701  1.0000
  C   C1614     1.0  0.41794  0.91233  0.97938  1.0000
  H   H1306     1.0  0.33473  0.92258  0.97879  1.0000
  C   C1615     1.0  0.45877  0.95572  0.96890  1.0000
  H   H1307     1.0  0.47439  0.97242  0.96466  1.0000
  C   C1616     1.0  0.99764  0.48254  0.96896  1.0000
  S   S221      1.0  0.36039  0.97693  0.97223  1.0000
  C   C1617     1.0  0.01939  0.48192  0.96150  1.0000
  H   H1308     1.0  0.74109  0.04866  0.01615  1.0000
  C   C1618     1.0  0.81524  0.15318  0.98671  1.0000
  C   C1619     1.0  0.70533  0.10239  0.99746  1.0000
  H   H1309     1.0  0.73954  0.12557  0.02094  1.0000
  H   H1310     1.0  0.92306  0.28532  0.99797  1.0000
  H   H1311     1.0  0.74833  0.04362  0.03864  1.0000
  C   C1620     1.0  0.48281  0.33870  0.99423  1.0000
  H   H1312     1.0  0.74711  0.12030  0.04346  1.0000
  C   C1621     1.0  0.54979  0.99304  0.00428  1.0000
  C   C1622     1.0  0.97226  0.38428  0.04690  1.0000
  C   C1623     1.0  0.48662  0.43288  0.98977  1.0000
  C   C1624     1.0  0.83247  0.42789  0.98307  1.0000
  C   C1625     1.0  0.51393  0.46454  0.04659  1.0000
  C   C1626     1.0  0.49797  0.47402  0.14623  1.0000
  C   C1627     1.0  0.78941  0.10921  0.99395  1.0000
  H   H1313     1.0  0.55409  0.43463  0.02942  1.0000
  P   P57       1.0  0.73403  0.09170  0.00052  1.0000
  H   H1314     1.0  0.68680  0.09164  0.01588  1.0000
  H   H1315     1.0  0.59209  0.40596  0.05950  1.0000
  H   H1316     1.0  0.64039  0.11966  0.98929  1.0000
  C   C1628     1.0  0.67864  0.11800  0.98251  1.0000
  C   C1629     1.0  0.65869  0.11528  0.99167  1.0000
  C   C1630     1.0  0.49795  0.35104  0.04600  1.0000
  C   C1631     1.0  0.68512  0.09952  0.00662  1.0000
  H   H1317     1.0  0.47904  0.23883  0.99242  1.0000
  C   C1632     1.0  0.74539  0.10456  0.03750  1.0000
  H   H1318     1.0  0.60611  0.44889  0.06865  1.0000
  C   C1633     1.0  0.74102  0.10746  0.02476  1.0000
  H   H1319     1.0  0.95714  0.35442  0.01965  1.0000
  H   H1320     1.0  0.50475  0.02469  0.99826  1.0000
  H   H1321     1.0  0.79292  0.17976  0.98564  1.0000
  C   C1634     1.0  0.70175  0.11139  0.98537  1.0000
  H   H1322     1.0  0.51153  0.36042  0.02163  1.0000
  P   P58       1.0  0.96144  0.40207  0.00521  1.0000
  C   C1635     1.0  0.95776  0.43354  0.00259  1.0000
  H   H1323     1.0  0.90405  0.38208  0.01319  1.0000
  H   H1324     1.0  0.67605  0.00232  0.99319  1.0000
  H   H1325     1.0  0.52605  0.33968  0.05773  1.0000
  H   H1326     1.0  0.84742  0.39618  0.98655  1.0000
  C   C1636     1.0  0.58824  0.46619  0.05415  1.0000
  H   H1327     1.0  0.49995  0.99440  0.12633  1.0000
  H   H1328     1.0  0.74946  0.14737  0.99294  1.0000
  C   C1637     1.0  0.69439  0.01809  0.99032  1.0000
  H   H1329     1.0  0.53590  0.37752  0.07080  1.0000
  H   H1330     1.0  0.48480  0.98787  0.98549  1.0000
  H   H1331     1.0  0.54139  0.99095  0.13668  1.0000
  C   C1638     1.0  0.72589  0.06165  0.99286  1.0000
  C   C1639     1.0  0.96498  0.39531  0.02161  1.0000
  H   H1332     1.0  0.96370  0.34497  0.04179  1.0000
  H   H1333     1.0  0.95546  0.36230  0.98689  1.0000
  H   H1334     1.0  0.54667  0.02875  0.01025  1.0000
  C   C1640     1.0  0.49035  0.39047  0.05109  1.0000
  H   H1335     1.0  0.48958  0.28295  0.99992  1.0000
  H   H1336     1.0  0.62273  0.99712  0.99447  1.0000
  C   C1641     1.0  0.70298  0.04055  0.99696  1.0000
  C   C1642     1.0  0.73877  0.08718  0.01697  1.0000
  C   C1643     1.0  0.50581  0.42470  0.99625  1.0000
  H   H1337     1.0  0.75134  0.07930  0.05238  1.0000
  H   H1338     1.0  0.91097  0.46247  0.99481  1.0000
  C   C1644     1.0  0.74783  0.08149  0.04252  1.0000
  H   H1339     1.0  0.52093  0.44884  0.04960  1.0000
  H   H1340     1.0  0.97578  0.38008  0.05658  1.0000
  H   H1341     1.0  0.49340  0.41823  0.02648  1.0000
  C   C1645     1.0  0.58679  0.42163  0.05494  1.0000
  H   H1342     1.0  0.52278  0.34556  0.00174  1.0000
  H   H1343     1.0  0.92581  0.46548  0.02432  1.0000
  C   C1646     1.0  0.74175  0.06423  0.02202  1.0000
  C   C1647     1.0  0.56551  0.43799  0.03796  1.0000
  H   H1344     1.0  0.69111  0.04186  0.00501  1.0000
  C   C1648     1.0  0.97524  0.40953  0.04263  1.0000
  C   C1649     1.0  0.51644  0.35411  0.05573  1.0000
  C   C1650     1.0  0.76561  0.11574  0.99484  1.0000
  C   C1651     1.0  0.76718  0.14146  0.99206  1.0000
  C   C1652     1.0  0.59101  0.48006  0.01386  1.0000
  C   C1653     1.0  0.49574  0.35399  0.01482  1.0000
  H   H1345     1.0  0.83218  0.12254  0.98873  1.0000
  H   H1346     1.0  0.87010  0.31849  0.98975  1.0000
  C   C1654     1.0  0.74608  0.06137  0.03478  1.0000
  H   H1347     1.0  0.49300  0.33386  0.04071  1.0000
  C   C1655     1.0  0.50881  0.39348  0.06083  1.0000
  H   H1348     1.0  0.64617  0.10354  0.01073  1.0000
  C   C1656     1.0  0.95656  0.30330  0.01021  1.0000
  H   H1349     1.0  0.86434  0.34606  0.00636  1.0000
  H   H1350     1.0  0.91469  0.41944  0.99811  1.0000
  H   H1351     1.0  0.89255  0.46782  0.04033  1.0000
  H   H1352     1.0  0.94412  0.29684  0.01859  1.0000
  H   H1353     1.0  0.78884  0.08968  0.99636  1.0000
  C   C1657     1.0  0.53759  0.01204  0.00481  1.0000
  C   C1658     1.0  0.93256  0.43613  0.99947  1.0000
  H   H1354     1.0  0.84484  0.43944  0.99016  1.0000
  C   C1659     1.0  0.48766  0.46340  0.05017  1.0000
  H   H1355     1.0  0.60676  0.47803  0.02000  1.0000
  C   C1660     1.0  0.94449  0.29670  0.99848  1.0000
  C   C1661     1.0  0.96539  0.36449  0.03859  1.0000
  C   C1662     1.0  0.81404  0.12780  0.98974  1.0000
  C   C1663     1.0  0.93247  0.37584  0.00009  1.0000
  C   C1664     1.0  0.93037  0.46069  0.99750  1.0000
  C   C1665     1.0  0.79191  0.16005  0.98802  1.0000
  C   C1666     1.0  0.51397  0.00973  0.99810  1.0000
  C   C1667     1.0  0.96030  0.30429  0.98750  1.0000
  C   C1668     1.0  0.51576  0.40668  0.99123  1.0000
  C   C1669     1.0  0.50235  0.34586  0.00350  1.0000
  C   C1670     1.0  0.90671  0.37044  0.00580  1.0000
  C   C1671     1.0  0.88422  0.34997  0.00203  1.0000
  C   C1672     1.0  0.88743  0.33439  0.99271  1.0000
  C   C1673     1.0  0.59472  0.44582  0.06009  1.0000
  C   C1674     1.0  0.93565  0.35960  0.99099  1.0000
  H   H1356     1.0  0.56592  0.39893  0.03992  1.0000
  H   H1357     1.0  0.51352  0.43281  0.00500  1.0000
  H   H1358     1.0  0.51245  0.40953  0.06681  1.0000
  H   H1359     1.0  0.53109  0.40073  0.99607  1.0000
  C   C1675     1.0  0.57211  0.41770  0.04390  1.0000
  C   C1676     1.0  0.57381  0.46247  0.04297  1.0000
  C   C1677     1.0  0.66194  0.10609  0.00373  1.0000
  C   C1678     1.0  0.52192  0.37536  0.06313  1.0000
  H   H1360     1.0  0.47974  0.44735  0.99370  1.0000
  C   C1679     1.0  0.48533  0.36959  0.04336  1.0000
  H   H1361     1.0  0.97296  0.45694  0.06944  1.0000
  C   C1680     1.0  0.96173  0.36994  0.02601  1.0000
  H   H1362     1.0  0.56830  0.99496  0.00936  1.0000
  C   C1681     1.0  0.91408  0.47338  0.04246  1.0000
  C   C1682     1.0  0.97160  0.41506  0.03004  1.0000
  C   C1683     1.0  0.91314  0.33913  0.98727  1.0000
  H   H1363     1.0  0.97474  0.47892  0.02886  1.0000
  H   H1364     1.0  0.83415  0.16756  0.98324  1.0000
  C   C1684     1.0  0.50267  0.98860  0.99077  1.0000
  C   C1685     1.0  0.93280  0.47201  0.03345  1.0000
  C   C1686     1.0  0.96063  0.47951  0.03611  1.0000
  C   C1687     1.0  0.57348  0.47954  0.99298  1.0000
  H   H1365     1.0  0.57571  0.47770  0.98307  1.0000
  H   H1366     1.0  0.47934  0.40394  0.04990  1.0000
  C   C1688     1.0  0.59340  0.47698  0.00114  1.0000
  H   H1367     1.0  0.61110  0.47325  0.99756  1.0000
  H   H1368     1.0  0.97428  0.43472  0.02695  1.0000
  H   H1369     1.0  0.48204  0.45773  0.02121  1.0000
  H   H1370     1.0  0.48795  0.33268  0.98541  1.0000
  C   C1689     1.0  0.73983  0.05997  0.98195  1.0000
  C   C1690     1.0  0.47918  0.44557  0.28608  1.0000
  P   P59       1.0  0.51008  0.47020  0.29090  1.0000
  C   C1691     1.0  0.92539  0.30816  0.22503  1.0000
  H   H1371     1.0  0.91427  0.29823  0.21720  1.0000
  C   C1692     1.0  0.70901  0.06598  0.29198  1.0000
  C   C1693     1.0  0.96812  0.33396  0.23405  1.0000
  C   C1694     1.0  0.66055  0.04803  0.28813  1.0000
  C   C1695     1.0  0.58015  0.43635  0.29408  1.0000
  H   H1372     1.0  0.49963  0.42328  0.27646  1.0000
  C   C1696     1.0  0.95424  0.33307  0.24535  1.0000
  C   C1697     1.0  0.68474  0.06927  0.28801  1.0000
  H   H1373     1.0  0.91540  0.31955  0.25513  1.0000
  C   C1698     1.0  0.48036  0.42511  0.27905  1.0000
  C   C1699     1.0  0.68485  0.02000  0.29630  1.0000
  H   H1374     1.0  0.88974  0.29772  0.23706  1.0000
  C   C1700     1.0  0.56742  0.44037  0.30484  1.0000
  C   C1701     1.0  0.71309  0.98912  0.27911  1.0000
  C   C1702     1.0  0.66057  0.02347  0.29224  1.0000
  C   C1703     1.0  0.91158  0.30782  0.23622  1.0000
  H   H1375     1.0  0.68467  0.08827  0.28482  1.0000
  C   C1704     1.0  0.53756  0.45697  0.29219  1.0000
  H   H1376     1.0  0.64173  0.05056  0.28503  1.0000
  C   C1705     1.0  0.92602  0.32018  0.24639  1.0000
  C   C1706     1.0  0.95361  0.32100  0.22396  1.0000
  H   H1377     1.0  0.54410  0.45747  0.27227  1.0000
  H   H1378     1.0  0.73440  0.98928  0.26189  1.0000
  H   H1379     1.0  0.72778  0.08244  0.29186  1.0000
  H   H1380     1.0  0.59658  0.42841  0.29482  1.0000
  H   H1381     1.0  0.71941  0.00999  0.27888  1.0000
  C   C1707     1.0  0.54620  0.45060  0.30392  1.0000
  H   H1382     1.0  0.64158  0.00736  0.29222  1.0000
  H   H1383     1.0  0.96411  0.32056  0.21532  1.0000
  H   H1384     1.0  0.53667  0.45347  0.31240  1.0000
  C   C1708     1.0  0.70911  0.04146  0.29609  1.0000
  H   H1385     1.0  0.72816  0.03924  0.29905  1.0000
  C   C1709     1.0  0.57166  0.44255  0.28238  1.0000
  H   H1386     1.0  0.96523  0.34207  0.25340  1.0000
  C   C1710     1.0  0.55045  0.45278  0.28142  1.0000
  P   P60       1.0  0.68532  0.98839  0.30157  1.0000
  H   H1387     1.0  0.58151  0.43940  0.27403  1.0000
  H   H1388     1.0  0.49364  0.45367  0.14873  1.0000
  C   C1711     1.0  0.70885  0.99205  0.31428  1.0000
  H   H1389     1.0  0.57398  0.43554  0.31392  1.0000
  C   C1712     1.0  0.75873  0.03338  0.38961  1.0000
  C   C1713     1.0  0.83496  0.13898  0.41097  1.0000
  H   H1390     1.0  0.70585  0.04516  0.37487  1.0000
  H   H1391     1.0  0.87022  0.04082  0.39325  1.0000
  S   S222      1.0  0.80406  0.02265  0.36638  1.0000
  C   C1714     1.0  0.83504  0.04570  0.40188  1.0000
  H   H1392     1.0  0.77764  0.99608  0.41158  1.0000
  H   H1393     1.0  0.87060  0.03788  0.42289  1.0000
  S   S223      1.0  0.93954  0.18538  0.40596  1.0000
  H   H1394     1.0  0.91634  0.06432  0.41792  1.0000
  H   H1395     1.0  0.91966  0.07947  0.39568  1.0000
  H   H1396     1.0  0.83014  0.00765  0.46487  1.0000
  Fe  Fe109     1.0  0.95590  0.13381  0.37103  1.0000
  S   S224      1.0  0.93115  0.09244  0.36587  1.0000
  S   S225      1.0  0.94526  0.17044  0.37094  1.0000
  H   H1397     1.0  0.84396  0.06652  0.40105  1.0000
  C   C1715     1.0  0.85025  0.03113  0.39753  1.0000
  C   C1716     1.0  0.83953  0.04141  0.36705  1.0000
  C   C1717     1.0  0.84724  0.06826  0.36845  1.0000
  C   C1718     1.0  0.87507  0.08409  0.36846  1.0000
  C   C1719     1.0  0.89566  0.07332  0.36691  1.0000
  C   C1720     1.0  0.88791  0.04643  0.36568  1.0000
  C   C1721     1.0  0.86011  0.03054  0.36583  1.0000
  H   H1398     1.0  0.83157  0.07694  0.36934  1.0000
  H   H1399     1.0  0.88054  0.10474  0.36924  1.0000
  H   H1400     1.0  0.90356  0.03784  0.36441  1.0000
  H   H1401     1.0  0.85460  0.01000  0.36470  1.0000
  C   C1722     1.0  0.94646  0.18189  0.44867  1.0000
  C   C1723     1.0  0.94236  0.18244  0.42237  1.0000
  C   C1724     1.0  0.93018  0.19639  0.42942  1.0000
  C   C1725     1.0  0.93238  0.19627  0.44237  1.0000
  H   H1402     1.0  0.91939  0.20792  0.42479  1.0000
  H   H1403     1.0  0.92327  0.20772  0.44757  1.0000
  S   S226      1.0  0.94919  0.18465  0.46504  1.0000
  C   C1726     1.0  0.90328  0.10967  0.39880  1.0000
  Fe  Fe110     1.0  0.96163  0.17345  0.39048  1.0000
  C   C1727     1.0  0.76076  0.04843  0.39994  1.0000
  S   S227      1.0  0.97004  0.13625  0.39083  1.0000
  H   H1404     1.0  0.88907  0.13964  0.40477  1.0000
  H   H1405     1.0  0.82799  0.13546  0.43080  1.0000
  C   C1728     1.0  0.74421  0.02820  0.42861  1.0000
  C   C1729     1.0  0.95620  0.16747  0.42856  1.0000
  C   C1730     1.0  0.93039  0.06739  0.45671  1.0000
  C   C1731     1.0  0.79801  0.00612  0.40779  1.0000
  H   H1406     1.0  0.95757  0.05943  0.47020  1.0000
  C   C1732     1.0  0.91126  0.08865  0.40254  1.0000
  H   H1407     1.0  0.84119  0.08458  0.44289  1.0000
  H   H1408     1.0  0.88392  0.12413  0.42680  1.0000
  C   C1733     1.0  0.73898  0.03222  0.38062  1.0000
  C   C1734     1.0  0.81000  0.09880  0.42246  1.0000
  H   H1409     1.0  0.77266  0.02290  0.38825  1.0000
  H   H1410     1.0  0.80164  0.08891  0.43125  1.0000
  C   C1735     1.0  0.72298  0.06113  0.39213  1.0000
  H   H1411     1.0  0.81304  0.08978  0.39142  1.0000
  C   C1736     1.0  0.82463  0.12536  0.42224  1.0000
  C   C1737     1.0  0.81617  0.09952  0.40010  1.0000
  H   H1412     1.0  0.83873  0.13663  0.39116  1.0000
  H   H1413     1.0  0.73019  0.02752  0.42113  1.0000
  C   C1738     1.0  0.80860  0.03327  0.40691  1.0000
  H   H1414     1.0  0.74281  0.01031  0.45949  1.0000
  C   C1739     1.0  0.83930  0.00415  0.39817  1.0000
  H   H1415     1.0  0.69711  0.02184  0.32264  1.0000
  C   C1740     1.0  0.73354  0.01835  0.44049  1.0000
  H   H1416     1.0  0.71165  0.01028  0.44208  1.0000
  H   H1417     1.0  0.74457  0.07472  0.40884  1.0000
  P   P61       1.0  0.78706  0.05132  0.41132  1.0000
  H   H1418     1.0  0.90565  0.11678  0.38913  1.0000
  C   C1741     1.0  0.80612  0.08556  0.41141  1.0000
  C   C1742     1.0  0.74696  0.99971  0.33348  1.0000
  H   H1419     1.0  0.82229  0.10913  0.45673  1.0000
  C   C1743     1.0  0.83088  0.99842  0.44574  1.0000
  H   H1420     1.0  0.86464  0.05064  0.46192  1.0000
  C   C1744     1.0  0.83061  0.12608  0.39990  1.0000
  C   C1745     1.0  0.89361  0.12237  0.40762  1.0000
  C   C1746     1.0  0.74292  0.06254  0.40107  1.0000
  H   H1421     1.0  0.92083  0.11956  0.45853  1.0000
  H   H1422     1.0  0.95101  0.11028  0.43160  1.0000
  C   C1747     1.0  0.77264  0.03833  0.42654  1.0000
  H   H1423     1.0  0.84653  0.15952  0.41082  1.0000
  H   H1424     1.0  0.73803  0.02092  0.37255  1.0000
  H   H1425     1.0  0.81199  0.04460  0.43493  1.0000
  H   H1426     1.0  0.70931  0.07210  0.39304  1.0000
  C   C1748     1.0  0.79008  0.03764  0.43642  1.0000
  C   C1749     1.0  0.72102  0.04598  0.38189  1.0000
  C   C1750     1.0  0.77931  0.02801  0.44830  1.0000
  H   H1427     1.0  0.79272  0.02775  0.45598  1.0000
  H   H1428     1.0  0.90145  0.14329  0.47238  1.0000
  C   C1751     1.0  0.75108  0.01833  0.45032  1.0000
  C   C1752     1.0  0.95799  0.16697  0.44176  1.0000
  H   H1429     1.0  0.76185  0.00287  0.34084  1.0000
  C   C1753     1.0  0.84380  0.11144  0.45699  1.0000
  C   C1754     1.0  0.86074  0.12790  0.46535  1.0000
  C   C1755     1.0  0.88840  0.13062  0.46583  1.0000
  C   C1756     1.0  0.89928  0.11697  0.45795  1.0000
  C   C1757     1.0  0.88228  0.10004  0.44967  1.0000
  C   C1758     1.0  0.85455  0.09759  0.44916  1.0000
  P   P62       1.0  0.89506  0.08038  0.44012  1.0000
  C   C1759     1.0  0.92819  0.08154  0.44574  1.0000
  C   C1760     1.0  0.87097  0.04770  0.44221  1.0000
  C   C1761     1.0  0.85910  0.03863  0.45402  1.0000
  C   C1762     1.0  0.83935  0.01413  0.45576  1.0000
  H   H1430     1.0  0.85079  0.99294  0.39441  1.0000
  C   C1763     1.0  0.84263  0.00709  0.43398  1.0000
  C   C1764     1.0  0.86251  0.03163  0.43217  1.0000
  C   C1765     1.0  0.90925  0.08013  0.41510  1.0000
  H   H1431     1.0  0.91242  0.05493  0.46177  1.0000
  C   C1766     1.0  0.95210  0.09845  0.43981  1.0000
  C   C1767     1.0  0.89825  0.09201  0.42395  1.0000
  C   C1768     1.0  0.89093  0.11356  0.42014  1.0000
  C   C1769     1.0  0.72952  0.01423  0.33267  1.0000
  H   H1432     1.0  0.85250  0.13850  0.47153  1.0000
  C   C1770     1.0  0.81328  0.99166  0.40339  1.0000
  H   H1433     1.0  0.96843  0.15538  0.44658  1.0000
  C   C1771     1.0  0.95607  0.06993  0.46156  1.0000
  C   C1772     1.0  0.48302  0.47272  0.32646  1.0000
  H   H1434     1.0  0.68519  0.98280  0.41583  1.0000
  H   H1435     1.0  0.96550  0.15647  0.42318  1.0000
  C   C1773     1.0  0.71049  0.01041  0.32313  1.0000
  H   H1436     1.0  0.73086  0.02849  0.33944  1.0000
  H   H1437     1.0  0.83607  0.99479  0.42625  1.0000
  C   C1774     1.0  0.48718  0.46407  0.31488  1.0000
  H   H1438     1.0  0.68968  0.98868  0.39279  1.0000
  H   H1439     1.0  0.87340  0.07847  0.48111  1.0000
  C   C1775     1.0  0.79290  0.00855  0.56781  1.0000
  C   C1776     1.0  0.84283  0.13547  0.62746  1.0000
  Fe  Fe111     1.0  0.96848  0.16722  0.51057  1.0000
  C   C1777     1.0  0.89040  0.15895  0.63131  1.0000
  S   S228      1.0  0.94510  0.15412  0.61445  1.0000
  S   S229      1.0  0.92437  0.09202  0.63696  1.0000
  H   H1440     1.0  0.77294  0.99370  0.56892  1.0000
  C   C1778     1.0  0.84482  0.04664  0.56485  1.0000
  H   H1441     1.0  0.91104  0.13885  0.64300  1.0000
  Fe  Fe112     1.0  0.96638  0.16790  0.48151  1.0000
  C   C1779     1.0  0.86603  0.15748  0.62541  1.0000
  H   H1442     1.0  0.86401  0.11702  0.55496  1.0000
  Fe  Fe113     1.0  0.95649  0.12552  0.62682  1.0000
  H   H1443     1.0  0.82405  0.13449  0.62280  1.0000
  S   S230      1.0  0.96151  0.07866  0.49675  1.0000
  S   S231      1.0  0.94045  0.14171  0.49694  1.0000
  C   C1780     1.0  0.87043  0.04137  0.48974  1.0000
  C   C1781     1.0  0.88484  0.02645  0.49533  1.0000
  C   C1782     1.0  0.91313  0.03766  0.49718  1.0000
  C   C1783     1.0  0.92688  0.06361  0.49334  1.0000
  P   P63       1.0  0.87819  0.07118  0.56309  1.0000
  H   H1444     1.0  0.88484  0.02020  0.56709  1.0000
  C   C1784     1.0  0.91262  0.07787  0.48713  1.0000
  C   C1785     1.0  0.88786  0.06409  0.52587  1.0000
  H   H1445     1.0  0.86815  0.03912  0.54154  1.0000
  H   H1446     1.0  0.86520  0.17340  0.61924  1.0000
  C   C1786     1.0  0.90257  0.03475  0.57066  1.0000
  C   C1787     1.0  0.96086  0.18506  0.55360  1.0000
  C   C1788     1.0  0.87827  0.12035  0.59038  1.0000
  C   C1789     1.0  0.81270  0.01046  0.57684  1.0000
  S   S232      1.0  0.83491  0.02933  0.48799  1.0000
  C   C1790     1.0  0.87245  0.02729  0.61329  1.0000
  C   C1791     1.0  0.89477  0.04730  0.60791  1.0000
  C   C1792     1.0  0.91038  0.06764  0.61501  1.0000
  C   C1793     1.0  0.90400  0.06777  0.62763  1.0000
  C   C1794     1.0  0.88141  0.04798  0.63299  1.0000
  C   C1795     1.0  0.86553  0.02783  0.62581  1.0000
  H   H1447     1.0  0.90018  0.04690  0.59825  1.0000
  H   H1448     1.0  0.92774  0.08285  0.61081  1.0000
  C   C1796     1.0  0.86862  0.11606  0.64104  1.0000
  H   H1449     1.0  0.84834  0.01248  0.63001  1.0000
  H   H1450     1.0  0.49334  0.08062  0.64522  1.0000
  H   H1451     1.0  0.80821  0.99708  0.58496  1.0000
  H   H1452     1.0  0.78346  0.02433  0.55035  1.0000
  C   C1797     1.0  0.87172  0.14014  0.58394  1.0000
  C   C1798     1.0  0.92870  0.07945  0.57412  1.0000
  H   H1453     1.0  0.92417  0.02649  0.50191  1.0000
  C   C1799     1.0  0.51983  0.04422  0.62823  1.0000
  S   S233      1.0  0.85408  0.00169  0.60416  1.0000
  H   H1454     1.0  0.50035  0.00370  0.62534  1.0000
  C   C1800     1.0  0.87610  0.09852  0.57111  1.0000
  C   C1801     1.0  0.82463  0.04502  0.55594  1.0000
  H   H1455     1.0  0.53809  0.04584  0.62290  1.0000
  C   C1802     1.0  0.86841  0.11791  0.56480  1.0000
  C   C1803     1.0  0.97075  0.14961  0.54481  1.0000
  C   C1804     1.0  0.90382  0.08908  0.52167  1.0000
  H   H1456     1.0  0.87408  0.00663  0.49854  1.0000
  C   C1805     1.0  0.86660  0.13883  0.57118  1.0000
  H   H1457     1.0  0.85266  0.18497  0.64467  1.0000
  H   H1458     1.0  0.92480  0.12803  0.52676  1.0000
  H   H1459     1.0  0.88509  0.08425  0.58919  1.0000
  H   H1460     1.0  0.92070  0.00670  0.57727  1.0000
  C   C1806     1.0  0.88014  0.05873  0.53843  1.0000
  H   H1461     1.0  0.88209  0.12121  0.60029  1.0000
  S   S234      1.0  0.74392  0.98774  0.63961  1.0000
  C   C1807     1.0  0.90469  0.10342  0.54264  1.0000
  H   H1462     1.0  0.90984  0.09315  0.51195  1.0000
  H   H1463     1.0  0.87057  0.15646  0.58884  1.0000
  H   H1464     1.0  0.96183  0.03949  0.58549  1.0000
  H   H1465     1.0  0.88156  0.04888  0.51934  1.0000
  H   H1466     1.0  0.91209  0.11877  0.54903  1.0000
  C   C1808     1.0  0.94911  0.07169  0.57974  1.0000
  H   H1467     1.0  0.93140  0.09990  0.57327  1.0000
  C   C1809     1.0  0.81995  0.05765  0.60445  1.0000
  C   C1810     1.0  0.79379  0.05193  0.59959  1.0000
  C   C1811     1.0  0.77343  0.05727  0.60626  1.0000
  C   C1812     1.0  0.77916  0.06827  0.61783  1.0000
  C   C1813     1.0  0.80540  0.07395  0.62279  1.0000
  C   C1814     1.0  0.82580  0.06874  0.61596  1.0000
  P   P64       1.0  0.81346  0.08680  0.63796  1.0000
  C   C1815     1.0  0.51768  0.06581  0.63385  1.0000
  H   H1468     1.0  0.92795  0.23990  0.64471  1.0000
  C   C1816     1.0  0.88018  0.09949  0.58402  1.0000
  C   C1817     1.0  0.88444  0.06695  0.48554  1.0000
  H   H1469     1.0  0.92327  0.09739  0.48357  1.0000
  C   C1818     1.0  0.83840  0.02966  0.57545  1.0000
  C   C1819     1.0  0.49858  0.02050  0.62961  1.0000
  C   C1820     1.0  0.92303  0.02703  0.57631  1.0000
  C   C1821     1.0  0.91226  0.10870  0.53005  1.0000
  C   C1822     1.0  0.96329  0.17167  0.54311  1.0000
  H   H1470     1.0  0.82877  0.05845  0.54785  1.0000
  S   S235      1.0  0.95608  0.18246  0.52810  1.0000
  C   C1823     1.0  0.84379  0.11488  0.63554  1.0000
  H   H1471     1.0  0.80652  0.03143  0.63579  1.0000
  S   S236      1.0  0.96291  0.21560  0.63356  1.0000
  C   C1824     1.0  0.96634  0.17672  0.56564  1.0000
  H   H1472     1.0  0.86135  0.15408  0.56619  1.0000
  C   C1825     1.0  0.90491  0.06097  0.56986  1.0000
  H   H1473     1.0  0.83563  0.05304  0.59944  1.0000
  H   H1474     1.0  0.78921  0.04307  0.59072  1.0000
  H   H1475     1.0  0.75307  0.05254  0.60254  1.0000
  H   H1476     1.0  0.76304  0.07206  0.62284  1.0000
  H   H1477     1.0  0.84613  0.07276  0.61966  1.0000
  C   C1826     1.0  0.88793  0.07852  0.54686  1.0000
  C   C1827     1.0  0.89177  0.13813  0.63895  1.0000
  H   H1478     1.0  0.53434  0.08413  0.63290  1.0000
  S   S237      1.0  0.77520  0.98209  0.60882  1.0000
  C   C1828     1.0  0.79884  0.02586  0.55737  1.0000
  H   H1479     1.0  0.96473  0.18733  0.57362  1.0000
  C   C1829     1.0  0.49428  0.06373  0.64084  1.0000
  Fe  Fe114     1.0  0.81006  0.98734  0.49186  1.0000
  H   H1480     1.0  0.85335  0.03122  0.58262  1.0000
  H   H1481     1.0  0.90843  0.17602  0.62977  1.0000
  H   H1482     1.0  0.95490  0.20206  0.55238  1.0000
  H   H1483     1.0  0.81018  0.13592  0.64700  1.0000
  C   C1830     1.0  0.78629  0.09553  0.64490  1.0000
  C   C1831     1.0  0.94620  0.04548  0.58094  1.0000
  H   H1484     1.0  0.96702  0.08610  0.58329  1.0000
  H   H1485     1.0  0.69850  0.98130  0.61555  1.0000
  Fe  Fe115     1.0  0.97198  0.12198  0.49637  1.0000
  S   S238      1.0  0.76548  0.98209  0.49335  1.0000
  H   H1486     1.0  0.87634  0.04808  0.64274  1.0000
  Fe  Fe116     1.0  0.97644  0.18377  0.62548  1.0000
  C   C1832     1.0  0.97400  0.15472  0.56726  1.0000
  H   H1487     1.0  0.97228  0.13891  0.53686  1.0000
  C   C1833     1.0  0.81269  0.03688  0.64514  1.0000
  C   C1834     1.0  0.97583  0.14108  0.55682  1.0000
  H   H1488     1.0  0.87046  0.09992  0.64673  1.0000
  H   H1489     1.0  0.75772  0.05636  0.64559  1.0000
  C   C1835     1.0  0.76113  0.07617  0.64786  1.0000
  S   S239      1.0  0.70022  0.04371  0.79972  1.0000
  S   S240      1.0  0.93766  0.29313  0.80260  1.0000
  H   H1490     1.0  0.71170  0.02726  0.77588  1.0000
  Fe  Fe117     1.0  0.92332  0.28761  0.72615  1.0000
  S   S241      1.0  0.88133  0.28950  0.72345  1.0000
  S   S242      1.0  0.95011  0.29934  0.74317  1.0000
  Fe  Fe118     1.0  0.92498  0.26612  0.69980  1.0000
  S   S243      1.0  0.88287  0.26702  0.69546  1.0000
  C   C1836     1.0  0.57644  0.01713  0.74350  1.0000
  Fe  Fe119     1.0  0.89652  0.30613  0.70418  1.0000
  S   S244      1.0  0.88476  0.34003  0.69576  1.0000
  Fe  Fe120     1.0  0.87149  0.25070  0.71508  1.0000
  S   S245      1.0  0.83687  0.21530  0.72255  1.0000
  S   S246      1.0  0.93939  0.30623  0.70720  1.0000
  S   S247      1.0  0.91269  0.24794  0.71907  1.0000
  S   S248      1.0  0.93866  0.46121  0.70402  1.0000
  Fe  Fe121     1.0  0.70115  0.04331  0.70130  1.0000
  S   S249      1.0  0.69187  0.07091  0.68745  1.0000
  S   S250      1.0  0.71785  0.01191  0.69511  1.0000
  Fe  Fe122     1.0  0.68979  0.07162  0.72376  1.0000
  S   S251      1.0  0.68095  0.10150  0.71090  1.0000
  S   S252      1.0  0.68340  0.08088  0.74388  1.0000
  Fe  Fe123     1.0  0.65605  0.06809  0.70008  1.0000
  S   S253      1.0  0.61586  0.06876  0.69153  1.0000
  Fe  Fe124     1.0  0.71726  0.10179  0.69960  1.0000
  S   S254      1.0  0.74806  0.13737  0.68983  1.0000
  S   S255      1.0  0.66319  0.03783  0.71325  1.0000
  S   S256      1.0  0.72828  0.07454  0.71308  1.0000
  H   H1491     1.0  0.49869  0.46043  0.80205  1.0000
  C   C1837     1.0  0.58366  0.06212  0.69921  1.0000
  C   C1838     1.0  0.56363  0.07061  0.69342  1.0000
  C   C1839     1.0  0.53731  0.06455  0.69885  1.0000
  C   C1840     1.0  0.53052  0.04936  0.71000  1.0000
  C   C1841     1.0  0.55049  0.04086  0.71576  1.0000
  C   C1842     1.0  0.57701  0.04745  0.71051  1.0000
  H   H1492     1.0  0.56851  0.08186  0.68466  1.0000
  H   H1493     1.0  0.52211  0.07103  0.69423  1.0000
  H   H1494     1.0  0.54527  0.02892  0.72429  1.0000
  H   H1495     1.0  0.59208  0.04060  0.71501  1.0000
  C   C1843     1.0  0.57162  0.42515  0.70957  1.0000
  C   C1844     1.0  0.56281  0.40000  0.71528  1.0000
  C   C1845     1.0  0.53699  0.38199  0.71273  1.0000
  C   C1846     1.0  0.51973  0.38881  0.70432  1.0000
  C   C1847     1.0  0.52835  0.41409  0.69877  1.0000
  C   C1848     1.0  0.55406  0.43224  0.70144  1.0000
  H   H1496     1.0  0.57624  0.39420  0.72153  1.0000
  H   H1497     1.0  0.53063  0.36267  0.71707  1.0000
  H   H1498     1.0  0.51513  0.41960  0.69227  1.0000
  H   H1499     1.0  0.56058  0.45144  0.69693  1.0000
  C   C1849     1.0  0.89907  0.37340  0.69898  1.0000
  C   C1850     1.0  0.88627  0.39077  0.69433  1.0000
  C   C1851     1.0  0.89747  0.41751  0.69622  1.0000
  C   C1852     1.0  0.92196  0.42734  0.70261  1.0000
  C   C1853     1.0  0.93464  0.40995  0.70734  1.0000
  C   C1854     1.0  0.92316  0.38313  0.70566  1.0000
  H   H1500     1.0  0.86764  0.38351  0.68915  1.0000
  H   H1501     1.0  0.88754  0.43060  0.69244  1.0000
  H   H1502     1.0  0.95349  0.41735  0.71234  1.0000
  H   H1503     1.0  0.93306  0.36999  0.70938  1.0000
  C   C1855     1.0  0.81413  0.19316  0.71290  1.0000
  C   C1856     1.0  0.81042  0.19982  0.70048  1.0000
  C   C1857     1.0  0.79060  0.18226  0.69336  1.0000
  C   C1858     1.0  0.77413  0.15815  0.69869  1.0000
  C   C1859     1.0  0.77838  0.15126  0.71101  1.0000
  C   C1860     1.0  0.79840  0.16867  0.71806  1.0000
  H   H1504     1.0  0.82228  0.21872  0.69646  1.0000
  H   H1505     1.0  0.78747  0.18768  0.68382  1.0000
  H   H1506     1.0  0.76590  0.13270  0.71518  1.0000
  H   H1507     1.0  0.80115  0.16337  0.72766  1.0000
  C   C1861     1.0  0.64608  0.43001  0.78244  1.0000
  C   C1862     1.0  0.89238  0.18183  0.72275  1.0000
  H   H1508     1.0  0.90585  0.31282  0.67591  1.0000
  C   C1863     1.0  0.95173  0.23600  0.67408  1.0000
  H   H1509     1.0  0.63819  0.38462  0.66526  1.0000
  C   C1864     1.0  0.50394  0.15258  0.79880  1.0000
  H   H1510     1.0  0.71304  0.01726  0.64913  1.0000
  C   C1865     1.0  0.85442  0.15025  0.77540  1.0000
  H   H1511     1.0  0.68618  0.99282  0.79199  1.0000
  C   C1866     1.0  0.72651  0.00677  0.67961  1.0000
  C   C1867     1.0  0.71621  0.01635  0.66916  1.0000
  H   H1512     1.0  0.61832  0.03781  0.73776  1.0000
  P   P65       1.0  0.62230  0.36984  0.69150  1.0000
  H   H1513     1.0  0.70324  0.02784  0.67042  1.0000
  C   C1868     1.0  0.74486  0.10733  0.65741  1.0000
  C   C1869     1.0  0.93846  0.29350  0.78601  1.0000
  C   C1870     1.0  0.78663  0.26058  0.79538  1.0000
  C   C1871     1.0  0.94394  0.29633  0.75960  1.0000
  C   C1872     1.0  0.91820  0.29164  0.76529  1.0000
  C   C1873     1.0  0.91550  0.29034  0.77850  1.0000
  H   H1514     1.0  0.90059  0.28952  0.75956  1.0000
  H   H1515     1.0  0.89589  0.28736  0.78286  1.0000
  C   C1874     1.0  0.69582  0.05426  0.78417  1.0000
  C   C1875     1.0  0.68531  0.07425  0.78166  1.0000
  C   C1876     1.0  0.68186  0.08210  0.76928  1.0000
  C   C1877     1.0  0.68889  0.07015  0.75920  1.0000
  C   C1878     1.0  0.69967  0.05030  0.76167  1.0000
  C   C1879     1.0  0.70322  0.04250  0.77409  1.0000
  H   H1516     1.0  0.67977  0.08369  0.78924  1.0000
  H   H1517     1.0  0.67361  0.09754  0.76750  1.0000
  H   H1518     1.0  0.70528  0.04101  0.75401  1.0000
  H   H1519     1.0  0.75068  0.98351  0.68575  1.0000
  C   C1880     1.0  0.94594  0.34019  0.67863  1.0000
  C   C1881     1.0  0.61862  0.02862  0.79760  1.0000
  C   C1882     1.0  0.55081  0.99840  0.80379  1.0000
  H   H1520     1.0  0.53818  0.13032  0.78862  1.0000
  H   H1521     1.0  0.62285  0.35439  0.71800  1.0000
  P   P66       1.0  0.61390  0.41257  0.76177  1.0000
  C   C1883     1.0  0.64542  0.41850  0.75307  1.0000
  C   C1884     1.0  0.58923  0.38181  0.75791  1.0000
  C   C1885     1.0  0.59115  0.35856  0.76316  1.0000
  C   C1886     1.0  0.57219  0.33478  0.76018  1.0000
  C   C1887     1.0  0.55100  0.33399  0.75203  1.0000
  C   C1888     1.0  0.54895  0.35699  0.74676  1.0000
  C   C1889     1.0  0.56802  0.38077  0.74962  1.0000
  C   C1890     1.0  0.66318  0.44399  0.75066  1.0000
  C   C1891     1.0  0.68819  0.44881  0.74447  1.0000
  C   C1892     1.0  0.69572  0.42831  0.74059  1.0000
  C   C1893     1.0  0.67810  0.40289  0.74282  1.0000
  C   C1894     1.0  0.65306  0.39795  0.74905  1.0000
  C   C1895     1.0  0.60092  0.43861  0.75791  1.0000
  C   C1896     1.0  0.59590  0.12594  0.80938  1.0000
  C   C1897     1.0  0.57843  0.40900  0.67284  1.0000
  C   C1898     1.0  0.55516  0.44460  0.79632  1.0000
  H   H1522     1.0  0.53554  0.00077  0.75098  1.0000
  C   C1899     1.0  0.60036  0.44723  0.74545  1.0000
  C   C1900     1.0  0.92475  0.37567  0.78458  1.0000
  P   P67       1.0  0.78572  0.47716  0.78802  1.0000
  C   C1901     1.0  0.92073  0.44086  0.77892  1.0000
  C   C1902     1.0  0.85402  0.18702  0.65461  1.0000
  H   H1523     1.0  0.77503  0.19744  0.80386  1.0000
  H   H1524     1.0  0.60734  0.35883  0.76956  1.0000
  H   H1525     1.0  0.57377  0.31693  0.76429  1.0000
  H   H1526     1.0  0.52975  0.37548  0.80347  1.0000
  P   P68       1.0  0.87831  0.20323  0.76919  1.0000
  H   H1527     1.0  0.56600  0.39818  0.74530  1.0000
  H   H1528     1.0  0.65778  0.46021  0.75359  1.0000
  C   C1903     1.0  0.47930  0.20443  0.77445  1.0000
  H   H1529     1.0  0.71504  0.43224  0.73567  1.0000
  H   H1530     1.0  0.68389  0.38702  0.73970  1.0000
  H   H1531     1.0  0.63990  0.37813  0.75071  1.0000
  C   C1904     1.0  0.87970  0.43778  0.73959  1.0000
  H   H1532     1.0  0.52420  0.19936  0.75890  1.0000
  C   C1905     1.0  0.93481  0.46322  0.77150  1.0000
  H   H1533     1.0  0.59114  0.47465  0.73274  1.0000
  H   H1534     1.0  0.60746  0.43821  0.73811  1.0000
  H   H1535     1.0  0.94844  0.38657  0.67027  1.0000
  C   C1906     1.0  0.53984  0.34135  0.80128  1.0000
  C   C1907     1.0  0.53732  0.32050  0.79394  1.0000
  C   C1908     1.0  0.62115  0.39088  0.66741  1.0000
  S   S257      1.0  0.85860  0.26716  0.80838  1.0000
  C   C1909     1.0  0.60222  0.39678  0.78693  1.0000
  H   H1536     1.0  0.57906  0.39279  0.69132  1.0000
  H   H1537     1.0  0.63616  0.41674  0.81366  1.0000
  C   C1910     1.0  0.55909  0.03442  0.76072  1.0000
  H   H1538     1.0  0.85768  0.23469  0.78517  1.0000
  C   C1911     1.0  0.65755  0.34130  0.69054  1.0000
  C   C1912     1.0  0.93459  0.14719  0.66649  1.0000
  C   C1913     1.0  0.92048  0.44214  0.79192  1.0000
  H   H1539     1.0  0.54497  0.30532  0.79727  1.0000
  C   C1914     1.0  0.94732  0.39475  0.76497  1.0000
  C   C1915     1.0  0.81430  0.01769  0.65383  1.0000
  C   C1916     1.0  0.93942  0.23469  0.65216  1.0000
  C   C1917     1.0  0.92058  0.22854  0.75211  1.0000
  C   C1918     1.0  0.48389  0.17658  0.71658  1.0000
  H   H1540     1.0  0.71375  0.21894  0.80902  1.0000
  C   C1919     1.0  0.51335  0.33796  0.77849  1.0000
  C   C1920     1.0  0.51452  0.41213  0.78875  1.0000
  C   C1921     1.0  0.97189  0.21465  0.65925  1.0000
  H   H1541     1.0  0.67984  0.39678  0.68445  1.0000
  C   C1922     1.0  0.62111  0.33118  0.67556  1.0000
  C   C1923     1.0  0.96476  0.38024  0.76641  1.0000
  C   C1924     1.0  0.96210  0.36339  0.77689  1.0000
  C   C1925     1.0  0.73795  0.99469  0.65520  1.0000
  C   C1926     1.0  0.95101  0.20870  0.74329  1.0000
  H   H1542     1.0  0.52725  0.13523  0.73857  1.0000
  C   C1927     1.0  0.81586  0.45648  0.75093  1.0000
  C   C1928     1.0  0.88914  0.39906  0.73492  1.0000
  C   C1929     1.0  0.56887  0.33936  0.69837  1.0000
  C   C1930     1.0  0.58189  0.33016  0.72299  1.0000
  C   C1931     1.0  0.62947  0.98919  0.79642  1.0000
  C   C1932     1.0  0.55510  0.01597  0.75171  1.0000
  C   C1933     1.0  0.60186  0.03662  0.74423  1.0000
  C   C1934     1.0  0.96914  0.22202  0.67144  1.0000
  H   H1543     1.0  0.52144  0.30227  0.77702  1.0000
  H   H1544     1.0  0.85813  0.18543  0.79479  1.0000
  C   C1935     1.0  0.49864  0.42641  0.79292  1.0000
  C   C1936     1.0  0.91327  0.18318  0.75683  1.0000
  H   H1545     1.0  0.72683  0.40150  0.81378  1.0000
  H   H1546     1.0  0.94643  0.11560  0.66058  1.0000
  C   C1937     1.0  0.59105  0.46782  0.74239  1.0000
  C   C1938     1.0  0.93301  0.46566  0.79738  1.0000
  C   C1939     1.0  0.60613  0.05471  0.75332  1.0000
  H   H1547     1.0  0.88254  0.34249  0.80949  1.0000
  H   H1548     1.0  0.65881  0.43857  0.72098  1.0000
  C   C1940     1.0  0.93592  0.18505  0.74933  1.0000
  H   H1549     1.0  0.82454  0.45255  0.74242  1.0000
  H   H1550     1.0  0.72112  0.06709  0.65629  1.0000
  H   H1551     1.0  0.82108  0.14944  0.79994  1.0000
  H   H1552     1.0  0.47909  0.12389  0.67643  1.0000
  C   C1941     1.0  0.54545  0.08581  0.76950  1.0000
  C   C1942     1.0  0.93125  0.12111  0.66553  1.0000
  H   H1553     1.0  0.59343  0.44552  0.77697  1.0000
  H   H1554     1.0  0.93612  0.46268  0.76149  1.0000
  H   H1555     1.0  0.73497  0.43766  0.79807  1.0000
  C   C1943     1.0  0.81188  0.43944  0.76141  1.0000
  H   H1556     1.0  0.51502  0.04817  0.79524  1.0000
  C   C1944     1.0  0.52788  0.16919  0.74791  1.0000
  H   H1557     1.0  0.55549  0.41114  0.78709  1.0000
  C   C1945     1.0  0.62161  0.41247  0.77818  1.0000
  C   C1946     1.0  0.50009  0.38767  0.76461  1.0000
  P   P69       1.0  0.90389  0.41043  0.77201  1.0000
  C   C1947     1.0  0.59015  0.41339  0.66089  1.0000
  H   H1558     1.0  0.61328  0.04221  0.80310  1.0000
  C   C1948     1.0  0.52108  0.15360  0.80895  1.0000
  C   C1949     1.0  0.83426  0.12591  0.77471  1.0000
  H   H1559     1.0  0.60302  0.33394  0.67166  1.0000
  C   C1950     1.0  0.54290  0.42164  0.79035  1.0000
  C   C1951     1.0  0.62319  0.03364  0.78480  1.0000
  C   C1952     1.0  0.88138  0.42016  0.73101  1.0000
  C   C1953     1.0  0.80198  0.44526  0.77256  1.0000
  H   H1560     1.0  0.58893  0.06734  0.76876  1.0000
  C   C1954     1.0  0.74273  0.99121  0.67775  1.0000
  H   H1561     1.0  0.81727  0.42210  0.76098  1.0000
  C   C1955     1.0  0.49847  0.02087  0.76523  1.0000
  H   H1562     1.0  0.95241  0.16179  0.66229  1.0000
  C   C1956     1.0  0.80908  0.07627  0.69858  1.0000
  C   C1957     1.0  0.78534  0.07557  0.69232  1.0000
  C   C1958     1.0  0.78556  0.09612  0.68410  1.0000
  C   C1959     1.0  0.80960  0.11724  0.68191  1.0000
  C   C1960     1.0  0.83378  0.11775  0.68788  1.0000
  C   C1961     1.0  0.83319  0.09731  0.69642  1.0000
  P   P70       1.0  0.86515  0.14489  0.68534  1.0000
  C   C1962     1.0  0.85964  0.17006  0.67537  1.0000
  C   C1963     1.0  0.87642  0.15802  0.70023  1.0000
  C   C1964     1.0  0.85738  0.15414  0.71005  1.0000
  C   C1965     1.0  0.86546  0.16580  0.72130  1.0000
  H   H1563     1.0  0.52672  0.21673  0.78966  1.0000
  H   H1564     1.0  0.94993  0.40806  0.75691  1.0000
  C   C1966     1.0  0.90354  0.17415  0.70180  1.0000
  C   C1967     1.0  0.85801  0.19266  0.68030  1.0000
  C   C1968     1.0  0.85435  0.21221  0.67241  1.0000
  C   C1969     1.0  0.85243  0.20944  0.65958  1.0000
  C   C1970     1.0  0.51102  0.44957  0.79876  1.0000
  C   C1971     1.0  0.85754  0.16736  0.66248  1.0000
  C   C1972     1.0  0.89114  0.13536  0.67776  1.0000
  C   C1973     1.0  0.88789  0.10914  0.67662  1.0000
  C   C1974     1.0  0.90779  0.10210  0.67047  1.0000
  H   H1565     1.0  0.58699  0.32628  0.73247  1.0000
  C   C1975     1.0  0.52455  0.19896  0.79504  1.0000
  C   C1976     1.0  0.91450  0.15435  0.67242  1.0000
  H   H1566     1.0  0.80860  0.06057  0.70519  1.0000
  H   H1567     1.0  0.76656  0.05935  0.69402  1.0000
  H   H1568     1.0  0.76677  0.09596  0.67971  1.0000
  H   H1569     1.0  0.80891  0.13327  0.67582  1.0000
  H   H1570     1.0  0.85136  0.09778  0.70148  1.0000
  H   H1571     1.0  0.83601  0.14298  0.70894  1.0000
  H   H1572     1.0  0.85051  0.16347  0.72868  1.0000
  H   H1573     1.0  0.47814  0.00652  0.78308  1.0000
  H   H1574     1.0  0.91843  0.17856  0.69428  1.0000
  H   H1575     1.0  0.85955  0.19537  0.69021  1.0000
  H   H1576     1.0  0.85301  0.22954  0.67628  1.0000
  H   H1577     1.0  0.94190  0.16820  0.74828  1.0000
  C   C1977     1.0  0.97329  0.34982  0.67454  1.0000
  H   H1578     1.0  0.79456  0.24083  0.81196  1.0000
  H   H1579     1.0  0.86994  0.09398  0.68025  1.0000
  H   H1580     1.0  0.50198  0.40040  0.72858  1.0000
  H   H1581     1.0  0.53302  0.42456  0.76450  1.0000
  C   C1978     1.0  0.62141  0.00632  0.80339  1.0000
  H   H1582     1.0  0.91707  0.17472  0.67265  1.0000
  C   C1979     1.0  0.66930  0.17184  0.77897  1.0000
  C   C1980     1.0  0.65929  0.15944  0.79051  1.0000
  C   C1981     1.0  0.67689  0.15326  0.79893  1.0000
  C   C1982     1.0  0.70450  0.15922  0.79579  1.0000
  C   C1983     1.0  0.71453  0.17090  0.78405  1.0000
  C   C1984     1.0  0.69689  0.17782  0.77579  1.0000
  P   P71       1.0  0.75026  0.17936  0.78008  1.0000
  C   C1985     1.0  0.76588  0.21128  0.78576  1.0000
  C   C1986     1.0  0.76369  0.15550  0.78684  1.0000
  C   C1987     1.0  0.79084  0.16257  0.79080  1.0000
  C   C1988     1.0  0.80063  0.14387  0.79631  1.0000
  C   C1989     1.0  0.78373  0.11801  0.79759  1.0000
  C   C1990     1.0  0.75711  0.11073  0.79321  1.0000
  C   C1991     1.0  0.74713  0.12933  0.78779  1.0000
  C   C1992     1.0  0.75332  0.17785  0.76346  1.0000
  C   C1993     1.0  0.73451  0.15749  0.75736  1.0000
  C   C1994     1.0  0.73490  0.15733  0.74438  1.0000
  C   C1995     1.0  0.75422  0.17734  0.73743  1.0000
  C   C1996     1.0  0.77412  0.19673  0.74345  1.0000
  C   C1997     1.0  0.77391  0.19686  0.75646  1.0000
  C   C1998     1.0  0.48328  0.22063  0.71744  1.0000
  H   H1583     1.0  0.63795  0.15479  0.79295  1.0000
  H   H1584     1.0  0.87357  0.45406  0.73660  1.0000
  H   H1585     1.0  0.71793  0.15465  0.80252  1.0000
  H   H1586     1.0  0.70439  0.18773  0.76687  1.0000
  H   H1587     1.0  0.80435  0.18248  0.78985  1.0000
  C   C1999     1.0  0.50132  0.12541  0.75499  1.0000
  H   H1588     1.0  0.95515  0.24887  0.74014  1.0000
  H   H1589     1.0  0.74409  0.09067  0.79415  1.0000
  H   H1590     1.0  0.72640  0.12326  0.78446  1.0000
  H   H1591     1.0  0.75646  0.23145  0.76949  1.0000
  C   C2000     1.0  0.51901  0.41024  0.75897  1.0000
  H   H1592     1.0  0.71912  0.14195  0.76259  1.0000
  H   H1593     1.0  0.72005  0.14175  0.73971  1.0000
  H   H1594     1.0  0.75394  0.17762  0.72734  1.0000
  H   H1595     1.0  0.78968  0.21170  0.73800  1.0000
  H   H1596     1.0  0.78963  0.21187  0.76097  1.0000
  C   C2001     1.0  0.83512  0.35363  0.78584  1.0000
  H   H1597     1.0  0.83545  0.26690  0.78051  1.0000
  C   C2002     1.0  0.83652  0.26391  0.76063  1.0000
  H   H1598     1.0  0.52799  0.31433  0.70344  1.0000
  C   C2003     1.0  0.55519  0.31868  0.71890  1.0000
  C   C2004     1.0  0.96654  0.29932  0.76720  1.0000
  P   P72       1.0  0.49873  0.38191  0.78139  1.0000
  H   H1599     1.0  0.72168  0.98233  0.78053  1.0000
  C   C2005     1.0  0.82085  0.02358  0.66615  1.0000
  C   C2006     1.0  0.85826  0.23443  0.75347  1.0000
  C   C2007     1.0  0.65322  0.30786  0.67609  1.0000
  H   H1600     1.0  0.68428  0.31872  0.68999  1.0000
  C   C2008     1.0  0.52399  0.31876  0.78257  1.0000
  C   C2009     1.0  0.58253  0.47137  0.76420  1.0000
  H   H1601     1.0  0.87672  0.42289  0.72132  1.0000
  C   C2010     1.0  0.83182  0.39456  0.79136  1.0000
  C   C2011     1.0  0.89416  0.20875  0.78423  1.0000
  C   C2012     1.0  0.54106  0.19997  0.80541  1.0000
  C   C2013     1.0  0.51972  0.41475  0.74602  1.0000
  C   C2014     1.0  0.80954  0.47913  0.75153  1.0000
  C   C2015     1.0  0.87668  0.35684  0.81411  1.0000
  C   C2016     1.0  0.90537  0.20493  0.75826  1.0000
  H   H1602     1.0  0.63422  0.02043  0.76778  1.0000
  C   C2017     1.0  0.52171  0.98243  0.78215  1.0000
  C   C2018     1.0  0.80855  0.14437  0.76067  1.0000
  C   C2019     1.0  0.80108  0.44528  0.80522  1.0000
  H   H1603     1.0  0.86485  0.42860  0.78515  1.0000
  H   H1604     1.0  0.62600  0.06964  0.75391  1.0000
  H   H1605     1.0  0.66028  0.29306  0.67256  1.0000
  S   S258      1.0  0.95164  0.24730  0.68937  1.0000
  H   H1606     1.0  0.66927  0.14398  0.80795  1.0000
  H   H1607     1.0  0.50288  0.33603  0.76974  1.0000
  C   C2020     1.0  0.91145  0.18596  0.71303  1.0000
  C   C2021     1.0  0.82882  0.16865  0.76121  1.0000
  S   S259      1.0  0.60548  0.44590  0.71220  1.0000
  C   C2022     1.0  0.81811  0.06234  0.64869  1.0000
  H   H1608     1.0  0.79118  0.10363  0.80206  1.0000
  H   H1609     1.0  0.82787  0.08738  0.66410  1.0000
  C   C2023     1.0  0.86331  0.22801  0.76581  1.0000
  H   H1610     1.0  0.72913  0.11177  0.66252  1.0000
  C   C2024     1.0  0.52594  0.08940  0.79330  1.0000
  C   C2025     1.0  0.59570  0.35121  0.70244  1.0000
  C   C2026     1.0  0.58797  0.39550  0.68206  1.0000
  C   C2027     1.0  0.85681  0.40766  0.78529  1.0000
  C   C2028     1.0  0.76534  0.23327  0.77865  1.0000
  C   C2029     1.0  0.93623  0.24157  0.66442  1.0000
  H   H1611     1.0  0.92218  0.25157  0.66636  1.0000
  H   H1612     1.0  0.58281  0.38369  0.78397  1.0000
  H   H1613     1.0  0.82713  0.33269  0.78642  1.0000
  C   C2030     1.0  0.69555  0.42628  0.69747  1.0000
  C   C2031     1.0  0.95297  0.42562  0.67355  1.0000
  H   H1614     1.0  0.90486  0.08188  0.66930  1.0000
  H   H1615     1.0  0.53418  0.43228  0.74170  1.0000
  H   H1616     1.0  0.79975  0.43203  0.78059  1.0000
  H   H1617     1.0  0.93382  0.42450  0.66920  1.0000
  H   H1618     1.0  0.58282  0.42400  0.65378  1.0000
  C   C2032     1.0  0.92710  0.31960  0.67287  1.0000
  H   H1619     1.0  0.59245  0.38638  0.80645  1.0000
  C   C2033     1.0  0.49438  0.02618  0.75261  1.0000
  H   H1620     1.0  0.55993  0.03713  0.79600  1.0000
  C   C2034     1.0  0.51753  0.17868  0.75787  1.0000
  H   H1621     1.0  0.58552  0.11174  0.80280  1.0000
  C   C2035     1.0  0.85182  0.17188  0.76869  1.0000
  C   C2036     1.0  0.91846  0.21904  0.80759  1.0000
  H   H1622     1.0  0.90230  0.16484  0.76163  1.0000
  C   C2037     1.0  0.54697  0.10990  0.77365  1.0000
  H   H1623     1.0  0.74405  0.47206  0.76852  1.0000
  H   H1624     1.0  0.82652  0.27800  0.75860  1.0000
  C   C2038     1.0  0.82109  0.36757  0.79172  1.0000
  H   H1625     1.0  0.87070  0.35553  0.77521  1.0000
  H   H1626     1.0  0.54896  0.47646  0.80509  1.0000
  C   C2039     1.0  0.52875  0.36026  0.79733  1.0000
  C   C2040     1.0  0.87141  0.39371  0.77967  1.0000
  H   H1627     1.0  0.61957  0.30065  0.66349  1.0000
  H   H1628     1.0  0.83628  0.10931  0.77996  1.0000
  H   H1629     1.0  0.53614  0.31559  0.74979  1.0000
  C   C2041     1.0  0.84141  0.25758  0.77294  1.0000
  C   C2042     1.0  0.86005  0.36664  0.77969  1.0000
  C   C2043     1.0  0.50166  0.39676  0.73860  1.0000
  C   C2044     1.0  0.77913  0.45049  0.79948  1.0000
  C   C2045     1.0  0.53434  0.00897  0.78381  1.0000
  C   C2046     1.0  0.94336  0.23042  0.74472  1.0000
  C   C2047     1.0  0.85436  0.23942  0.77555  1.0000
  H   H1630     1.0  0.67016  0.44505  0.79841  1.0000
  H   H1631     1.0  0.93905  0.34896  0.68616  1.0000
  H   H1632     1.0  0.70521  0.45494  0.71127  1.0000
  C   C2048     1.0  0.74043  0.08212  0.65397  1.0000
  H   H1633     1.0  0.83029  0.05307  0.67942  1.0000
  H   H1634     1.0  0.77364  0.14593  0.65786  1.0000
  C   C2049     1.0  0.49831  0.16159  0.76625  1.0000
  H   H1635     1.0  0.82116  0.40530  0.79605  1.0000
  C   C2050     1.0  0.82591  0.04875  0.66980  1.0000
  C   C2051     1.0  0.77581  0.21417  0.79793  1.0000
  P   P73       1.0  0.53212  0.03228  0.77177  1.0000
  H   H1636     1.0  0.82637  0.18468  0.75568  1.0000
  C   C2052     1.0  0.78645  0.23873  0.80264  1.0000
  C   C2053     1.0  0.54870  0.32332  0.70660  1.0000
  C   C2054     1.0  0.94223  0.36124  0.78602  1.0000
  C   C2055     1.0  0.88635  0.43473  0.75202  1.0000
  C   C2056     1.0  0.75229  0.43425  0.80243  1.0000
  H   H1637     1.0  0.49380  0.00912  0.68565  1.0000
  C   C2057     1.0  0.60891  0.38576  0.67934  1.0000
  H   H1638     1.0  0.82144  0.00849  0.67292  1.0000
  C   C2058     1.0  0.82454  0.06809  0.66111  1.0000
  S   S260      1.0  0.48772  0.36635  0.70016  1.0000
  S   S261      1.0  0.49696  0.03877  0.71664  1.0000
  C   C2059     1.0  0.84467  0.25210  0.75092  1.0000
  H   H1639     1.0  0.84047  0.25657  0.74136  1.0000
  H   H1640     1.0  0.48807  0.02326  0.66403  1.0000
  H   H1641     1.0  0.53951  0.30589  0.72516  1.0000
  H   H1642     1.0  0.56210  0.41626  0.67505  1.0000
  H   H1643     1.0  0.77572  0.27478  0.77785  1.0000
  C   C2060     1.0  0.77591  0.25784  0.78341  1.0000
  C   C2061     1.0  0.66371  0.42880  0.71330  1.0000
  C   C2062     1.0  0.92110  0.22585  0.78514  1.0000
  C   C2063     1.0  0.52481  0.06531  0.78926  1.0000
  H   H1644     1.0  0.94036  0.34832  0.79421  1.0000
  H   H1645     1.0  0.79501  0.27960  0.79909  1.0000
  C   C2064     1.0  0.66676  0.32235  0.68590  1.0000
  S   S262      1.0  0.66205  0.08648  0.81431  1.0000
  C   C2065     1.0  0.77002  0.12662  0.65476  1.0000
  H   H1646     1.0  0.65571  0.17681  0.77247  1.0000
  H   H1647     1.0  0.66791  0.35192  0.69834  1.0000
  C   C2066     1.0  0.79583  0.46818  0.77329  1.0000
  H   H1648     1.0  0.90981  0.37409  0.79183  1.0000
  H   H1649     1.0  0.47912  0.21561  0.79349  1.0000
  H   H1650     1.0  0.56346  0.34221  0.68882  1.0000
  C   C2067     1.0  0.54934  0.01685  0.79461  1.0000
  C   C2068     1.0  0.61160  0.40444  0.65819  1.0000
  H   H1651     1.0  0.90130  0.37919  0.75025  1.0000
  H   H1652     1.0  0.87208  0.15216  0.78112  1.0000
  H   H1653     1.0  0.85881  0.15011  0.65852  1.0000
  C   C2069     1.0  0.63498  0.34619  0.68523  1.0000
  H   H1654     1.0  0.91044  0.42503  0.79789  1.0000
  C   C2070     1.0  0.89159  0.20226  0.80678  1.0000
  H   H1655     1.0  0.61756  0.00275  0.81330  1.0000
  H   H1656     1.0  0.62324  0.40123  0.71281  1.0000
  C   C2071     1.0  0.60213  0.34623  0.71478  1.0000
  C   C2072     1.0  0.96382  0.29779  0.78021  1.0000
  H   H1657     1.0  0.93265  0.23607  0.77697  1.0000
  C   C2073     1.0  0.53732  0.11170  0.78555  1.0000
  H   H1658     1.0  0.82191  0.45749  0.80300  1.0000
  C   C2074     1.0  0.64919  0.39537  0.69838  1.0000
  C   C2075     1.0  0.59207  0.45093  0.76727  1.0000
  H   H1659     1.0  0.54209  0.18249  0.74124  1.0000
  H   H1660     1.0  0.55489  0.21842  0.80818  1.0000
  H   H1661     1.0  0.62101  0.40825  0.64898  1.0000
  H   H1662     1.0  0.86448  0.22549  0.74582  1.0000
  C   C2076     1.0  0.89531  0.41423  0.75593  1.0000
  C   C2077     1.0  0.51957  0.14258  0.74640  1.0000
  H   H1663     1.0  0.89012  0.38525  0.72826  1.0000
  C   C2078     1.0  0.92653  0.39185  0.77384  1.0000
  H   H1664     1.0  0.51732  0.09058  0.80233  1.0000
  H   H1665     1.0  0.57966  0.15482  0.80208  1.0000
  H   H1666     1.0  0.53256  0.35643  0.74042  1.0000
  C   C2079     1.0  0.67528  0.40514  0.69270  1.0000
  C   C2080     1.0  0.63020  0.01622  0.77770  1.0000
  C   C2081     1.0  0.89579  0.39591  0.74737  1.0000
  H   H1667     1.0  0.57319  0.00317  0.73640  1.0000
  H   H1668     1.0  0.88477  0.44862  0.75850  1.0000
  C   C2082     1.0  0.64353  0.40750  0.70866  1.0000
  C   C2083     1.0  0.95744  0.22136  0.64943  1.0000
  C   C2084     1.0  0.68974  0.43816  0.70776  1.0000
  C   C2085     1.0  0.60752  0.39825  0.79968  1.0000
  C   C2086     1.0  0.51552  0.35886  0.78586  1.0000
  H   H1669     1.0  0.55504  0.12709  0.76751  1.0000
  C   C2087     1.0  0.59248  0.15006  0.80905  1.0000
  C   C2088     1.0  0.93318  0.23083  0.79677  1.0000
  C   C2089     1.0  0.87933  0.19739  0.79517  1.0000
  H   H1670     1.0  0.79075  0.14214  0.75497  1.0000
  H   H1671     1.0  0.79539  0.10425  0.76704  1.0000
  C   C2090     1.0  0.53926  0.45862  0.80049  1.0000
  C   C2091     1.0  0.65135  0.43135  0.79517  1.0000
  H   H1672     1.0  0.71564  0.43388  0.69305  1.0000
  H   H1673     1.0  0.93210  0.19924  0.71400  1.0000
  H   H1674     1.0  0.57702  0.45155  0.79783  1.0000
  C   C2092     1.0  0.81124  0.12301  0.76742  1.0000
  H   H1675     1.0  0.80231  0.35738  0.79689  1.0000
  H   H1676     1.0  0.95362  0.24472  0.79744  1.0000
  H   H1677     1.0  0.96200  0.46512  0.67835  1.0000
  H   H1678     1.0  0.91531  0.24571  0.75323  1.0000
  C   C2093     1.0  0.96890  0.44856  0.67866  1.0000
  C   C2094     1.0  0.53519  0.06343  0.77743  1.0000
  C   C2095     1.0  0.74756  0.41356  0.81127  1.0000
  H   H1679     1.0  0.66098  0.44302  0.77601  1.0000
  H   H1680     1.0  0.89805  0.19193  0.73121  1.0000
  C   C2096     1.0  0.63212  0.41546  0.80378  1.0000
  H   H1681     1.0  0.62208  0.05142  0.78046  1.0000
  C   C2097     1.0  0.63330  0.99402  0.78346  1.0000
  C   C2098     1.0  0.72168  0.01015  0.65709  1.0000
  H   H1682     1.0  0.55193  0.08464  0.76005  1.0000
  C   C2099     1.0  0.58495  0.05348  0.76161  1.0000
  C   C2100     1.0  0.74855  0.98532  0.66565  1.0000
  H   H1683     1.0  0.50487  0.20335  0.73027  1.0000
  H   H1684     1.0  0.48964  0.13404  0.79638  1.0000
  H   H1685     1.0  0.51147  0.03619  0.74637  1.0000
  C   C2101     1.0  0.50529  0.17533  0.79187  1.0000
  C   C2102     1.0  0.93564  0.30791  0.66322  1.0000
  H   H1686     1.0  0.96976  0.30695  0.65220  1.0000
  H   H1687     1.0  0.54925  0.34232  0.81033  1.0000
  C   C2103     1.0  0.96313  0.31655  0.65947  1.0000
  C   C2104     1.0  0.63033  0.31219  0.67096  1.0000
  H   H1688     1.0  0.70161  0.46851  0.74250  1.0000
  H   H1689     1.0  0.49509  0.10476  0.75388  1.0000
  C   C2105     1.0  0.49090  0.13480  0.76495  1.0000
  H   H1690     1.0  0.84974  0.22471  0.65350  1.0000
  H   H1691     1.0  0.86209  0.47862  0.76871  1.0000
  H   H1692     1.0  0.93235  0.46662  0.80741  1.0000
  C   C2106     1.0  0.73878  0.48109  0.77637  1.0000
  C   C2107     1.0  0.96121  0.40390  0.67440  1.0000
  C   C2108     1.0  0.48238  0.36947  0.75703  1.0000
  H   H1693     1.0  0.92094  0.29206  0.65873  1.0000
  S   S263      1.0  0.49240  0.25000  0.72489  1.0000
  H   H1694     1.0  0.56208  0.00453  0.81219  1.0000
  C   C2109     1.0  0.49210  0.20053  0.72217  1.0000
  H   H1695     1.0  0.80966  0.99806  0.65104  1.0000
  C   C2110     1.0  0.79628  0.42447  0.81397  1.0000
  C   C2111     1.0  0.48300  0.37414  0.74411  1.0000
  P   P74       1.0  0.48343  0.17376  0.77865  1.0000
  H   H1696     1.0  0.49060  0.16108  0.72026  1.0000
  C   C2112     1.0  0.79070  0.12079  0.64856  1.0000
  H   H1697     1.0  0.96863  0.21027  0.73753  1.0000
  H   H1698     1.0  0.97553  0.35209  0.77801  1.0000
  C   C2113     1.0  0.53925  0.17729  0.81236  1.0000
  H   H1699     1.0  0.52008  0.13607  0.81435  1.0000
  C   C2114     1.0  0.58224  0.47997  0.75177  1.0000
  S   S264      1.0  0.56597  0.44564  0.95043  1.0000
  S   S265      1.0  0.51814  0.32546  0.96449  1.0000
  H   H1700     1.0  0.93160  0.39290  0.92459  1.0000
  Fe  Fe125     1.0  0.63699  0.06934  0.95991  1.0000
  S   S266      1.0  0.61979  0.03178  0.95072  1.0000
  S   S267      1.0  0.61012  0.09072  0.96685  1.0000
  Fe  Fe126     1.0  0.69589  0.07291  0.95546  1.0000
  S   S268      1.0  0.68254  0.03441  0.94635  1.0000
  S   S269      1.0  0.74167  0.09667  0.95560  1.0000
  Fe  Fe127     1.0  0.65269  0.04943  0.93606  1.0000
  S   S270      1.0  0.63919  0.05070  0.91585  1.0000
  Fe  Fe128     1.0  0.65053  0.01969  0.96197  1.0000
  S   S271      1.0  0.66742  0.08809  0.94454  1.0000
  Fe  Fe129     1.0  0.84716  0.24471  0.95585  1.0000
  S   S272      1.0  0.88782  0.23865  0.95366  1.0000
  C   C2115     1.0  0.51599  0.40715  0.91166  1.0000
  Fe  Fe130     1.0  0.87034  0.30042  0.94498  1.0000
  S   S273      1.0  0.91175  0.29795  0.94167  1.0000
  S   S274      1.0  0.86107  0.33582  0.93784  1.0000
  Fe  Fe131     1.0  0.88951  0.25889  0.93464  1.0000
  S   S275      1.0  0.90095  0.24402  0.91676  1.0000
  Fe  Fe132     1.0  0.90703  0.27874  0.96108  1.0000
  S   S276      1.0  0.84826  0.26278  0.93657  1.0000
  S   S277      1.0  0.89789  0.43169  0.97159  1.0000
  C   C2116     1.0  0.79989  0.19637  0.92177  1.0000
  Fe  Fe133     1.0  0.68045  0.05734  0.84560  1.0000
  S   S278      1.0  0.65643  0.08436  0.84505  1.0000
  S   S279      1.0  0.69110  0.03983  0.86369  1.0000
  C   C2117     1.0  0.93062  0.41225  0.92356  1.0000
  H   H1701     1.0  0.88903  0.44367  0.91151  1.0000
  Fe  Fe134     1.0  0.68670  0.10662  0.83018  1.0000
  S   S280      1.0  0.70187  0.15001  0.83021  1.0000
  Fe  Fe135     1.0  0.63428  0.06146  0.82934  1.0000
  S   S281      1.0  0.58896  0.04576  0.82668  1.0000
  S   S282      1.0  0.71263  0.08117  0.83169  1.0000
  S   S283      1.0  0.65608  0.03279  0.83076  1.0000
  S   S284      1.0  0.52701  0.11935  0.84374  1.0000
  H   H1702     1.0  0.80091  0.47738  0.95450  1.0000
  C   C2118     1.0  0.52438  0.03306  0.88068  1.0000
  Fe  Fe136     1.0  0.87967  0.27902  0.84339  1.0000
  S   S285      1.0  0.83613  0.26411  0.83728  1.0000
  S   S286      1.0  0.88367  0.29173  0.86333  1.0000
  Fe  Fe137     1.0  0.85030  0.23927  0.82511  1.0000
  C   C2119     1.0  0.76720  0.29319  0.96016  1.0000
  Fe  Fe138     1.0  0.84944  0.29384  0.82141  1.0000
  H   H1703     1.0  0.63906  0.23893  0.84029  1.0000
  S   S287      1.0  0.89340  0.25231  0.83193  1.0000
  S   S288      1.0  0.89233  0.31048  0.82814  1.0000
  H   H1704     1.0  0.64344  0.42104  0.92030  1.0000
  Fe  Fe139     1.0  0.48772  0.27267  0.82830  1.0000
  S   S289      1.0  0.70246  0.46423  0.95779  1.0000
  C   C2120     1.0  0.92884  0.42060  0.87395  1.0000
  C   C2121     1.0  0.92892  0.43872  0.86423  1.0000
  C   C2122     1.0  0.86161  0.39496  0.82521  1.0000
  C   C2123     1.0  0.47830  0.46505  0.96028  1.0000
  H   H1705     1.0  0.84029  0.41426  0.90544  1.0000
  H   H1706     1.0  0.83566  0.33586  0.84697  1.0000
  H   H1707     1.0  0.85582  0.40955  0.82968  1.0000
  C   C2124     1.0  0.52458  0.43425  0.91153  1.0000
  C   C2125     1.0  0.73750  0.16315  0.82881  1.0000
  C   C2126     1.0  0.75130  0.18848  0.83215  1.0000
  C   C2127     1.0  0.77990  0.19896  0.83095  1.0000
  C   C2128     1.0  0.79459  0.18391  0.82655  1.0000
  H   H1708     1.0  0.58664  0.33592  0.87157  1.0000
  C   C2129     1.0  0.75228  0.14830  0.82444  1.0000
  H   H1709     1.0  0.73992  0.19991  0.83570  1.0000
  H   H1710     1.0  0.79045  0.21856  0.83339  1.0000
  C   C2130     1.0  0.53266  0.07722  0.87266  1.0000
  H   H1711     1.0  0.60272  0.18665  0.81737  1.0000
  C   C2131     1.0  0.57139  0.06547  0.83195  1.0000
  C   C2132     1.0  0.54693  0.06477  0.82631  1.0000
  C   C2133     1.0  0.53348  0.08159  0.82984  1.0000
  C   C2134     1.0  0.54436  0.09898  0.83906  1.0000
  C   C2135     1.0  0.56871  0.09955  0.84476  1.0000
  C   C2136     1.0  0.58212  0.08264  0.84130  1.0000
  C   C2137     1.0  0.51935  0.29940  0.87552  1.0000
  H   H1712     1.0  0.51483  0.08124  0.82530  1.0000
  H   H1713     1.0  0.57698  0.11273  0.85197  1.0000
  H   H1714     1.0  0.60081  0.08306  0.84579  1.0000
  C   C2138     1.0  0.59998  0.40181  0.83661  1.0000
  C   C2139     1.0  0.58760  0.41592  0.82903  1.0000
  C   C2140     1.0  0.60624  0.44618  0.90066  1.0000
  C   C2141     1.0  0.54427  0.38077  0.83107  1.0000
  C   C2142     1.0  0.55696  0.36588  0.83800  1.0000
  S   S290      1.0  0.82984  0.19660  0.82358  1.0000
  C   C2143     1.0  0.59697  0.01952  0.86092  1.0000
  H   H1715     1.0  0.58401  0.99357  0.89542  1.0000
  C   C2144     1.0  0.68442  0.22561  0.84134  1.0000
  C   C2145     1.0  0.77619  0.18151  0.91594  1.0000
  C   C2146     1.0  0.87333  0.36298  0.94685  1.0000
  C   C2147     1.0  0.86937  0.38607  0.94279  1.0000
  C   C2148     1.0  0.87741  0.40757  0.95018  1.0000
  C   C2149     1.0  0.88915  0.40585  0.96173  1.0000
  C   C2150     1.0  0.89355  0.38294  0.96569  1.0000
  C   C2151     1.0  0.88575  0.36153  0.95825  1.0000
  H   H1716     1.0  0.85982  0.38724  0.93397  1.0000
  H   H1717     1.0  0.87413  0.42527  0.94703  1.0000
  H   H1718     1.0  0.67696  0.22700  0.85058  1.0000
  H   H1719     1.0  0.88896  0.34380  0.96141  1.0000
  C   C2152     1.0  0.89511  0.25666  0.90191  1.0000
  C   C2153     1.0  0.89955  0.24521  0.89108  1.0000
  C   C2154     1.0  0.89549  0.25517  0.87915  1.0000
  C   C2155     1.0  0.88745  0.27701  0.87798  1.0000
  C   C2156     1.0  0.88278  0.28826  0.88881  1.0000
  C   C2157     1.0  0.88631  0.27802  0.90070  1.0000
  C   C2158     1.0  0.93504  0.35002  0.86293  1.0000
  C   C2159     1.0  0.74442  0.14772  0.95858  1.0000
  H   H1720     1.0  0.87643  0.30506  0.88799  1.0000
  H   H1721     1.0  0.88256  0.28684  0.90895  1.0000
  C   C2160     1.0  0.75853  0.13077  0.95620  1.0000
  C   C2161     1.0  0.78760  0.18425  0.95892  1.0000
  C   C2162     1.0  0.80161  0.16757  0.95594  1.0000
  C   C2163     1.0  0.78718  0.14096  0.95475  1.0000
  H   H1722     1.0  0.82367  0.17492  0.95504  1.0000
  H   H1723     1.0  0.79837  0.12813  0.95287  1.0000
  C   C2164     1.0  0.65664  0.05025  0.90175  1.0000
  C   C2165     1.0  0.67676  0.03868  0.90105  1.0000
  C   C2166     1.0  0.68771  0.03620  0.88937  1.0000
  C   C2167     1.0  0.67904  0.04567  0.87832  1.0000
  C   C2168     1.0  0.65984  0.05826  0.87911  1.0000
  C   C2169     1.0  0.64839  0.06012  0.89072  1.0000
  C   C2170     1.0  0.49671  0.02682  0.87763  1.0000
  C   C2171     1.0  0.86919  0.35758  0.85804  1.0000
  H   H1724     1.0  0.65282  0.06551  0.87074  1.0000
  H   H1725     1.0  0.63266  0.06883  0.89111  1.0000
  C   C2172     1.0  0.51956  0.04333  0.96384  1.0000
  C   C2173     1.0  0.53895  0.03098  0.96552  1.0000
  C   C2174     1.0  0.56663  0.04548  0.96668  1.0000
  C   C2175     1.0  0.57517  0.07247  0.96607  1.0000
  C   C2176     1.0  0.55571  0.08492  0.96464  1.0000
  C   C2177     1.0  0.52786  0.07034  0.96346  1.0000
  H   H1726     1.0  0.53258  0.01009  0.96592  1.0000
  H   H1727     1.0  0.58128  0.03571  0.96827  1.0000
  C   C2178     1.0  0.48720  0.40478  0.97324  1.0000
  H   H1728     1.0  0.51292  0.07995  0.96222  1.0000
  C   C2179     1.0  0.55516  0.41193  0.95350  1.0000
  C   C2180     1.0  0.53072  0.39682  0.94827  1.0000
  C   C2181     1.0  0.52015  0.37007  0.95103  1.0000
  C   C2182     1.0  0.53354  0.35824  0.95935  1.0000
  C   C2183     1.0  0.55864  0.37320  0.96423  1.0000
  C   C2184     1.0  0.56953  0.40004  0.96127  1.0000
  H   H1729     1.0  0.51972  0.40594  0.94218  1.0000
  H   H1730     1.0  0.50148  0.35873  0.94679  1.0000
  Fe  Fe140     1.0  0.68566  0.05935  0.81663  1.0000
  H   H1731     1.0  0.58851  0.41160  0.96530  1.0000
  S   S291      1.0  0.66643  0.05694  0.97180  1.0000
  C   C2185     1.0  0.79257  0.30952  0.95552  1.0000
  P   P75       1.0  0.63597  0.18404  0.83903  1.0000
  C   C2186     1.0  0.97110  0.34516  0.94742  1.0000
  C   C2187     1.0  0.64153  0.16626  0.85289  1.0000
  C   C2188     1.0  0.66734  0.16400  0.85498  1.0000
  C   C2189     1.0  0.67126  0.14830  0.86494  1.0000
  C   C2190     1.0  0.64956  0.13499  0.87306  1.0000
  C   C2191     1.0  0.62396  0.13759  0.87129  1.0000
  C   C2192     1.0  0.61996  0.15316  0.86127  1.0000
  H   H1732     1.0  0.48592  0.37103  0.91848  1.0000
  C   C2193     1.0  0.62649  0.42655  0.91685  1.0000
  H   H1733     1.0  0.55462  0.23132  0.84437  1.0000
  C   C2194     1.0  0.56307  0.19558  0.84456  1.0000
  C   C2195     1.0  0.58316  0.18414  0.84348  1.0000
  C   C2196     1.0  0.81593  0.43780  0.97563  1.0000
  H   H1734     1.0  0.83333  0.24104  0.87514  1.0000
  C   C2197     1.0  0.84215  0.19600  0.86127  1.0000
  C   C2198     1.0  0.90443  0.34347  0.91045  1.0000
  H   H1735     1.0  0.82034  0.36791  0.82471  1.0000
  H   H1736     1.0  0.54511  0.02477  0.93950  1.0000
  H   H1737     1.0  0.68444  0.17383  0.84877  1.0000
  H   H1738     1.0  0.69107  0.14606  0.86618  1.0000
  H   H1739     1.0  0.65259  0.12254  0.88067  1.0000
  H   H1740     1.0  0.60711  0.12716  0.87756  1.0000
  H   H1741     1.0  0.59988  0.15437  0.85999  1.0000
  H   H1742     1.0  0.96988  0.32555  0.95020  1.0000
  C   C2199     1.0  0.51853  0.00827  0.92449  1.0000
  C   C2200     1.0  0.51152  0.12619  0.92299  1.0000
  H   H1743     1.0  0.54172  0.18348  0.84531  1.0000
  H   H1744     1.0  0.74090  0.25293  0.82268  1.0000
  C   C2201     1.0  0.50959  0.44601  0.91845  1.0000
  H   H1745     1.0  0.81523  0.45697  0.97705  1.0000
  H   H1746     1.0  0.92763  0.22354  0.81660  1.0000
  C   C2202     1.0  0.82936  0.36977  0.85366  1.0000
  H   H1747     1.0  0.89245  0.39958  0.91391  1.0000
  C   C2203     1.0  0.87750  0.18036  0.87680  1.0000
  H   H1748     1.0  0.51924  0.35044  0.85937  1.0000
  H   H1749     1.0  0.86252  0.34170  0.91007  1.0000
  C   C2204     1.0  0.74407  0.10772  0.86703  1.0000
  H   H1750     1.0  0.76386  0.27278  0.96209  1.0000
  C   C2205     1.0  0.82375  0.20859  0.91473  1.0000
  C   C2206     1.0  0.77648  0.17858  0.90309  1.0000
  C   C2207     1.0  0.80079  0.18983  0.89605  1.0000
  C   C2208     1.0  0.82411  0.20573  0.90191  1.0000
  P   P76       1.0  0.80128  0.18647  0.87942  1.0000
  C   C2209     1.0  0.77851  0.15566  0.87471  1.0000
  C   C2210     1.0  0.79302  0.21333  0.87239  1.0000
  C   C2211     1.0  0.76669  0.21013  0.86802  1.0000
  C   C2212     1.0  0.76088  0.23117  0.86241  1.0000
  C   C2213     1.0  0.78109  0.25564  0.86145  1.0000
  C   C2214     1.0  0.80703  0.25910  0.86620  1.0000
  C   C2215     1.0  0.81302  0.23803  0.87162  1.0000
  H   H1751     1.0  0.96370  0.39817  0.95956  1.0000
  C   C2216     1.0  0.75237  0.12915  0.85857  1.0000
  C   C2217     1.0  0.76979  0.15296  0.86233  1.0000
  H   H1752     1.0  0.84206  0.22035  0.91921  1.0000
  H   H1753     1.0  0.75777  0.16746  0.89870  1.0000
  H   H1754     1.0  0.75065  0.19147  0.86889  1.0000
  H   H1755     1.0  0.74071  0.22842  0.85882  1.0000
  H   H1756     1.0  0.77677  0.27197  0.85705  1.0000
  C   C2218     1.0  0.90962  0.36861  0.88672  1.0000
  H   H1757     1.0  0.74547  0.12720  0.84906  1.0000
  H   H1758     1.0  0.77657  0.16917  0.85554  1.0000
  C   C2219     1.0  0.55011  0.14965  0.88026  1.0000
  C   C2220     1.0  0.52587  0.14578  0.87377  1.0000
  H   H1759     1.0  0.94542  0.43755  0.95518  1.0000
  H   H1760     1.0  0.49804  0.08491  0.86460  1.0000
  C   C2221     1.0  0.52458  0.12142  0.89749  1.0000
  C   C2222     1.0  0.54948  0.13775  0.89214  1.0000
  P   P77       1.0  0.52315  0.10652  0.91299  1.0000
  C   C2223     1.0  0.55557  0.10379  0.91749  1.0000
  Fe  Fe141     1.0  0.85080  0.47444  0.83596  1.0000
  H   H1761     1.0  0.77761  0.45922  0.87523  1.0000
  H   H1762     1.0  0.60807  0.45589  0.89155  1.0000
  C   C2224     1.0  0.79956  0.37322  0.92785  1.0000
  C   C2225     1.0  0.54008  0.01388  0.90395  1.0000
  C   C2226     1.0  0.57159  0.09683  0.90876  1.0000
  C   C2227     1.0  0.59658  0.09438  0.91221  1.0000
  C   C2228     1.0  0.60539  0.09817  0.92445  1.0000
  C   C2229     1.0  0.58909  0.10414  0.93328  1.0000
  C   C2230     1.0  0.56411  0.10666  0.92988  1.0000
  H   H1763     1.0  0.95424  0.46687  0.97243  1.0000
  H   H1764     1.0  0.95188  0.37056  0.88751  1.0000
  H   H1765     1.0  0.74186  0.12914  0.82144  1.0000
  H   H1766     1.0  0.55938  0.37110  0.92824  1.0000
  H   H1767     1.0  0.74138  0.03688  0.96661  1.0000
  H   H1768     1.0  0.94369  0.40866  0.84820  1.0000
  H   H1769     1.0  0.56936  0.16198  0.87610  1.0000
  H   H1770     1.0  0.52631  0.15453  0.86448  1.0000
  C   C2231     1.0  0.61092  0.19942  0.84211  1.0000
  C   C2232     1.0  0.97501  0.39608  0.94034  1.0000
  H   H1771     1.0  0.56837  0.14151  0.89715  1.0000
  Fe  Fe142     1.0  0.48707  0.32674  0.83112  1.0000
  S   S292      1.0  0.86610  0.28339  0.96460  1.0000
  S   S293      1.0  0.63410  0.41613  0.84105  1.0000
  H   H1772     1.0  0.56463  0.09303  0.89936  1.0000
  H   H1773     1.0  0.60895  0.08887  0.90554  1.0000
  H   H1774     1.0  0.62453  0.09578  0.92716  1.0000
  H   H1775     1.0  0.59572  0.10647  0.94283  1.0000
  H   H1776     1.0  0.55144  0.11044  0.93699  1.0000
  C   C2233     1.0  0.50431  0.46569  0.95631  1.0000
  C   C2234     1.0  0.72163  0.42630  0.85911  1.0000
  C   C2235     1.0  0.53239  0.33204  0.92674  1.0000
  C   C2236     1.0  0.56820  0.29750  0.86560  1.0000
  H   H1777     1.0  0.60347  0.25880  0.84219  1.0000
  H   H1778     1.0  0.52956  0.32813  0.93673  1.0000
  P   P78       1.0  0.54234  0.34888  0.88411  1.0000
  C   C2237     1.0  0.57291  0.37613  0.88008  1.0000
  C   C2238     1.0  0.59788  0.37760  0.88560  1.0000
  C   C2239     1.0  0.62181  0.39805  0.88221  1.0000
  C   C2240     1.0  0.62094  0.41735  0.87341  1.0000
  C   C2241     1.0  0.59623  0.41610  0.86793  1.0000
  C   C2242     1.0  0.57236  0.39552  0.87115  1.0000
  C   C2243     1.0  0.51239  0.35568  0.87874  1.0000
  C   C2244     1.0  0.55975  0.40565  0.82647  1.0000
  C   C2245     1.0  0.52968  0.43227  0.88137  1.0000
  C   C2246     1.0  0.70371  0.43874  0.86277  1.0000
  C   C2247     1.0  0.51985  0.27710  0.87003  1.0000
  C   C2248     1.0  0.70841  0.01658  0.97948  1.0000
  H   H1779     1.0  0.59891  0.36267  0.89236  1.0000
  H   H1780     1.0  0.64107  0.39885  0.88632  1.0000
  H   H1781     1.0  0.63945  0.43304  0.87060  1.0000
  H   H1782     1.0  0.59579  0.43069  0.86083  1.0000
  H   H1783     1.0  0.55382  0.39472  0.86642  1.0000
  S   S294      1.0  0.80496  0.21701  0.96252  1.0000
  C   C2249     1.0  0.75891  0.17415  0.96016  1.0000
  H   H1784     1.0  0.72240  0.14041  0.95948  1.0000
  C   C2250     1.0  0.57036  0.22247  0.84405  1.0000
  H   H1785     1.0  0.95708  0.46295  0.89637  1.0000
  H   H1786     1.0  0.82281  0.27804  0.86552  1.0000
  P   P79       1.0  0.78244  0.38019  0.95169  1.0000
  C   C2251     1.0  0.71143  0.47680  0.90506  1.0000
  C   C2252     1.0  0.50633  0.35522  0.86601  1.0000
  C   C2253     1.0  0.54337  0.32075  0.87640  1.0000
  H   H1787     1.0  0.57684  0.16328  0.84318  1.0000
  H   H1788     1.0  0.88007  0.34415  0.85690  1.0000
  H   H1789     1.0  0.79974  0.19866  0.93173  1.0000
  H   H1790     1.0  0.76600  0.39314  0.82414  1.0000
  C   C2254     1.0  0.88047  0.37977  0.86482  1.0000
  C   C2255     1.0  0.54932  0.35622  0.92192  1.0000
  C   C2256     1.0  0.56785  0.31967  0.87133  1.0000
  C   C2257     1.0  0.73741  0.47797  0.90080  1.0000
  Fe  Fe143     1.0  0.89965  0.45846  0.83165  1.0000
  H   H1791     1.0  0.75764  0.17227  0.92143  1.0000
  H   H1792     1.0  0.49683  0.99476  0.90783  1.0000
  C   C2258     1.0  0.73861  0.38720  0.93871  1.0000
  H   H1793     1.0  0.84268  0.21593  0.89662  1.0000
  C   C2259     1.0  0.88931  0.39872  0.82304  1.0000
  H   H1794     1.0  0.56358  0.06379  0.88075  1.0000
  C   C2260     1.0  0.48738  0.04545  0.87175  1.0000
  H   H1795     1.0  0.48209  0.12806  0.87438  1.0000
  C   C2261     1.0  0.90833  0.41595  0.91745  1.0000
  H   H1796     1.0  0.50174  0.07163  0.93468  1.0000
  H   H1797     1.0  0.50930  0.19531  0.83174  1.0000
  C   C2262     1.0  0.88451  0.36071  0.89325  1.0000
  H   H1798     1.0  0.56432  0.42669  0.92625  1.0000
  H   H1799     1.0  0.81000  0.36626  0.84907  1.0000
  C   C2263     1.0  0.90623  0.44064  0.91619  1.0000
  H   H1800     1.0  0.84621  0.17240  0.89092  1.0000
  H   H1801     1.0  0.54644  0.09677  0.87067  1.0000
  C   C2264     1.0  0.84376  0.35265  0.85248  1.0000
  C   C2265     1.0  0.78077  0.15837  0.82372  1.0000
  C   C2266     1.0  0.83444  0.18791  0.87374  1.0000
  C   C2267     1.0  0.62120  0.16151  0.82720  1.0000
  C   C2268     1.0  0.85203  0.17952  0.88139  1.0000
  C   C2269     1.0  0.80126  0.39080  0.93712  1.0000
  H   H1802     1.0  0.89915  0.24632  0.87090  1.0000
  H   H1803     1.0  0.74939  0.44542  0.83439  1.0000
  H   H1804     1.0  0.86685  0.36410  0.88925  1.0000
  C   C2270     1.0  0.54222  0.05853  0.87837  1.0000
  H   H1805     1.0  0.82937  0.40534  0.86117  1.0000
  C   C2271     1.0  0.84028  0.39177  0.86048  1.0000
  C   C2272     1.0  0.62558  0.13774  0.82710  1.0000
  H   H1806     1.0  0.78858  0.43157  0.96032  1.0000
  Fe  Fe144     1.0  0.64676  0.45939  0.83790  1.0000
  C   C2273     1.0  0.94845  0.45798  0.92725  1.0000
  S   S295      1.0  0.49944  0.29942  0.84392  1.0000
  H   H1807     1.0  0.90227  0.33343  0.91955  1.0000
  C   C2274     1.0  0.88196  0.34809  0.90506  1.0000
  C   C2275     1.0  0.52218  0.31791  0.90581  1.0000
  C   C2276     1.0  0.75905  0.46599  0.83526  1.0000
  C   C2277     1.0  0.49448  0.20061  0.86802  1.0000
  C   C2278     1.0  0.58477  0.37652  0.84089  1.0000
  C   C2279     1.0  0.74299  0.45516  0.92004  1.0000
  H   H1808     1.0  0.54530  0.34650  0.84141  1.0000
  H   H1809     1.0  0.96536  0.39088  0.83260  1.0000
  C   C2280     1.0  0.94972  0.45612  0.88734  1.0000
  C   C2281     1.0  0.54422  0.27619  0.86499  1.0000
  H   H1810     1.0  0.96068  0.35332  0.96565  1.0000
  C   C2282     1.0  0.75065  0.38666  0.95038  1.0000
  C   C2283     1.0  0.96785  0.38635  0.95265  1.0000
  H   H1811     1.0  0.84282  0.44558  0.92156  1.0000
  H   H1812     1.0  0.77861  0.13485  0.89241  1.0000
  H   H1813     1.0  0.51447  0.41812  0.88722  1.0000
  C   C2284     1.0  0.93223  0.36425  0.89231  1.0000
  C   C2285     1.0  0.77617  0.34608  0.95506  1.0000
  C   C2286     1.0  0.75073  0.32960  0.95978  1.0000
  C   C2287     1.0  0.53947  0.34201  0.90083  1.0000
  C   C2288     1.0  0.82927  0.40771  0.91421  1.0000
  C   C2289     1.0  0.86563  0.39665  0.86615  1.0000
  H   H1814     1.0  0.55942  0.02720  0.86222  1.0000
  S   S296      1.0  0.91515  0.42634  0.82776  1.0000
  C   C2290     1.0  0.55291  0.36122  0.90902  1.0000
  H   H1815     1.0  0.93981  0.47909  0.85846  1.0000
  H   H1816     1.0  0.68318  0.03087  0.90947  1.0000
  H   H1817     1.0  0.82864  0.20186  0.85505  1.0000
  C   C2291     1.0  0.56522  0.02768  0.90916  1.0000
  P   P80       1.0  0.53721  0.00877  0.88745  1.0000
  H   H1818     1.0  0.70472  0.40241  0.96809  1.0000
  H   H1819     1.0  0.48108  0.39744  0.96416  1.0000
  C   C2292     1.0  0.51884  0.31294  0.91869  1.0000
  H   H1820     1.0  0.76233  0.42453  0.86061  1.0000
  C   C2293     1.0  0.62800  0.43873  0.90501  1.0000
  H   H1821     1.0  0.90628  0.22862  0.89193  1.0000
  C   C2294     1.0  0.50535  0.07058  0.86922  1.0000
  H   H1822     1.0  0.49823  0.36063  0.89705  1.0000
  C   C2295     1.0  0.51662  0.00469  0.91169  1.0000
  H   H1823     1.0  0.96370  0.47452  0.93105  1.0000
  C   C2296     1.0  0.74630  0.30323  0.96231  1.0000
  H   H1824     1.0  0.70099  0.99961  0.97404  1.0000
  H   H1825     1.0  0.81682  0.34819  0.94947  1.0000
  C   C2297     1.0  0.81677  0.41699  0.93467  1.0000
  H   H1826     1.0  0.63356  0.00957  0.86213  1.0000
  C   C2298     1.0  0.83071  0.42536  0.92329  1.0000
  S   S297      1.0  0.80573  0.45518  0.83989  1.0000
  C   C2299     1.0  0.50027  0.11892  0.89119  1.0000
  P   P81       1.0  0.91362  0.38628  0.87177  1.0000
  C   C2300     1.0  0.93361  0.37502  0.86112  1.0000
  C   C2301     1.0  0.56906  0.01137  0.87986  1.0000
  C   C2302     1.0  0.75342  0.10996  0.87923  1.0000
  H   H1827     1.0  0.73433  0.33699  0.96152  1.0000
  S   S298      1.0  0.64389  0.47645  0.94110  1.0000
  S   S299      1.0  0.50914  0.36933  0.82810  1.0000
  C   C2303     1.0  0.95746  0.37961  0.84119  1.0000
  H   H1828     1.0  0.92535  0.33763  0.87095  1.0000
  H   H1829     1.0  0.68432  0.40427  0.94748  1.0000
  C   C2304     1.0  0.80221  0.39880  0.96398  1.0000
  H   H1830     1.0  0.50541  0.29431  0.92242  1.0000
  C   C2305     1.0  0.58168  0.42965  0.92011  1.0000
  H   H1831     1.0  0.87370  0.41378  0.87140  1.0000
  C   C2306     1.0  0.49496  0.36146  0.88715  1.0000
  C   C2307     1.0  0.75697  0.45385  0.87181  1.0000
  C   C2308     1.0  0.60335  0.42209  0.92441  1.0000
  C   C2309     1.0  0.77089  0.13375  0.88303  1.0000
  C   C2310     1.0  0.49939  0.07385  0.91454  1.0000
  H   H1832     1.0  0.58357  0.03573  0.90343  1.0000
  C   C2311     1.0  0.79703  0.33581  0.95302  1.0000
  H   H1833     1.0  0.93908  0.41629  0.89335  1.0000
  C   C2312     1.0  0.74820  0.43378  0.86366  1.0000
  H   H1834     1.0  0.51605  0.46683  0.91882  1.0000
  S   S300      1.0  0.48535  0.02402  0.96212  1.0000
  H   H1835     1.0  0.80888  0.30184  0.95383  1.0000
  C   C2313     1.0  0.67933  0.20462  0.82179  1.0000
  H   H1836     1.0  0.81826  0.43106  0.94152  1.0000
  S   S301      1.0  0.87019  0.46705  0.81852  1.0000
  H   H1837     1.0  0.85758  0.47650  0.89737  1.0000
  C   C2314     1.0  0.53004  0.14849  0.92782  1.0000
  C   C2315     1.0  0.56693  0.03132  0.92196  1.0000
  H   H1838     1.0  0.70322  0.99103  0.83687  1.0000
  H   H1839     1.0  0.70262  0.02650  0.88888  1.0000
  C   C2316     1.0  0.61809  0.22649  0.84173  1.0000
  C   C2317     1.0  0.88522  0.18884  0.86445  1.0000
  C   C2318     1.0  0.86741  0.19636  0.85666  1.0000
  H   H1840     1.0  0.87306  0.20244  0.84701  1.0000
  H   H1841     1.0  0.73074  0.08927  0.86406  1.0000
  C   C2319     1.0  0.93984  0.46521  0.86599  1.0000
  C   C2320     1.0  0.81895  0.38903  0.97151  1.0000
  H   H1842     1.0  0.72666  0.29052  0.96594  1.0000
  C   C2321     1.0  0.81372  0.38163  0.91650  1.0000
  C   C2322     1.0  0.48745  0.06029  0.90413  1.0000
  H   H1843     1.0  0.50102  0.26087  0.86936  1.0000
  C   C2323     1.0  0.52687  0.43137  0.86844  1.0000
  H   H1844     1.0  0.55172  0.15401  0.92578  1.0000
  C   C2324     1.0  0.72064  0.24028  0.82565  1.0000
  H   H1845     1.0  0.74725  0.09313  0.88570  1.0000
  C   C2325     1.0  0.54365  0.02169  0.92961  1.0000
  C   C2326     1.0  0.57376  0.02015  0.86726  1.0000
  H   H1846     1.0  0.74782  0.18682  0.96247  1.0000
  H   H1847     1.0  0.62541  0.99357  0.88424  1.0000
  H   H1848     1.0  0.63833  0.13257  0.83399  1.0000
  H   H1849     1.0  0.82117  0.37060  0.96993  1.0000
  C   C2327     1.0  0.93931  0.42958  0.88556  1.0000
  H   H1850     1.0  0.90496  0.18951  0.86090  1.0000
  H   H1851     1.0  0.53497  0.18067  0.93934  1.0000
  C   C2328     1.0  0.84156  0.37146  0.82237  1.0000
  C   C2329     1.0  0.96623  0.44962  0.95693  1.0000
  S   S302      1.0  0.51004  0.24592  0.82309  1.0000
  H   H1852     1.0  0.59431  0.36540  0.84666  1.0000
  H   H1853     1.0  0.71065  0.44754  0.93377  1.0000
  H   H1854     1.0  0.58636  0.04177  0.92601  1.0000
  H   H1855     1.0  0.55171  0.17797  0.82047  1.0000
  H   H1856     1.0  0.89126  0.17447  0.88285  1.0000
  H   H1857     1.0  0.54435  0.25915  0.86044  1.0000
  S   S303      1.0  0.86063  0.47555  0.95255  1.0000
  C   C2330     1.0  0.94506  0.38974  0.85016  1.0000
  H   H1858     1.0  0.54387  0.44877  0.85051  1.0000
  H   H1859     1.0  0.91992  0.43247  0.85536  1.0000
  H   H1860     1.0  0.79212  0.14644  0.82074  1.0000
  C   C2331     1.0  0.95863  0.35469  0.84307  1.0000
  H   H1861     1.0  0.74623  0.39039  0.97016  1.0000
  C   C2332     1.0  0.52061  0.16375  0.93542  1.0000
  H   H1862     1.0  0.55016  0.41707  0.82092  1.0000
  H   H1863     1.0  0.58704  0.29697  0.86154  1.0000
  C   C2333     1.0  0.71459  0.39325  0.93768  1.0000
  H   H1864     1.0  0.51077  0.30294  0.89987  1.0000
  C   C2334     1.0  0.55169  0.45147  0.88651  1.0000
  H   H1865     1.0  0.50997  0.41649  0.86450  1.0000
  C   C2335     1.0  0.54590  0.44960  0.86053  1.0000
  H   H1866     1.0  0.51152  0.44969  0.95852  1.0000
  C   C2336     1.0  0.49239  0.06184  0.92648  1.0000
  H   H1867     1.0  0.64620  0.44280  0.89925  1.0000
  H   H1868     1.0  0.72232  0.25704  0.84339  1.0000
  H   H1869     1.0  0.51655  0.20627  0.86778  1.0000
  H   H1870     1.0  0.72245  0.47475  0.83117  1.0000
  C   C2337     1.0  0.58278  0.44155  0.90816  1.0000
  H   H1871     1.0  0.77224  0.46584  0.90491  1.0000
  C   C2338     1.0  0.60545  0.16797  0.81779  1.0000
  C   C2339     1.0  0.71019  0.24249  0.83734  1.0000
  C   C2340     1.0  0.70246  0.39880  0.94827  1.0000
  C   C2341     1.0  0.92627  0.46157  0.92112  1.0000
  P   P82       1.0  0.55570  0.45341  0.90321  1.0000
  H   H1872     1.0  0.53857  0.05152  0.81908  1.0000
  H   H1873     1.0  0.52765  0.39785  0.90661  1.0000
  H   H1874     1.0  0.92455  0.48066  0.92030  1.0000
  C   C2342     1.0  0.59787  0.23791  0.84273  1.0000
  H   H1875     1.0  0.81278  0.36785  0.90953  1.0000
  C   C2343     1.0  0.80094  0.42338  0.96610  1.0000
  H   H1876     1.0  0.56571  0.38027  0.90552  1.0000
  H   H1877     1.0  0.59950  0.43474  0.82502  1.0000
  H   H1878     1.0  0.90279  0.38176  0.97460  1.0000
  C   C2344     1.0  0.92953  0.35148  0.90407  1.0000
  C   C2345     1.0  0.61297  0.12011  0.81819  1.0000
  H   H1879     1.0  0.48222  0.00763  0.87972  1.0000
  S   S304      1.0  0.94669  0.29549  0.97236  1.0000
  H   H1880     1.0  0.68323  0.43307  0.85909  1.0000
  C   C2346     1.0  0.78681  0.47602  0.83809  1.0000
  H   H1881     1.0  0.74791  0.38329  0.93039  1.0000
  H   H1882     1.0  0.60243  0.41344  0.93377  1.0000
  C   C2347     1.0  0.49248  0.39201  0.91836  1.0000
  C   C2348     1.0  0.61537  0.00967  0.86700  1.0000
  C   C2349     1.0  0.71775  0.45529  0.92445  1.0000
  C   C2350     1.0  0.97116  0.46618  0.96675  1.0000
  H   H1883     1.0  0.94676  0.34747  0.90822  1.0000
  H   H1884     1.0  0.78744  0.35297  0.92936  1.0000
  C   C2351     1.0  0.61070  0.00059  0.87946  1.0000
  C   C2352     1.0  0.94752  0.33996  0.85396  1.0000
  H   H1885     1.0  0.67566  0.12433  0.97306  1.0000
  H   H1886     1.0  0.60069  0.02665  0.85128  1.0000
  H   H1887     1.0  0.75660  0.07632  0.97815  1.0000
  H   H1888     1.0  0.96751  0.34656  0.83595  1.0000
  C   C2353     1.0  0.95099  0.43335  0.92840  1.0000
  S   S305      1.0  0.87791  0.46184  0.84908  1.0000
  H   H1889     1.0  0.56926  0.36416  0.97060  1.0000
  C   C2354     1.0  0.50616  0.39651  0.97984  1.0000
  H   H1890     1.0  0.50052  0.00093  0.93049  1.0000
  H   H1891     1.0  0.56223  0.10581  0.96426  1.0000
  C   C2355     1.0  0.66859  0.20677  0.83352  1.0000
  C   C2356     1.0  0.49264  0.15711  0.93803  1.0000
  H   H1892     1.0  0.50005  0.30008  0.87893  1.0000
  C   C2357     1.0  0.48343  0.12004  0.92541  1.0000
  C   C2358     1.0  0.71395  0.39769  0.95993  1.0000
  H   H1893     1.0  0.71507  0.41114  0.85258  1.0000
  Fe  Fe145     1.0  0.60874  0.47201  0.95409  1.0000
  H   H1894     1.0  0.75526  0.44688  0.92589  1.0000
  H   H1895     1.0  0.70561  0.39404  0.92865  1.0000
  C   C2359     1.0  0.73766  0.39119  0.96103  1.0000
  H   H1896     1.0  0.71646  0.11243  0.97806  1.0000
  H   H1897     1.0  0.94751  0.32029  0.85529  1.0000
  C   C2360     1.0  0.71244  0.45886  0.87091  1.0000
  H   H1898     1.0  0.75184  0.45663  0.94943  1.0000
  C   C2361     1.0  0.50093  0.13069  0.87931  1.0000
  C   C2362     1.0  0.48360  0.36111  0.86175  1.0000
  C   C2363     1.0  0.58749  0.00115  0.88584  1.0000
  H   H1899     1.0  0.68251  0.46632  0.92045  1.0000
  H   H1900     1.0  0.61569  0.10148  0.81836  1.0000
  Fe  Fe146     1.0  0.89433  0.46905  0.96362  1.0000
  H   H1901     1.0  0.49303  0.06868  0.89484  1.0000
  C   C2364     1.0  0.70528  0.22125  0.81791  1.0000
  H   H1902     1.0  0.68883  0.98239  0.81530  1.0000
  H   H1903     1.0  0.48528  0.16872  0.94402  1.0000
  C   C2365     1.0  0.70189  0.46592  0.91693  1.0000
  H   H1904     1.0  0.51378  0.38244  0.97604  1.0000
  C   C2366     1.0  0.73115  0.03750  0.97531  1.0000
  S   S306      1.0  0.66907  0.47947  0.82046  1.0000
  C   C2367     1.0  0.95013  0.47392  0.87754  1.0000
  C   C2368     1.0  0.47755  0.40385  0.92513  1.0000
  C   C2369     1.0  0.84932  0.35194  0.81733  1.0000
  Fe  Fe147     1.0  0.90085  0.28215  0.81583  1.0000
  H   H1905     1.0  0.48080  0.10765  0.89545  1.0000
  H   H1906     1.0  0.66820  0.18965  0.81576  1.0000
  C   C2370     1.0  0.75269  0.46622  0.90820  1.0000
  C   C2371     1.0  0.75767  0.47188  0.95589  1.0000
  C   C2372     1.0  0.56753  0.46903  0.86556  1.0000
  C   C2373     1.0  0.96606  0.36097  0.95616  1.0000
  H   H1907     1.0  0.81331  0.42107  0.81868  1.0000
  S   S307      1.0  0.63358  0.47500  0.97139  1.0000
  C   C2374     1.0  0.68168  0.98267  0.83485  1.0000
  H   H1908     1.0  0.49000  0.17978  0.88587  1.0000
  C   C2375     1.0  0.48922  0.19373  0.82845  1.0000
  C   C2376     1.0  0.57044  0.46999  0.87846  1.0000
  H   H1909     1.0  0.50810  0.98630  0.86527  1.0000
  H   H1910     1.0  0.91566  0.32676  0.98018  1.0000
  H   H1911     1.0  0.49245  0.22039  0.85038  1.0000
  Fe  Fe148     1.0  0.48276  0.09982  0.83956  1.0000
  H   H1912     1.0  0.47910  0.36075  0.85191  1.0000
  C   C2377     1.0  0.73744  0.48001  0.96123  1.0000
  H   H1913     1.0  0.66883  0.98239  0.85391  1.0000
  H   H1914     1.0  0.69835  0.46837  0.87366  1.0000
  C   C2378     1.0  0.97705  0.35433  0.93505  1.0000
  C   C2379     1.0  0.73932  0.46695  0.87526  1.0000
  C   C2380     1.0  0.47952  0.18568  0.87819  1.0000
  H   H1915     1.0  0.91804  0.38293  0.81532  1.0000
  C   C2381     1.0  0.83381  0.40345  0.98107  1.0000
  C   C2382     1.0  0.48458  0.21540  0.82293  1.0000
  S   S308      1.0  0.82579  0.32047  0.81629  1.0000
  C   C2383     1.0  0.89671  0.37989  0.81722  1.0000
  C   C2384     1.0  0.76956  0.40874  0.81707  1.0000
  C   C2385     1.0  0.48620  0.43084  0.92523  1.0000
  S   S309      1.0  0.48011  0.30166  0.81482  1.0000
  H   H1916     1.0  0.88004  0.19358  0.81522  1.0000
  C   C2386     1.0  0.48094  0.20845  0.85820  1.0000
  S   S310      1.0  0.61579  0.47954  0.83717  1.0000
  Fe  Fe149     1.0  0.54153  0.58976  0.03507  1.0000
  S   S311      1.0  0.50257  0.59964  0.03598  1.0000
  S   S312      1.0  0.54742  0.57271  0.01637  1.0000
  Fe  Fe150     1.0  0.55168  0.60025  0.06294  1.0000
  S   S313      1.0  0.51408  0.61023  0.06536  1.0000
  S   S314      1.0  0.57855  0.59907  0.07950  1.0000
  Fe  Fe151     1.0  0.49371  0.57619  0.05405  1.0000
  H   H1917     1.0  0.59303  0.56332  0.06202  1.0000
  Fe  Fe152     1.0  0.52593  0.63349  0.04713  1.0000
  S   S315      1.0  0.51365  0.66977  0.04759  1.0000
  S   S316      1.0  0.53074  0.56422  0.05276  1.0000
  S   S317      1.0  0.56569  0.62556  0.04519  1.0000
  Fe  Fe153     1.0  0.55896  0.82272  0.03879  1.0000
  S   S318      1.0  0.59480  0.85789  0.04327  1.0000
  S   S319      1.0  0.56804  0.78931  0.03024  1.0000
  Fe  Fe154     1.0  0.51820  0.84538  0.04891  1.0000
  S   S320      1.0  0.55086  0.88193  0.05398  1.0000
  C   C2387     1.0  0.53095  0.48605  0.03942  1.0000
  Fe  Fe155     1.0  0.56991  0.88138  0.03507  1.0000
  S   S321      1.0  0.58529  0.92108  0.02392  1.0000
  Fe  Fe156     1.0  0.57251  0.85566  0.06158  1.0000
  S   S322      1.0  0.59190  0.85670  0.08066  1.0000
  S   S323      1.0  0.53514  0.84625  0.02957  1.0000
  S   S324      1.0  0.53891  0.81913  0.05750  1.0000
  S   S325      1.0  0.53952  0.87040  0.13248  1.0000
  H   H1918     1.0  0.68225  0.88004  0.02964  1.0000
  C   C2388     1.0  0.57580  0.85902  0.09493  1.0000
  C   C2389     1.0  0.58590  0.85209  0.10621  1.0000
  C   C2390     1.0  0.57447  0.85470  0.11776  1.0000
  C   C2391     1.0  0.55297  0.86457  0.11816  1.0000
  C   C2392     1.0  0.54260  0.87110  0.10688  1.0000
  C   C2393     1.0  0.55384  0.86829  0.09532  1.0000
  H   H1919     1.0  0.60292  0.84498  0.10604  1.0000
  H   H1920     1.0  0.58285  0.84979  0.12636  1.0000
  H   H1921     1.0  0.52583  0.87845  0.10712  1.0000
  H   H1922     1.0  0.54585  0.87370  0.08673  1.0000
  C   C2394     1.0  0.53005  0.70302  0.04304  1.0000
  C   C2395     1.0  0.55440  0.71197  0.03602  1.0000
  C   C2396     1.0  0.56588  0.73847  0.03225  1.0000
  C   C2397     1.0  0.55349  0.75635  0.03567  1.0000
  C   C2398     1.0  0.52946  0.74745  0.04292  1.0000
  C   C2399     1.0  0.51774  0.72093  0.04648  1.0000
  H   H1923     1.0  0.56408  0.69844  0.03328  1.0000
  H   H1924     1.0  0.58439  0.74510  0.02660  1.0000
  H   H1925     1.0  0.51960  0.76090  0.04557  1.0000
  H   H1926     1.0  0.49889  0.71422  0.05188  1.0000
  C   C2400     1.0  0.48438  0.95421  0.12210  1.0000
  C   C2401     1.0  0.60574  0.96324  0.00708  1.0000
  H   H1927     1.0  0.54667  0.83435  0.98432  1.0000
  C   C2402     1.0  0.57147  0.59807  0.09581  1.0000
  C   C2403     1.0  0.54816  0.60160  0.10101  1.0000
  C   C2404     1.0  0.54463  0.60086  0.11418  1.0000
  C   C2405     1.0  0.56421  0.59623  0.12215  1.0000
  C   C2406     1.0  0.58699  0.59237  0.11681  1.0000
  C   C2407     1.0  0.59069  0.59352  0.10387  1.0000
  H   H1928     1.0  0.53307  0.60507  0.09492  1.0000
  H   H1929     1.0  0.52690  0.60382  0.11815  1.0000
  H   H1930     1.0  0.60223  0.58877  0.12278  1.0000
  H   H1931     1.0  0.60872  0.59079  0.10006  1.0000
  H   H1932     1.0  0.62809  0.78638  0.03332  1.0000
  H   H1933     1.0  0.51293  0.54699  0.13775  1.0000
  C   C2408     1.0  0.49361  0.52538  0.10728  1.0000
  C   C2409     1.0  0.52131  0.92686  0.03577  1.0000
  C   C2410     1.0  0.65238  0.84836  0.02080  1.0000
  C   C2411     1.0  0.67600  0.86164  0.99626  1.0000
  H   H1934     1.0  0.82277  0.56885  0.99714  1.0000
  H   H1935     1.0  0.63971  0.89502  0.02711  1.0000
  C   C2412     1.0  0.59833  0.93613  0.00890  1.0000
  C   C2413     1.0  0.60218  0.92226  0.99893  1.0000
  C   C2414     1.0  0.61387  0.93535  0.98751  1.0000
  H   H1936     1.0  0.56144  0.52219  0.05499  1.0000
  C   C2415     1.0  0.47942  0.58000  0.00440  1.0000
  H   H1937     1.0  0.59661  0.90148  0.00011  1.0000
  C   C2416     1.0  0.47820  0.48359  0.04657  1.0000
  C   C2417     1.0  0.61247  0.54938  0.99468  1.0000
  C   C2418     1.0  0.58623  0.54515  0.99002  1.0000
  C   C2419     1.0  0.56677  0.55241  0.99676  1.0000
  C   C2420     1.0  0.57314  0.56419  0.00824  1.0000
  C   C2421     1.0  0.59949  0.56880  0.01279  1.0000
  C   C2422     1.0  0.61893  0.56149  0.00606  1.0000
  C   C2423     1.0  0.53851  0.97183  0.99699  1.0000
  H   H1938     1.0  0.54661  0.54890  0.99302  1.0000
  H   H1939     1.0  0.60496  0.57818  0.02146  1.0000
  H   H1940     1.0  0.63920  0.56528  0.00972  1.0000
  C   C2424     1.0  0.59906  0.55401  0.05443  1.0000
  H   H1941     1.0  0.59464  0.48478  0.05830  1.0000
  C   C2425     1.0  0.65936  0.90094  0.00891  1.0000
  C   C2426     1.0  0.52133  0.50633  0.03595  1.0000
  H   H1942     1.0  0.51279  0.85074  0.00166  1.0000
  C   C2427     1.0  0.67205  0.91949  0.99934  1.0000
  C   C2428     1.0  0.48719  0.81965  0.09073  1.0000
  C   C2429     1.0  0.50827  0.52654  0.14016  1.0000
  H   H1943     1.0  0.65232  0.56264  0.03437  1.0000
  C   C2430     1.0  0.66996  0.85974  0.03040  1.0000
  H   H1944     1.0  0.86850  0.57700  0.98761  1.0000
  H   H1945     1.0  0.51623  0.91046  0.12942  1.0000
  C   C2431     1.0  0.54886  0.48871  0.01024  1.0000
  H   H1946     1.0  0.53270  0.92093  0.08175  1.0000
  C   C2432     1.0  0.48866  0.93030  0.12302  1.0000
  H   H1947     1.0  0.71055  0.89172  0.00346  1.0000
  C   C2433     1.0  0.49937  0.90385  0.03780  1.0000
  C   C2434     1.0  0.48864  0.76387  0.07401  1.0000
  C   C2435     1.0  0.51197  0.91015  0.08489  1.0000
  C   C2436     1.0  0.50145  0.80835  0.09886  1.0000
  H   H1948     1.0  0.52306  0.71856  0.13396  1.0000
  H   H1949     1.0  0.90871  0.48373  0.06108  1.0000
  H   H1950     1.0  0.48510  0.78166  0.07112  1.0000
  H   H1951     1.0  0.53175  0.49379  0.01340  1.0000
  C   C2437     1.0  0.70886  0.59065  0.98160  1.0000
  C   C2438     1.0  0.58852  0.51895  0.04027  1.0000
  C   C2439     1.0  0.50332  0.97599  0.12705  1.0000
  P   P83       1.0  0.65132  0.86695  0.00657  1.0000
  C   C2440     1.0  0.48817  0.50784  0.13375  1.0000
  C   C2441     1.0  0.52123  0.52748  0.10842  1.0000
  P   P84       1.0  0.56538  0.48860  0.03515  1.0000
  C   C2442     1.0  0.65106  0.90901  0.01991  1.0000
  H   H1952     1.0  0.97593  0.56659  0.01613  1.0000
  H   H1953     1.0  0.50288  0.88651  0.04135  1.0000
  C   C2443     1.0  0.70376  0.87663  0.99690  1.0000
  C   C2444     1.0  0.65693  0.81844  0.04213  1.0000
  H   H1954     1.0  0.69083  0.59017  0.98683  1.0000
  H   H1955     1.0  0.51748  0.92636  0.10275  1.0000
  C   C2445     1.0  0.64001  0.80684  0.03248  1.0000
  H   H1956     1.0  0.69972  0.54949  0.98380  1.0000
  C   C2446     1.0  0.48716  0.78857  0.10750  1.0000
  H   H1957     1.0  0.53625  0.48813  0.99111  1.0000
  C   C2447     1.0  0.63808  0.82161  0.02177  1.0000
  H   H1958     1.0  0.64936  0.94131  0.02993  1.0000
  H   H1959     1.0  0.78568  0.57508  0.98461  1.0000
  H   H1960     1.0  0.53390  0.96674  0.02918  1.0000
  H   H1961     1.0  0.49824  0.78015  0.11395  1.0000
  C   C2448     1.0  0.62160  0.96251  0.98574  1.0000
  C   C2449     1.0  0.66791  0.84144  0.98809  1.0000
  C   C2450     1.0  0.63251  0.55360  0.03890  1.0000
  C   C2451     1.0  0.62472  0.56546  0.04870  1.0000
  H   H1962     1.0  0.49411  0.54038  0.07608  1.0000
  C   C2452     1.0  0.50385  0.90932  0.99971  1.0000
  H   H1963     1.0  0.63846  0.58364  0.05183  1.0000
  C   C2453     1.0  0.55978  0.67973  0.07520  1.0000
  C   C2454     1.0  0.57168  0.66956  0.08488  1.0000
  C   C2455     1.0  0.57774  0.68214  0.09602  1.0000
  C   C2456     1.0  0.57162  0.70474  0.09754  1.0000
  C   C2457     1.0  0.55846  0.71438  0.08806  1.0000
  C   C2458     1.0  0.55342  0.70216  0.07673  1.0000
  P   P85       1.0  0.55076  0.74374  0.08976  1.0000
  C   C2459     1.0  0.54651  0.75003  0.10581  1.0000
  C   C2460     1.0  0.57846  0.76952  0.08215  1.0000
  C   C2461     1.0  0.60153  0.78325  0.08885  1.0000
  C   C2462     1.0  0.62191  0.80448  0.08313  1.0000
  C   C2463     1.0  0.61980  0.81160  0.07061  1.0000
  C   C2464     1.0  0.59774  0.79704  0.06370  1.0000
  C   C2465     1.0  0.57718  0.77600  0.06943  1.0000
  C   C2466     1.0  0.55335  0.77559  0.10946  1.0000
  C   C2467     1.0  0.55003  0.78044  0.12188  1.0000
  C   C2468     1.0  0.53918  0.75987  0.13066  1.0000
  C   C2469     1.0  0.53142  0.73441  0.12706  1.0000
  C   C2470     1.0  0.53475  0.72947  0.11464  1.0000
  C   C2471     1.0  0.51864  0.74200  0.08278  1.0000
  C   C2472     1.0  0.49803  0.71808  0.08135  1.0000
  H   H1964     1.0  0.52975  0.52477  0.11733  1.0000
  C   C2473     1.0  0.58110  0.53076  0.05031  1.0000
  H   H1965     1.0  0.64676  0.82898  0.98779  1.0000
  C   C2474     1.0  0.51353  0.76488  0.07931  1.0000
  H   H1966     1.0  0.55558  0.67028  0.06646  1.0000
  H   H1967     1.0  0.57653  0.65211  0.08368  1.0000
  H   H1968     1.0  0.58736  0.67439  0.10344  1.0000
  H   H1969     1.0  0.57727  0.71461  0.10609  1.0000
  H   H1970     1.0  0.54457  0.70993  0.06905  1.0000
  H   H1971     1.0  0.60346  0.77806  0.09856  1.0000
  H   H1972     1.0  0.63896  0.81587  0.08849  1.0000
  H   H1973     1.0  0.63497  0.82871  0.06634  1.0000
  H   H1974     1.0  0.59620  0.80241  0.05396  1.0000
  H   H1975     1.0  0.56008  0.76515  0.06396  1.0000
  H   H1976     1.0  0.56127  0.79188  0.10276  1.0000
  H   H1977     1.0  0.55587  0.80015  0.12474  1.0000
  C   C2475     1.0  0.51183  0.87265  0.98453  1.0000
  C   C2476     1.0  0.72303  0.87212  0.98911  1.0000
  H   H1978     1.0  0.52827  0.70962  0.11197  1.0000
  H   H1979     1.0  0.50119  0.70016  0.08425  1.0000
  H   H1980     1.0  0.55101  0.82374  0.00678  1.0000
  C   C2477     1.0  0.82664  0.57584  0.98749  1.0000
  H   H1981     1.0  0.95139  0.55063  0.99669  1.0000
  H   H1982     1.0  0.52890  0.78355  0.08064  1.0000
  H   H1983     1.0  0.56008  0.53609  0.09898  1.0000
  C   C2478     1.0  0.52880  0.53812  0.08631  1.0000
  H   H1984     1.0  0.49572  0.62128  0.00574  1.0000
  C   C2479     1.0  0.50320  0.91312  0.09683  1.0000
  H   H1985     1.0  0.54256  0.54364  0.07830  1.0000
  C   C2480     1.0  0.49021  0.94831  0.02817  1.0000
  C   C2481     1.0  0.67735  0.94578  0.00096  1.0000
  C   C2482     1.0  0.53113  0.95038  0.13373  1.0000
  H   H1986     1.0  0.59568  0.83928  0.01671  1.0000
  H   H1987     1.0  0.68523  0.85383  0.04854  1.0000
  H   H1988     1.0  0.67729  0.91370  0.99049  1.0000
  C   C2483     1.0  0.61796  0.85707  0.99969  1.0000
  C   C2484     1.0  0.51676  0.94903  0.03089  1.0000
  H   H1989     1.0  0.60310  0.97428  0.01470  1.0000
  C   C2485     1.0  0.50663  0.88661  0.00505  1.0000
  C   C2486     1.0  0.65654  0.93532  0.02155  1.0000
  C   C2487     1.0  0.51495  0.96952  0.99003  1.0000
  C   C2488     1.0  0.96994  0.48818  0.04789  1.0000
  C   C2489     1.0  0.59443  0.84355  0.00684  1.0000
  H   H1990     1.0  0.53436  0.52340  0.03067  1.0000
  C   C2490     1.0  0.66970  0.95370  0.01209  1.0000
  H   H1991     1.0  0.62084  0.52199  0.02691  1.0000
  C   C2491     1.0  0.49503  0.50502  0.03945  1.0000
  C   C2492     1.0  0.53865  0.53374  0.09797  1.0000
  H   H1992     1.0  0.54930  0.94877  0.13815  1.0000
  C   C2493     1.0  0.61530  0.86365  0.98708  1.0000
  C   C2494     1.0  0.52667  0.97407  0.13288  1.0000
  H   H1993     1.0  0.54856  0.95752  0.99664  1.0000
  H   H1994     1.0  0.50038  0.92311  0.00573  1.0000
  S   S326      1.0  0.56216  0.59454  0.13877  1.0000
  H   H1995     1.0  0.50579  0.88321  0.01507  1.0000
  C   C2495     1.0  0.51225  0.92860  0.12881  1.0000
  C   C2496     1.0  0.67196  0.84487  0.04108  1.0000
  C   C2497     1.0  0.50583  0.91416  0.98674  1.0000
  H   H1996     1.0  0.48802  0.52097  0.03682  1.0000
  C   C2498     1.0  0.56888  0.83509  0.00126  1.0000
  C   C2499     1.0  0.56647  0.84104  0.98862  1.0000
  H   H1997     1.0  0.54189  0.92747  0.03789  1.0000
  H   H1998     1.0  0.65837  0.80688  0.05040  1.0000
  C   C2500     1.0  0.61450  0.53046  0.03468  1.0000
  H   H1999     1.0  0.53679  0.76372  0.14027  1.0000
  H   H2000     1.0  0.52359  0.81503  0.09851  1.0000
  H   H2001     1.0  0.62515  0.81205  0.01433  1.0000
  H   H2002     1.0  0.49830  0.83507  0.08403  1.0000
  C   C2501     1.0  0.51064  0.86830  0.99747  1.0000
  H   H2003     1.0  0.50103  0.89057  0.06783  1.0000
  H   H2004     1.0  0.95164  0.50185  0.99660  1.0000
  C   C2502     1.0  0.56873  0.48598  0.01854  1.0000
  C   C2503     1.0  0.50154  0.53644  0.08509  1.0000
  H   H2005     1.0  0.68656  0.95991  0.99343  1.0000
  H   H2006     1.0  0.49818  0.57884  0.00048  1.0000
  C   C2504     1.0  0.97348  0.55750  0.99673  1.0000
  H   H2007     1.0  0.48739  0.96573  0.02426  1.0000
  C   C2505     1.0  0.95102  0.48978  0.05685  1.0000
  C   C2506     1.0  0.48404  0.53031  0.09551  1.0000
  C   C2507     1.0  0.61703  0.97630  0.99560  1.0000
  C   C2508     1.0  0.49421  0.89295  0.07706  1.0000
  C   C2509     1.0  0.55122  0.48538  0.99753  1.0000
  H   H2008     1.0  0.74442  0.88386  0.98958  1.0000
  H   H2009     1.0  0.67303  0.97398  0.01323  1.0000
  H   H2010     1.0  0.95783  0.49701  0.06589  1.0000
  S   S327      1.0  0.63802  0.54018  0.98677  1.0000
  C   C2510     1.0  0.92319  0.48232  0.05415  1.0000
  C   C2511     1.0  0.95330  0.48287  0.99847  1.0000
  C   C2512     1.0  0.47805  0.60394  0.00739  1.0000
  C   C2513     1.0  0.48306  0.48150  0.13686  1.0000
  C   C2514     1.0  0.85247  0.58050  0.98214  1.0000
  C   C2515     1.0  0.58962  0.85566  0.98157  1.0000
  H   H2011     1.0  0.63306  0.87502  0.98152  1.0000
  H   H2012     1.0  0.60479  0.58481  0.28611  1.0000
  C   C2516     1.0  0.60536  0.94062  0.30153  1.0000
  Fe  Fe157     1.0  0.56172  0.85249  0.17876  1.0000
  S   S328      1.0  0.54547  0.80950  0.18147  1.0000
  S   S329      1.0  0.57921  0.87618  0.19560  1.0000
  Fe  Fe158     1.0  0.56351  0.80908  0.16266  1.0000
  S   S330      1.0  0.58516  0.78131  0.15854  1.0000
  Fe  Fe159     1.0  0.50914  0.81216  0.17107  1.0000
  H   H2013     1.0  0.62131  0.78791  0.30965  1.0000
  S   S331      1.0  0.58349  0.85219  0.16053  1.0000
  S   S332      1.0  0.52435  0.85541  0.16904  1.0000
  Fe  Fe160     1.0  0.54550  0.60393  0.18439  1.0000
  S   S333      1.0  0.50530  0.60944  0.18696  1.0000
  S   S334      1.0  0.57532  0.60271  0.19977  1.0000
  H   H2014     1.0  0.65276  0.85523  0.28827  1.0000
  H   H2015     1.0  0.48987  0.91354  0.22732  1.0000
  Fe  Fe161     1.0  0.51732  0.63686  0.17018  1.0000
  S   S335      1.0  0.50139  0.66977  0.17108  1.0000
  C   C2517     1.0  0.72451  0.70923  0.30487  1.0000
  Fe  Fe162     1.0  0.53977  0.60196  0.15571  1.0000
  S   S336      1.0  0.55939  0.63422  0.16853  1.0000
  S   S337      1.0  0.52889  0.57137  0.17152  1.0000
  Fe  Fe163     1.0  0.54838  0.81562  0.29610  1.0000
  S   S338      1.0  0.58904  0.82957  0.28626  1.0000
  H   H2016     1.0  0.56182  0.71439  0.25077  1.0000
  Fe  Fe164     1.0  0.53564  0.86396  0.28797  1.0000
  S   S339      1.0  0.57620  0.88178  0.27773  1.0000
  S   S340      1.0  0.50468  0.88490  0.28651  1.0000
  Fe  Fe165     1.0  0.56746  0.84221  0.27034  1.0000
  S   S341      1.0  0.56777  0.82612  0.25116  1.0000
  Fe  Fe166     1.0  0.59419  0.86763  0.29476  1.0000
  S   S342      1.0  0.52630  0.82548  0.27980  1.0000
  H   H2017     1.0  0.97607  0.61266  0.30616  1.0000
  Fe  Fe167     1.0  0.56367  0.60567  0.27485  1.0000
  S   S343      1.0  0.52498  0.61361  0.27187  1.0000
  S   S344      1.0  0.58861  0.59933  0.25881  1.0000
  Fe  Fe168     1.0  0.50923  0.58844  0.28938  1.0000
  Fe  Fe169     1.0  0.54248  0.64659  0.28422  1.0000
  S   S345      1.0  0.54690  0.68639  0.27584  1.0000
  S   S346      1.0  0.54776  0.57867  0.29178  1.0000
  S   S347      1.0  0.58249  0.64010  0.28624  1.0000
  C   C2518     1.0  0.66193  0.84185  0.29247  1.0000
  C   C2519     1.0  0.53795  0.75154  0.29825  1.0000
  H   H2018     1.0  0.60305  0.74400  0.26038  1.0000
  C   C2520     1.0  0.53346  0.70610  0.29708  1.0000
  C   C2521     1.0  0.54404  0.71109  0.28490  1.0000
  C   C2522     1.0  0.55173  0.73632  0.27949  1.0000
  C   C2523     1.0  0.54870  0.75647  0.28613  1.0000
  H   H2019     1.0  0.51640  0.76135  0.25572  1.0000
  H   H2020     1.0  0.55941  0.74027  0.27002  1.0000
  H   H2021     1.0  0.55425  0.77573  0.28175  1.0000
  H   H2022     1.0  0.68449  0.68309  0.30101  1.0000
  C   C2524     1.0  0.57620  0.60121  0.21632  1.0000
  C   C2525     1.0  0.55403  0.59958  0.22422  1.0000
  C   C2526     1.0  0.55715  0.59918  0.23736  1.0000
  C   C2527     1.0  0.58234  0.60012  0.24256  1.0000
  C   C2528     1.0  0.60397  0.60127  0.23458  1.0000
  C   C2529     1.0  0.60098  0.60193  0.22165  1.0000
  H   H2023     1.0  0.53478  0.59904  0.22021  1.0000
  H   H2024     1.0  0.54026  0.59838  0.24341  1.0000
  H   H2025     1.0  0.62338  0.60179  0.23842  1.0000
  H   H2026     1.0  0.61815  0.60302  0.21569  1.0000
  C   C2530     1.0  0.68909  0.94688  0.28889  1.0000
  C   C2531     1.0  0.57367  0.86260  0.21118  1.0000
  C   C2532     1.0  0.58450  0.87836  0.22114  1.0000
  C   C2533     1.0  0.58199  0.86777  0.23352  1.0000
  C   C2534     1.0  0.56891  0.84120  0.23605  1.0000
  C   C2535     1.0  0.55774  0.82556  0.22612  1.0000
  C   C2536     1.0  0.55972  0.83624  0.21382  1.0000
  H   H2027     1.0  0.59540  0.89876  0.21924  1.0000
  H   H2028     1.0  0.59090  0.88002  0.24105  1.0000
  H   H2029     1.0  0.54765  0.80502  0.22795  1.0000
  H   H2030     1.0  0.55103  0.82396  0.20634  1.0000
  C   C2537     1.0  0.51229  0.74038  0.23903  1.0000
  C   C2538     1.0  0.52449  0.70024  0.16652  1.0000
  C   C2539     1.0  0.55047  0.70337  0.16170  1.0000
  C   C2540     1.0  0.56914  0.72836  0.15897  1.0000
  C   C2541     1.0  0.56184  0.75002  0.16128  1.0000
  C   C2542     1.0  0.53561  0.74669  0.16579  1.0000
  C   C2543     1.0  0.51684  0.72187  0.16817  1.0000
  C   C2544     1.0  0.62135  0.72902  0.29322  1.0000
  C   C2545     1.0  0.66480  0.73652  0.30328  1.0000
  H   H2031     1.0  0.52966  0.76319  0.16748  1.0000
  H   H2032     1.0  0.49654  0.71947  0.17161  1.0000
  H   H2033     1.0  0.73514  0.86929  0.29779  1.0000
  H   H2034     1.0  0.67661  0.93487  0.29639  1.0000
  C   C2546     1.0  0.51854  0.49766  0.27979  1.0000
  C   C2547     1.0  0.63194  0.95576  0.29776  1.0000
  H   H2035     1.0  0.63376  0.77864  0.22429  1.0000
  H   H2036     1.0  0.62482  0.72126  0.21737  1.0000
  H   H2037     1.0  0.63745  0.95753  0.28796  1.0000
  C   C2548     1.0  0.77530  0.92241  0.31185  1.0000
  C   C2549     1.0  0.53783  0.71702  0.20151  1.0000
  H   H2038     1.0  0.63443  0.85295  0.18603  1.0000
  C   C2550     1.0  0.70465  0.61691  0.25040  1.0000
  C   C2551     1.0  0.72805  0.61207  0.25453  1.0000
  C   C2552     1.0  0.73973  0.62147  0.26578  1.0000
  C   C2553     1.0  0.72826  0.63603  0.27283  1.0000
  C   C2554     1.0  0.70542  0.64187  0.26849  1.0000
  C   C2555     1.0  0.69316  0.63147  0.25742  1.0000
  P   P86       1.0  0.68934  0.65885  0.27804  1.0000
  C   C2556     1.0  0.66569  0.63369  0.28795  1.0000
  C   C2557     1.0  0.71367  0.68345  0.28666  1.0000
  C   C2558     1.0  0.70548  0.69132  0.29774  1.0000
  C   C2559     1.0  0.51761  0.86706  0.24220  1.0000
  H   H2039     1.0  0.60849  0.72373  0.28516  1.0000
  C   C2560     1.0  0.67808  0.84846  0.30299  1.0000
  C   C2561     1.0  0.74067  0.69539  0.28226  1.0000
  C   C2562     1.0  0.64179  0.61715  0.28281  1.0000
  C   C2563     1.0  0.53150  0.54187  0.26352  1.0000
  C   C2564     1.0  0.48202  0.83992  0.25634  1.0000
  C   C2565     1.0  0.67136  0.62934  0.30049  1.0000
  C   C2566     1.0  0.67110  0.67547  0.26855  1.0000
  C   C2567     1.0  0.64633  0.67713  0.27287  1.0000
  C   C2568     1.0  0.63136  0.68875  0.26529  1.0000
  C   C2569     1.0  0.64141  0.69936  0.25345  1.0000
  C   C2570     1.0  0.66664  0.69875  0.24928  1.0000
  C   C2571     1.0  0.68156  0.68700  0.25683  1.0000
  H   H2040     1.0  0.69514  0.60904  0.24184  1.0000
  H   H2041     1.0  0.73683  0.60063  0.24911  1.0000
  H   H2042     1.0  0.75747  0.61717  0.26913  1.0000
  H   H2043     1.0  0.73700  0.64240  0.28173  1.0000
  H   H2044     1.0  0.67444  0.63418  0.25428  1.0000
  C   C2572     1.0  0.50050  0.72008  0.25969  1.0000
  C   C2573     1.0  0.66965  0.80098  0.29266  1.0000
  C   C2574     1.0  0.97216  0.54842  0.30807  1.0000
  H   H2045     1.0  0.74724  0.69050  0.27347  1.0000
  H   H2046     1.0  0.63739  0.61959  0.27307  1.0000
  H   H2047     1.0  0.69020  0.64084  0.30463  1.0000
  H   H2048     1.0  0.63853  0.66928  0.28208  1.0000
  H   H2049     1.0  0.61179  0.68924  0.26855  1.0000
  H   H2050     1.0  0.62961  0.70799  0.24750  1.0000
  H   H2051     1.0  0.67453  0.70714  0.24013  1.0000
  H   H2052     1.0  0.70101  0.68657  0.25344  1.0000
  C   C2575     1.0  0.50635  0.85089  0.23258  1.0000
  C   C2576     1.0  0.50588  0.51830  0.19600  1.0000
  S   S348      1.0  0.52538  0.80726  0.15242  1.0000
  C   C2577     1.0  0.49820  0.50781  0.27599  1.0000
  Fe  Fe170     1.0  0.48959  0.57971  0.17285  1.0000
  H   H2053     1.0  0.50475  0.77059  0.20098  1.0000
  Fe  Fe171     1.0  0.54427  0.85047  0.15105  1.0000
  S   S349      1.0  0.63620  0.88865  0.30326  1.0000
  H   H2054     1.0  0.57291  0.54221  0.26427  1.0000
  H   H2055     1.0  0.63157  0.81541  0.17358  1.0000
  C   C2578     1.0  0.51811  0.49275  0.15250  1.0000
  H   H2056     1.0  0.59999  0.80184  0.21768  1.0000
  C   C2579     1.0  0.49858  0.73063  0.19801  1.0000
  S   S350      1.0  0.52340  0.62277  0.30164  1.0000
  H   H2057     1.0  0.54678  0.70199  0.20111  1.0000
  C   C2580     1.0  0.54100  0.76105  0.20495  1.0000
  H   H2058     1.0  0.76826  0.91278  0.29272  1.0000
  H   H2059     1.0  0.62445  0.67290  0.18731  1.0000
  H   H2060     1.0  0.63899  0.77613  0.24707  1.0000
  H   H2061     1.0  0.50993  0.52208  0.18609  1.0000
  H   H2062     1.0  0.61937  0.84594  0.20813  1.0000
  H   H2063     1.0  0.63872  0.68705  0.20850  1.0000
  H   H2064     1.0  0.53135  0.52077  0.30196  1.0000
  C   C2581     1.0  0.52600  0.53040  0.20442  1.0000
  H   H2065     1.0  0.58931  0.73375  0.30437  1.0000
  H   H2066     1.0  0.53987  0.92779  0.22469  1.0000
  C   C2582     1.0  0.65748  0.81802  0.28737  1.0000
  C   C2583     1.0  0.61046  0.73465  0.30414  1.0000
  H   H2067     1.0  0.53913  0.53362  0.15413  1.0000
  C   C2584     1.0  0.50539  0.86165  0.25404  1.0000
  H   H2068     1.0  0.61462  0.83013  0.30953  1.0000
  H   H2069     1.0  0.53598  0.88367  0.24051  1.0000
  H   H2070     1.0  0.54551  0.54399  0.20105  1.0000
  C   C2585     1.0  0.57745  0.72846  0.24495  1.0000
  H   H2071     1.0  0.47792  0.72665  0.19475  1.0000
  H   H2072     1.0  0.66660  0.78278  0.28851  1.0000
  H   H2073     1.0  0.52738  0.68667  0.30132  1.0000
  H   H2074     1.0  0.76637  0.73402  0.30627  1.0000
  C   C2586     1.0  0.51376  0.75541  0.20149  1.0000
  H   H2075     1.0  0.56064  0.91730  0.20582  1.0000
  H   H2076     1.0  0.64469  0.81288  0.27929  1.0000
  H   H2077     1.0  0.61333  0.57933  0.30867  1.0000
  H   H2078     1.0  0.72486  0.96243  0.30883  1.0000
  C   C2587     1.0  0.60071  0.74514  0.25037  1.0000
  H   H2079     1.0  0.58269  0.72800  0.18348  1.0000
  H   H2080     1.0  0.49906  0.69232  0.19511  1.0000
  H   H2081     1.0  0.79030  0.94132  0.30962  1.0000
  H   H2082     1.0  0.48868  0.67883  0.26122  1.0000
  C   C2588     1.0  0.95186  0.54726  0.29929  1.0000
  C   C2589     1.0  0.92122  0.50873  0.31023  1.0000
  C   C2590     1.0  0.49560  0.69341  0.24190  1.0000
  C   C2591     1.0  0.50478  0.52995  0.26796  1.0000
  C   C2592     1.0  0.55349  0.74208  0.20472  1.0000
  C   C2593     1.0  0.62825  0.59402  0.30282  1.0000
  H   H2083     1.0  0.90158  0.49336  0.31105  1.0000
  C   C2594     1.0  0.49577  0.50751  0.22155  1.0000
  C   C2595     1.0  0.72172  0.97744  0.26944  1.0000
  C   C2596     1.0  0.64852  0.72986  0.29280  1.0000
  H   H2084     1.0  0.68146  0.86712  0.30672  1.0000
  C   C2597     1.0  0.68591  0.80754  0.30318  1.0000
  C   C2598     1.0  0.48152  0.89378  0.21003  1.0000
  H   H2085     1.0  0.48090  0.87816  0.19189  1.0000
  H   H2086     1.0  0.51595  0.85516  0.22339  1.0000
  H   H2087     1.0  0.53118  0.89288  0.18950  1.0000
  C   C2599     1.0  0.50486  0.71600  0.23408  1.0000
  H   H2088     1.0  0.55252  0.78051  0.20733  1.0000
  C   C2600     1.0  0.52103  0.52484  0.21720  1.0000
  C   C2601     1.0  0.49842  0.90842  0.21910  1.0000
  H   H2089     1.0  0.69136  0.91429  0.27931  1.0000
  C   C2602     1.0  0.75958  0.71368  0.28929  1.0000
  C   C2603     1.0  0.62094  0.76319  0.24288  1.0000
  C   C2604     1.0  0.69762  0.93521  0.27923  1.0000
  H   H2090     1.0  0.52145  0.72241  0.31300  1.0000
  C   C2605     1.0  0.76291  0.90630  0.30235  1.0000
  H   H2091     1.0  0.55646  0.71661  0.22797  1.0000
  C   C2606     1.0  0.55199  0.53228  0.26743  1.0000
  C   C2607     1.0  0.49398  0.69569  0.25481  1.0000
  C   C2608     1.0  0.62322  0.59735  0.29020  1.0000
  H   H2092     1.0  0.55619  0.68661  0.16014  1.0000
  S   S351      1.0  0.49904  0.60751  0.15618  1.0000
  C   C2609     1.0  0.74398  0.88168  0.30528  1.0000
  H   H2093     1.0  0.48741  0.78807  0.26216  1.0000
  H   H2094     1.0  0.72038  0.94144  0.26193  1.0000
  S   S352      1.0  0.55423  0.85282  0.30540  1.0000
  C   C2610     1.0  0.53022  0.72632  0.30370  1.0000
  H   H2095     1.0  0.49539  0.61192  0.24288  1.0000
  C   C2611     1.0  0.51052  0.71136  0.19819  1.0000
  H   H2096     1.0  0.91100  0.52643  0.29348  1.0000
  H   H2097     1.0  0.51419  0.87420  0.26150  1.0000
  H   H2098     1.0  0.95540  0.56181  0.29170  1.0000
  H   H2099     1.0  0.49259  0.76661  0.28230  1.0000
  C   C2612     1.0  0.59774  0.93793  0.31411  1.0000
  C   C2613     1.0  0.52388  0.66123  0.23315  1.0000
  C   C2614     1.0  0.54010  0.66078  0.24353  1.0000
  C   C2615     1.0  0.56685  0.66095  0.24198  1.0000
  C   C2616     1.0  0.57768  0.66170  0.23002  1.0000
  C   C2617     1.0  0.56171  0.66219  0.21962  1.0000
  C   C2618     1.0  0.53496  0.66208  0.22115  1.0000
  H   H2100     1.0  0.61349  0.77135  0.18296  1.0000
  C   C2619     1.0  0.54569  0.51053  0.27571  1.0000
  H   H2101     1.0  0.59072  0.93066  0.29472  1.0000
  H   H2102     1.0  0.52039  0.75773  0.23299  1.0000
  H   H2103     1.0  0.53648  0.55904  0.25734  1.0000
  H   H2104     1.0  0.53686  0.53403  0.22369  1.0000
  S   S353      1.0  0.53367  0.77662  0.30660  1.0000
  C   C2620     1.0  0.71390  0.95049  0.26947  1.0000
  H   H2105     1.0  0.62490  0.66437  0.31062  1.0000
  C   C2621     1.0  0.57423  0.73003  0.23206  1.0000
  H   H2106     1.0  0.56219  0.50435  0.27907  1.0000
  H   H2107     1.0  0.53201  0.66023  0.25286  1.0000
  H   H2108     1.0  0.57891  0.65979  0.25007  1.0000
  H   H2109     1.0  0.59807  0.66089  0.22882  1.0000
  H   H2110     1.0  0.56982  0.66192  0.21035  1.0000
  H   H2111     1.0  0.52319  0.66261  0.21293  1.0000
  C   C2622     1.0  0.48043  0.50146  0.20032  1.0000
  C   C2623     1.0  0.51004  0.74244  0.25184  1.0000
  H   H2112     1.0  0.50734  0.71477  0.22419  1.0000
  C   C2624     1.0  0.52192  0.89720  0.19775  1.0000
  Fe  Fe172     1.0  0.56333  0.61457  0.30297  1.0000
  P   P87       1.0  0.48984  0.66225  0.23551  1.0000
  H   H2113     1.0  0.59715  0.69398  0.17474  1.0000
  H   H2114     1.0  0.65703  0.72558  0.28435  1.0000
  C   C2625     1.0  0.60329  0.70013  0.18402  1.0000
  C   C2626     1.0  0.61879  0.68834  0.19109  1.0000
  C   C2627     1.0  0.62673  0.69629  0.20305  1.0000
  C   C2628     1.0  0.61875  0.71573  0.20803  1.0000
  C   C2629     1.0  0.60253  0.72722  0.20108  1.0000
  C   C2630     1.0  0.59529  0.71953  0.18896  1.0000
  P   P88       1.0  0.58959  0.75039  0.20785  1.0000
  C   C2631     1.0  0.59395  0.74864  0.22451  1.0000
  C   C2632     1.0  0.60630  0.78297  0.20127  1.0000
  C   C2633     1.0  0.61529  0.78725  0.18877  1.0000
  C   C2634     1.0  0.62564  0.81241  0.18336  1.0000
  C   C2635     1.0  0.62721  0.83353  0.19035  1.0000
  C   C2636     1.0  0.61861  0.82953  0.20280  1.0000
  C   C2637     1.0  0.60789  0.80441  0.20822  1.0000
  C   C2638     1.0  0.61773  0.76478  0.22997  1.0000
  C   C2639     1.0  0.92656  0.52732  0.30031  1.0000
  H   H2115     1.0  0.48008  0.52483  0.16906  1.0000
  H   H2116     1.0  0.78056  0.72248  0.28599  1.0000
  C   C2640     1.0  0.69009  0.83133  0.30852  1.0000
  C   C2641     1.0  0.53859  0.91107  0.20697  1.0000
  C   C2642     1.0  0.52686  0.91683  0.21760  1.0000
  H   H2117     1.0  0.49283  0.50288  0.23144  1.0000
  C   C2643     1.0  0.49350  0.88877  0.19919  1.0000
  C   C2644     1.0  0.51777  0.50713  0.30868  1.0000
  H   H2118     1.0  0.47990  0.62379  0.21669  1.0000
  H   H2119     1.0  0.68587  0.73726  0.30296  1.0000
  H   H2120     1.0  0.48940  0.53843  0.26548  1.0000
  H   H2121     1.0  0.69073  0.90985  0.31288  1.0000
  H   H2122     1.0  0.58931  0.73092  0.15530  1.0000
  H   H2123     1.0  0.69545  0.79415  0.30693  1.0000
  H   H2124     1.0  0.49920  0.72165  0.26966  1.0000
  C   C2645     1.0  0.75159  0.72033  0.30067  1.0000
  C   C2646     1.0  0.65240  0.60990  0.30794  1.0000
  C   C2647     1.0  0.65383  0.74178  0.31429  1.0000
  C   C2648     1.0  0.52327  0.51899  0.14944  1.0000
  C   C2649     1.0  0.65119  0.96828  0.30658  1.0000
  C   C2650     1.0  0.48298  0.82913  0.23483  1.0000
  C   C2651     1.0  0.47803  0.61363  0.24787  1.0000
  C   C2652     1.0  0.69635  0.97385  0.28883  1.0000
  H   H2125     1.0  0.47834  0.77591  0.23707  1.0000
  H   H2126     1.0  0.52962  0.48695  0.15977  1.0000
  H   H2127     1.0  0.71837  0.71417  0.31378  1.0000
  C   C2653     1.0  0.50439  0.48129  0.30585  1.0000
  C   C2654     1.0  0.86341  0.95624  0.45006  1.0000
  S   S354      1.0  0.73507  0.95357  0.46187  1.0000
  S   S355      1.0  0.74333  0.67778  0.46293  1.0000
  Fe  Fe173     1.0  0.72514  0.93855  0.36446  1.0000
  S   S356      1.0  0.76362  0.95270  0.35278  1.0000
  S   S357      1.0  0.68148  0.92819  0.35694  1.0000
  Fe  Fe174     1.0  0.75766  0.93581  0.38875  1.0000
  C   C2655     1.0  0.71646  0.79383  0.32999  1.0000
  C   C2656     1.0  0.68402  0.70280  0.44790  1.0000
  Fe  Fe175     1.0  0.77540  0.92235  0.36389  1.0000
  S   S358      1.0  0.79001  0.89266  0.35530  1.0000
  S   S359      1.0  0.73610  0.90707  0.37476  1.0000
  H   H2128     1.0  0.75836  0.96953  0.32561  1.0000
  S   S360      1.0  0.92850  0.69802  0.36652  1.0000
  C   C2657     1.0  0.65139  0.79509  0.44448  1.0000
  Fe  Fe176     1.0  0.73926  0.69502  0.38634  1.0000
  S   S361      1.0  0.77115  0.73391  0.38665  1.0000
  S   S362      1.0  0.73106  0.66843  0.40393  1.0000
  Fe  Fe177     1.0  0.72361  0.70327  0.35901  1.0000
  S   S363      1.0  0.75598  0.74304  0.35774  1.0000
  S   S364      1.0  0.69830  0.69560  0.34097  1.0000
  Fe  Fe178     1.0  0.78420  0.72568  0.36786  1.0000
  S   S365      1.0  0.82999  0.74323  0.36308  1.0000
  Fe  Fe179     1.0  0.74102  0.74804  0.37654  1.0000
  S   S366      1.0  0.73401  0.78338  0.38337  1.0000
  S   S367      1.0  0.75327  0.68533  0.36777  1.0000
  S   S368      1.0  0.70740  0.70953  0.37757  1.0000
  C   C2658     1.0  0.63202  0.66049  0.31971  1.0000
  H   H2129     1.0  0.92048  0.64862  0.44680  1.0000
  C   C2659     1.0  0.94824  0.64900  0.46150  1.0000
  H   H2130     1.0  0.77569  0.93196  0.45351  1.0000
  H   H2131     1.0  0.63379  0.79290  0.45040  1.0000
  C   C2660     1.0  0.74581  0.94840  0.44688  1.0000
  C   C2661     1.0  0.61690  0.63821  0.32686  1.0000
  C   C2662     1.0  0.62664  0.63381  0.33871  1.0000
  C   C2663     1.0  0.65118  0.65115  0.34331  1.0000
  C   C2664     1.0  0.66643  0.67326  0.33610  1.0000
  C   C2665     1.0  0.65638  0.67787  0.32438  1.0000
  C   C2666     1.0  0.77241  0.80800  0.32483  1.0000
  H   H2132     1.0  0.61521  0.61672  0.34437  1.0000
  H   H2133     1.0  0.65844  0.64718  0.35236  1.0000
  H   H2134     1.0  0.55879  0.65193  0.32841  1.0000
  H   H2135     1.0  0.64304  0.74486  0.42147  1.0000
  C   C2667     1.0  0.90163  0.71136  0.36635  1.0000
  C   C2668     1.0  0.87442  0.69453  0.36787  1.0000
  C   C2669     1.0  0.85231  0.70396  0.36725  1.0000
  C   C2670     1.0  0.85709  0.73040  0.36495  1.0000
  C   C2671     1.0  0.88431  0.74729  0.36360  1.0000
  C   C2672     1.0  0.90647  0.73790  0.36439  1.0000
  H   H2136     1.0  0.87040  0.67397  0.36937  1.0000
  H   H2137     1.0  0.83155  0.69067  0.36820  1.0000
  H   H2138     1.0  0.88828  0.76775  0.36173  1.0000
  H   H2139     1.0  0.92721  0.75110  0.36315  1.0000
  C   C2673     1.0  0.77700  0.86220  0.36339  1.0000
  C   C2674     1.0  0.77555  0.83961  0.35750  1.0000
  C   C2675     1.0  0.76292  0.81515  0.36360  1.0000
  C   C2676     1.0  0.75194  0.81330  0.37563  1.0000
  C   C2677     1.0  0.75450  0.83586  0.38166  1.0000
  C   C2678     1.0  0.76715  0.86022  0.37562  1.0000
  H   H2140     1.0  0.78344  0.84102  0.34809  1.0000
  H   H2141     1.0  0.76111  0.79783  0.35886  1.0000
  H   H2142     1.0  0.74688  0.83441  0.39111  1.0000
  H   H2143     1.0  0.76956  0.87752  0.38046  1.0000
  C   C2679     1.0  0.66936  0.91637  0.34208  1.0000
  C   C2680     1.0  0.64098  0.90650  0.34009  1.0000
  C   C2681     1.0  0.63046  0.89739  0.32843  1.0000
  H   H2144     1.0  0.89213  0.65203  0.40369  1.0000
  H   H2145     1.0  0.52382  0.53574  0.32235  1.0000
  C   C2682     1.0  0.68709  0.91709  0.33217  1.0000
  H   H2146     1.0  0.62700  0.90591  0.34763  1.0000
  C   C2683     1.0  0.67972  0.68734  0.45895  1.0000
  H   H2147     1.0  0.70894  0.92455  0.33350  1.0000
  C   C2684     1.0  0.74144  0.67788  0.44636  1.0000
  C   C2685     1.0  0.75255  0.69990  0.43821  1.0000
  C   C2686     1.0  0.75024  0.69776  0.42508  1.0000
  C   C2687     1.0  0.73640  0.67365  0.42012  1.0000
  C   C2688     1.0  0.72568  0.65200  0.42836  1.0000
  C   C2689     1.0  0.72821  0.65407  0.44126  1.0000
  H   H2148     1.0  0.76283  0.71841  0.44200  1.0000
  H   H2149     1.0  0.75882  0.71468  0.41884  1.0000
  H   H2150     1.0  0.71512  0.63331  0.42474  1.0000
  H   H2151     1.0  0.71966  0.63692  0.44737  1.0000
  H   H2152     1.0  0.76721  0.82379  0.44346  1.0000
  C   C2690     1.0  0.68845  0.71415  0.41568  1.0000
  S   S369      1.0  0.58593  0.61535  0.32147  1.0000
  H   H2153     1.0  0.64882  0.75549  0.44764  1.0000
  C   C2691     1.0  0.63827  0.71685  0.40776  1.0000
  C   C2692     1.0  0.89326  0.73663  0.45742  1.0000
  C   C2693     1.0  0.92864  0.68454  0.47238  1.0000
  C   C2694     1.0  0.64339  0.96533  0.31922  1.0000
  C   C2695     1.0  0.61671  0.95035  0.32293  1.0000
  H   H2154     1.0  0.61095  0.94779  0.33272  1.0000
  H   H2155     1.0  0.74240  0.88002  0.47235  1.0000
  C   C2696     1.0  0.75750  0.93478  0.42301  1.0000
  H   H2156     1.0  0.63849  0.68781  0.39506  1.0000
  S   S370      1.0  0.79787  0.94941  0.37826  1.0000
  H   H2157     1.0  0.72838  0.95192  0.41624  1.0000
  C   C2697     1.0  0.73277  0.95427  0.43624  1.0000
  C   C2698     1.0  0.66937  0.84680  0.33536  1.0000
  H   H2158     1.0  0.78548  0.91954  0.43270  1.0000
  C   C2699     1.0  0.93348  0.77524  0.45689  1.0000
  H   H2159     1.0  0.65968  0.84848  0.32664  1.0000
  C   C2700     1.0  0.73136  0.76229  0.43077  1.0000
  C   C2701     1.0  0.75005  0.76593  0.44052  1.0000
  C   C2702     1.0  0.77813  0.77655  0.43800  1.0000
  C   C2703     1.0  0.78773  0.78382  0.42577  1.0000
  C   C2704     1.0  0.76920  0.78057  0.41605  1.0000
  C   C2705     1.0  0.74116  0.76968  0.41851  1.0000
  C   C2706     1.0  0.68811  0.82181  0.43080  1.0000
  C   C2707     1.0  0.69689  0.80076  0.42927  1.0000
  H   H2160     1.0  0.49274  0.50527  0.33808  1.0000
  H   H2161     1.0  0.74312  0.76047  0.45008  1.0000
  H   H2162     1.0  0.79239  0.77907  0.44556  1.0000
  H   H2163     1.0  0.80949  0.79191  0.42382  1.0000
  H   H2164     1.0  0.77631  0.78644  0.40656  1.0000
  H   H2165     1.0  0.72718  0.76734  0.41083  1.0000
  H   H2166     1.0  0.69903  0.84027  0.42604  1.0000
  H   H2167     1.0  0.71442  0.80344  0.42327  1.0000
  C   C2708     1.0  0.82429  0.79089  0.38974  1.0000
  C   C2709     1.0  0.84472  0.80396  0.38099  1.0000
  C   C2710     1.0  0.86976  0.79980  0.38125  1.0000
  C   C2711     1.0  0.87428  0.78229  0.39016  1.0000
  C   C2712     1.0  0.85368  0.76874  0.39891  1.0000
  C   C2713     1.0  0.82878  0.77342  0.39872  1.0000
  P   P89       1.0  0.85823  0.74477  0.41007  1.0000
  C   C2714     1.0  0.84957  0.75249  0.42531  1.0000
  C   C2715     1.0  0.83751  0.71241  0.40648  1.0000
  C   C2716     1.0  0.82116  0.70790  0.39593  1.0000
  C   C2717     1.0  0.80384  0.68288  0.39380  1.0000
  C   C2718     1.0  0.80283  0.66224  0.40212  1.0000
  C   C2719     1.0  0.82003  0.66642  0.41234  1.0000
  C   C2720     1.0  0.83784  0.69133  0.41434  1.0000
  C   C2721     1.0  0.82943  0.73433  0.43296  1.0000
  C   C2722     1.0  0.82471  0.74001  0.44509  1.0000
  C   C2723     1.0  0.83938  0.76407  0.44953  1.0000
  C   C2724     1.0  0.85809  0.78286  0.44171  1.0000
  C   C2725     1.0  0.86307  0.77716  0.42962  1.0000
  C   C2726     1.0  0.89305  0.74527  0.40921  1.0000
  C   C2727     1.0  0.90177  0.73615  0.39861  1.0000
  C   C2728     1.0  0.92910  0.73824  0.39713  1.0000
  C   C2729     1.0  0.93918  0.75722  0.41713  1.0000
  C   C2730     1.0  0.91181  0.75520  0.41865  1.0000
  H   H2168     1.0  0.80459  0.79351  0.38913  1.0000
  H   H2169     1.0  0.84085  0.81673  0.37376  1.0000
  H   H2170     1.0  0.88534  0.80942  0.37425  1.0000
  H   H2171     1.0  0.89366  0.77912  0.38988  1.0000
  H   H2172     1.0  0.81245  0.76269  0.40519  1.0000
  H   H2173     1.0  0.82179  0.72354  0.38929  1.0000
  H   H2174     1.0  0.79094  0.67949  0.38575  1.0000
  H   H2175     1.0  0.78869  0.64305  0.40060  1.0000
  H   H2176     1.0  0.81930  0.65036  0.41875  1.0000
  H   H2177     1.0  0.85143  0.69438  0.42215  1.0000
  H   H2178     1.0  0.81720  0.71577  0.42971  1.0000
  H   H2179     1.0  0.80969  0.72568  0.45109  1.0000
  H   H2180     1.0  0.83614  0.76805  0.45903  1.0000
  H   H2181     1.0  0.86913  0.80167  0.44510  1.0000
  H   H2182     1.0  0.87799  0.79172  0.42371  1.0000
  H   H2183     1.0  0.88755  0.72797  0.39131  1.0000
  H   H2184     1.0  0.90562  0.76137  0.42717  1.0000
  C   C2731     1.0  0.57251  0.87478  0.40828  1.0000
  C   C2732     1.0  0.55867  0.85498  0.41703  1.0000
  C   C2733     1.0  0.57340  0.84499  0.42552  1.0000
  C   C2734     1.0  0.60198  0.85487  0.42530  1.0000
  C   C2735     1.0  0.61605  0.87506  0.41666  1.0000
  C   C2736     1.0  0.60109  0.88472  0.40805  1.0000
  P   P90       1.0  0.65300  0.88716  0.41617  1.0000
  C   C2737     1.0  0.66616  0.88924  0.43178  1.0000
  C   C2738     1.0  0.66557  0.86568  0.40776  1.0000
  C   C2739     1.0  0.69227  0.87464  0.40278  1.0000
  C   C2740     1.0  0.70294  0.85773  0.39713  1.0000
  C   C2741     1.0  0.68688  0.83184  0.39608  1.0000
  C   C2742     1.0  0.66010  0.82282  0.40080  1.0000
  C   C2743     1.0  0.64947  0.83961  0.40666  1.0000
  C   C2744     1.0  0.69226  0.88787  0.43399  1.0000
  C   C2745     1.0  0.70236  0.88919  0.44605  1.0000
  C   C2746     1.0  0.68706  0.89294  0.45596  1.0000
  C   C2747     1.0  0.66141  0.89513  0.45382  1.0000
  C   C2748     1.0  0.65095  0.89330  0.44178  1.0000
  C   C2749     1.0  0.66486  0.91937  0.40877  1.0000
  C   C2750     1.0  0.67098  0.94118  0.41596  1.0000
  C   C2751     1.0  0.91805  0.67455  0.46099  1.0000
  H   H2185     1.0  0.95012  0.72343  0.44898  1.0000
  C   C2752     1.0  0.92787  0.65651  0.45563  1.0000
  C   C2753     1.0  0.66735  0.92290  0.39574  1.0000
  H   H2186     1.0  0.56108  0.88240  0.40164  1.0000
  H   H2187     1.0  0.53652  0.84731  0.41718  1.0000
  H   H2188     1.0  0.56264  0.82953  0.43224  1.0000
  H   H2189     1.0  0.61310  0.84670  0.43185  1.0000
  H   H2190     1.0  0.61133  0.89991  0.40112  1.0000
  H   H2191     1.0  0.70511  0.89464  0.40349  1.0000
  H   H2192     1.0  0.72380  0.86482  0.39361  1.0000
  H   H2193     1.0  0.69523  0.81876  0.39165  1.0000
  H   H2194     1.0  0.64768  0.80272  0.40000  1.0000
  H   H2195     1.0  0.62882  0.83203  0.41037  1.0000
  H   H2196     1.0  0.70528  0.88641  0.42645  1.0000
  H   H2197     1.0  0.72269  0.88855  0.44759  1.0000
  H   H2198     1.0  0.69562  0.89527  0.46520  1.0000
  H   H2199     1.0  0.64999  0.89890  0.46148  1.0000
  H   H2200     1.0  0.63134  0.89570  0.44028  1.0000
  H   H2201     1.0  0.66926  0.93913  0.42601  1.0000
  C   C2754     1.0  0.65679  0.72498  0.35618  1.0000
  H   H2202     1.0  0.67696  0.66693  0.45866  1.0000
  C   C2755     1.0  0.91267  0.68165  0.41610  1.0000
  H   H2203     1.0  0.66259  0.90647  0.38994  1.0000
  C   C2756     1.0  0.65674  0.84975  0.34639  1.0000
  H   H2204     1.0  0.76858  0.76958  0.33203  1.0000
  H   H2205     1.0  0.86272  0.94564  0.46969  1.0000
  H   H2206     1.0  0.60863  0.89011  0.32708  1.0000
  C   C2757     1.0  0.68324  0.77678  0.43554  1.0000
  H   H2207     1.0  0.70899  0.83708  0.46802  1.0000
  H   H2208     1.0  0.67785  0.95042  0.37998  1.0000
  H   H2209     1.0  0.70778  0.71275  0.41864  1.0000
  S   S371      1.0  0.78052  0.74898  0.47334  1.0000
  C   C2758     1.0  0.68539  0.72489  0.47083  1.0000
  H   H2210     1.0  0.80479  0.97074  0.40392  1.0000
  S   S372      1.0  0.80475  0.95872  0.47713  1.0000
  H   H2211     1.0  0.93572  0.73136  0.38886  1.0000
  C   C2759     1.0  0.67596  0.94782  0.39004  1.0000
  C   C2760     1.0  0.65218  0.73224  0.41726  1.0000
  C   C2761     1.0  0.67752  0.73110  0.42125  1.0000
  C   C2762     1.0  0.66549  0.81904  0.43846  1.0000
  C   C2763     1.0  0.69456  0.84267  0.33572  1.0000
  H   H2212     1.0  0.86038  0.96092  0.43016  1.0000
  H   H2213     1.0  0.64647  0.78815  0.34343  1.0000
  S   S373      1.0  0.76185  0.92159  0.40879  1.0000
  H   H2214     1.0  0.68421  0.69381  0.43922  1.0000
  H   H2215     1.0  0.69485  0.78818  0.33207  1.0000
  P   P91       1.0  0.89466  0.68736  0.45276  1.0000
  H   H2216     1.0  0.85773  0.64251  0.44064  1.0000
  H   H2217     1.0  0.79539  0.67231  0.45344  1.0000
  H   H2218     1.0  0.95376  0.76500  0.42433  1.0000
  H   H2219     1.0  0.97493  0.65381  0.47722  1.0000
  C   C2764     1.0  0.94108  0.51020  0.31919  1.0000
  C   C2765     1.0  0.77105  0.92958  0.43359  1.0000
  C   C2766     1.0  0.66697  0.77115  0.35661  1.0000
  C   C2767     1.0  0.67998  0.96608  0.41021  1.0000
  H   H2220     1.0  0.72166  0.80902  0.45370  1.0000
  Fe  Fe180     1.0  0.78246  0.97868  0.36841  1.0000
  C   C2768     1.0  0.67425  0.69842  0.40640  1.0000
  C   C2769     1.0  0.74950  0.88949  0.32724  1.0000
  Fe  Fe181     1.0  0.97497  0.71613  0.36845  1.0000
  C   C2770     1.0  0.89226  0.65897  0.41296  1.0000
  C   C2771     1.0  0.66927  0.84893  0.35783  1.0000
  C   C2772     1.0  0.69420  0.84455  0.35828  1.0000
  C   C2773     1.0  0.70664  0.84118  0.34730  1.0000
  H   H2221     1.0  0.74506  0.88344  0.33696  1.0000
  H   H2222     1.0  0.77887  0.92598  0.33170  1.0000
  H   H2223     1.0  0.87173  0.72761  0.45966  1.0000
  H   H2224     1.0  0.65997  0.85223  0.36629  1.0000
  H   H2225     1.0  0.70428  0.84432  0.36709  1.0000
  H   H2226     1.0  0.72622  0.83835  0.34783  1.0000
  H   H2227     1.0  0.65886  0.83540  0.43975  1.0000
  H   H2228     1.0  0.68562  0.74955  0.36854  1.0000
  C   C2774     1.0  0.91296  0.69082  0.42800  1.0000
  H   H2229     1.0  0.68268  0.68498  0.40237  1.0000
  H   H2230     1.0  0.51456  0.65631  0.33433  1.0000
  C   C2775     1.0  0.67108  0.74859  0.36119  1.0000
  P   P92       1.0  0.61101  0.74540  0.32909  1.0000
  C   C2776     1.0  0.63390  0.74647  0.34193  1.0000
  C   C2777     1.0  0.60387  0.77544  0.32819  1.0000
  C   C2778     1.0  0.59224  0.78275  0.33853  1.0000
  C   C2779     1.0  0.58777  0.80646  0.33818  1.0000
  C   C2780     1.0  0.59560  0.82337  0.32765  1.0000
  C   C2781     1.0  0.96638  0.53011  0.31820  1.0000
  C   C2782     1.0  0.61190  0.79269  0.31769  1.0000
  S   S374      1.0  0.74292  0.96636  0.37965  1.0000
  H   H2231     1.0  0.78823  0.89442  0.46297  1.0000
  H   H2232     1.0  0.62808  0.70540  0.34274  1.0000
  C   C2783     1.0  0.73891  0.94787  0.42432  1.0000
  C   C2784     1.0  0.64859  0.77019  0.34700  1.0000
  C   C2785     1.0  0.58029  0.71730  0.33124  1.0000
  C   C2786     1.0  0.66008  0.77397  0.44297  1.0000
  C   C2787     1.0  0.68252  0.96941  0.39726  1.0000
  C   C2788     1.0  0.53284  0.67328  0.33352  1.0000
  C   C2789     1.0  0.53146  0.69769  0.33557  1.0000
  C   C2790     1.0  0.55500  0.71965  0.33432  1.0000
  H   H2233     1.0  0.61880  0.71784  0.40466  1.0000
  H   H2234     1.0  0.66040  0.70750  0.35954  1.0000
  C   C2791     1.0  0.76556  0.93666  0.44543  1.0000
  H   H2235     1.0  0.66656  0.74607  0.32240  1.0000
  H   H2236     1.0  0.87874  0.81873  0.47266  1.0000
  H   H2237     1.0  0.58666  0.77010  0.34688  1.0000
  H   H2238     1.0  0.57822  0.81175  0.34606  1.0000
  H   H2239     1.0  0.59214  0.84174  0.32732  1.0000
  H   H2240     1.0  0.77051  0.84488  0.31840  1.0000
  C   C2792     1.0  0.64929  0.69991  0.40235  1.0000
  H   H2241     1.0  0.63764  0.85359  0.34602  1.0000
  C   C2793     1.0  0.68881  0.72947  0.44822  1.0000
  C   C2794     1.0  0.69000  0.74047  0.45981  1.0000
  H   H2242     1.0  0.89331  0.77387  0.46266  1.0000
  H   H2243     1.0  0.71729  0.96311  0.43728  1.0000
  H   H2244     1.0  0.92865  0.69184  0.40934  1.0000
  C   C2795     1.0  0.58128  0.69267  0.32899  1.0000
  C   C2796     1.0  0.81264  0.67089  0.45874  1.0000
  H   H2245     1.0  0.51201  0.69971  0.33784  1.0000
  H   H2246     1.0  0.55292  0.73831  0.33539  1.0000
  C   C2797     1.0  0.85671  0.93890  0.46047  1.0000
  H   H2247     1.0  0.67843  0.78941  0.36044  1.0000
  C   C2798     1.0  0.85519  0.94748  0.43824  1.0000
  C   C2799     1.0  0.84024  0.92138  0.43681  1.0000
  C   C2800     1.0  0.83355  0.90382  0.44725  1.0000
  C   C2801     1.0  0.84210  0.91278  0.45906  1.0000
  P   P93       1.0  0.81545  0.86975  0.44570  1.0000
  C   C2802     1.0  0.81235  0.86235  0.42948  1.0000
  C   C2803     1.0  0.83541  0.85262  0.45364  1.0000
  C   C2804     1.0  0.86410  0.86340  0.45346  1.0000
  C   C2805     1.0  0.87969  0.85117  0.46024  1.0000
  C   C2806     1.0  0.86680  0.82806  0.46719  1.0000
  C   C2807     1.0  0.83837  0.81699  0.46717  1.0000
  C   C2808     1.0  0.82269  0.82906  0.46038  1.0000
  C   C2809     1.0  0.82965  0.85100  0.42391  1.0000
  C   C2810     1.0  0.82735  0.84604  0.41125  1.0000
  C   C2811     1.0  0.80799  0.85257  0.40406  1.0000
  C   C2812     1.0  0.79077  0.86389  0.40955  1.0000
  C   C2813     1.0  0.79273  0.86853  0.42222  1.0000
  C   C2814     1.0  0.78136  0.86018  0.45243  1.0000
  C   C2815     1.0  0.77394  0.87599  0.46055  1.0000
  C   C2816     1.0  0.74775  0.86786  0.46594  1.0000
  C   C2817     1.0  0.72890  0.84375  0.46345  1.0000
  C   C2818     1.0  0.73604  0.82796  0.45535  1.0000
  C   C2819     1.0  0.76200  0.83628  0.44970  1.0000
  C   C2820     1.0  0.55773  0.67080  0.33019  1.0000
  H   H2248     1.0  0.68668  0.73358  0.47973  1.0000
  H   H2249     1.0  0.69502  0.76113  0.46043  1.0000
  H   H2250     1.0  0.83408  0.91511  0.42757  1.0000
  H   H2251     1.0  0.83734  0.89952  0.46723  1.0000
  H   H2252     1.0  0.87442  0.88153  0.44828  1.0000
  H   H2253     1.0  0.90175  0.85987  0.46030  1.0000
  H   H2254     1.0  0.71887  0.75693  0.33661  1.0000
  P   P94       1.0  0.69505  0.74970  0.43398  1.0000
  H   H2255     1.0  0.80069  0.82031  0.46080  1.0000
  H   H2256     1.0  0.84498  0.84606  0.42926  1.0000
  H   H2257     1.0  0.84076  0.83739  0.40694  1.0000
  H   H2258     1.0  0.80651  0.84911  0.39421  1.0000
  H   H2259     1.0  0.77613  0.86952  0.40397  1.0000
  H   H2260     1.0  0.77922  0.87738  0.42627  1.0000
  C   C2821     1.0  0.63833  0.72388  0.34659  1.0000
  C   C2822     1.0  0.87246  0.64503  0.42183  1.0000
  C   C2823     1.0  0.86095  0.67612  0.45996  1.0000
  H   H2261     1.0  0.60014  0.69029  0.32607  1.0000
  C   C2824     1.0  0.90547  0.76307  0.45913  1.0000
  C   C2825     1.0  0.75798  0.78320  0.32993  1.0000
  H   H2262     1.0  0.92940  0.70807  0.43021  1.0000
  C   C2826     1.0  0.85702  0.66745  0.47256  1.0000
  C   C2827     1.0  0.87279  0.65401  0.43379  1.0000
  H   H2263     1.0  0.85701  0.62710  0.41946  1.0000
  C   C2828     1.0  0.72999  0.77610  0.33251  1.0000
  C   C2829     1.0  0.72605  0.97712  0.31532  1.0000
  C   C2830     1.0  0.74509  0.98105  0.32486  1.0000
  C   C2831     1.0  0.83103  0.66042  0.47815  1.0000
  C   C2832     1.0  0.49618  0.49853  0.32915  1.0000
  C   C2833     1.0  0.89283  0.67724  0.43693  1.0000
  H   H2264     1.0  0.97114  0.77005  0.45150  1.0000
  C   C2834     1.0  0.93728  0.73447  0.45141  1.0000
  C   C2835     1.0  0.73074  0.81872  0.32480  1.0000
  C   C2836     1.0  0.64819  0.89864  0.31844  1.0000
  C   C2837     1.0  0.80885  0.66205  0.47123  1.0000
  H   H2265     1.0  0.87481  0.97650  0.45119  1.0000
  H   H2266     1.0  0.97066  0.64304  0.32127  1.0000
  C   C2838     1.0  0.90912  0.72209  0.45351  1.0000
  C   C2839     1.0  0.75886  0.82572  0.32223  1.0000
  H   H2267     1.0  0.84125  0.68555  0.44357  1.0000
  C   C2840     1.0  0.94934  0.76093  0.45297  1.0000
  H   H2268     1.0  0.92177  0.69875  0.47665  1.0000
  C   C2841     1.0  0.94780  0.74896  0.40633  1.0000
  C   C2842     1.0  0.68016  0.69831  0.47040  1.0000
  C   C2843     1.0  0.76872  0.91390  0.32428  1.0000
  H   H2269     1.0  0.96892  0.75056  0.40513  1.0000
  H   H2270     1.0  0.94300  0.79557  0.45852  1.0000
  C   C2844     1.0  0.83860  0.67813  0.45315  1.0000
  C   C2845     1.0  0.95877  0.65920  0.47278  1.0000
  Fe  Fe182     1.0  0.75808  0.70705  0.47788  1.0000
  P   P95       1.0  0.71265  0.84116  0.32157  1.0000
  H   H2271     1.0  0.78869  0.65672  0.47555  1.0000
  C   C2846     1.0  0.67659  0.90859  0.32044  1.0000
  H   H2272     1.0  0.79421  0.81359  0.32306  1.0000
  H   H2273     1.0  0.95625  0.63561  0.45719  1.0000
  H   H2274     1.0  0.87390  0.66635  0.47817  1.0000
  H   H2275     1.0  0.66760  0.69510  0.31887  1.0000
  C   C2847     1.0  0.73685  0.87317  0.31777  1.0000
  Fe  Fe183     1.0  0.76017  0.95233  0.47916  1.0000
  H   H2276     1.0  0.82841  0.79924  0.47267  1.0000
  H   H2277     1.0  0.93681  0.49602  0.32699  1.0000
  C   C2848     1.0  0.51364  0.51569  0.32028  1.0000
  C   C2849     1.0  0.60800  0.81664  0.31752  1.0000
  C   C2850     1.0  0.94871  0.67670  0.47826  1.0000
  H   H2278     1.0  0.65620  0.60736  0.31775  1.0000
  H   H2279     1.0  0.65784  0.97420  0.32628  1.0000
  H   H2280     1.0  0.67731  0.68629  0.47894  1.0000
  H   H2281     1.0  0.81518  0.97958  0.44713  1.0000
  H   H2282     1.0  0.57723  0.92587  0.31701  1.0000
  C   C2851     1.0  0.62649  0.74073  0.31480  1.0000
  Fe  Fe184     1.0  0.78469  0.91918  0.62272  1.0000
  S   S375      1.0  0.74344  0.92401  0.62093  1.0000
  S   S376      1.0  0.79651  0.88407  0.62900  1.0000
  C   C2852     1.0  0.95154  0.76576  0.57476  1.0000
  Fe  Fe185     1.0  0.75876  0.94214  0.60181  1.0000
  S   S377      1.0  0.73043  0.93036  0.58536  1.0000
  H   H2283     1.0  0.69080  0.95261  0.59782  1.0000
  S   S378      1.0  0.79849  0.93513  0.60330  1.0000
  S   S379      1.0  0.94048  0.73241  0.60469  1.0000
  Fe  Fe186     1.0  0.79891  0.71547  0.62682  1.0000
  S   S380      1.0  0.78306  0.68140  0.61509  1.0000
  S   S381      1.0  0.83665  0.72018  0.63804  1.0000
  Fe  Fe187     1.0  0.75060  0.73349  0.62150  1.0000
  S   S382      1.0  0.73046  0.69928  0.60980  1.0000
  S   S383      1.0  0.73045  0.76415  0.62360  1.0000
  Fe  Fe188     1.0  0.74301  0.67537  0.62506  1.0000
  Fe  Fe189     1.0  0.77247  0.70835  0.60110  1.0000
  S   S384      1.0  0.79005  0.71640  0.58107  1.0000
  C   C2853     1.0  0.87584  0.74288  0.52523  1.0000
  S   S385      1.0  0.79174  0.74324  0.61235  1.0000
  C   C2854     1.0  0.73791  0.75775  0.53370  1.0000
  H   H2284     1.0  0.78111  0.94792  0.54450  1.0000
  C   C2855     1.0  0.75248  0.76863  0.57279  1.0000
  C   C2856     1.0  0.95325  0.84432  0.62200  1.0000
  Fe  Fe190     1.0  0.79821  0.92935  0.49317  1.0000
  S   S386      1.0  0.81752  0.89829  0.49250  1.0000
  S   S387      1.0  0.75281  0.92067  0.49420  1.0000
  Fe  Fe191     1.0  0.76192  0.71391  0.50671  1.0000
  S   S388      1.0  0.78498  0.75639  0.50380  1.0000
  S   S389      1.0  0.74535  0.69429  0.52580  1.0000
  C   C2857     1.0  0.89276  0.84618  0.61349  1.0000
  C   C2858     1.0  0.68509  0.94439  0.60722  1.0000
  Fe  Fe192     1.0  0.80813  0.74501  0.48879  1.0000
  C   C2859     1.0  0.61547  0.87912  0.64172  1.0000
  Fe  Fe193     1.0  0.75516  0.75589  0.48868  1.0000
  C   C2860     1.0  0.66841  0.90687  0.62162  1.0000
  S   S390      1.0  0.78718  0.70226  0.49261  1.0000
  S   S391      1.0  0.73042  0.71412  0.49233  1.0000
  C   C2861     1.0  0.83840  0.78792  0.64216  1.0000
  C   C2862     1.0  0.87440  0.74837  0.49046  1.0000
  C   C2863     1.0  0.70347  0.82634  0.54291  1.0000
  H   H2285     1.0  0.67216  0.90519  0.60169  1.0000
  C   C2864     1.0  0.71222  0.93508  0.56202  1.0000
  C   C2865     1.0  0.91958  0.74784  0.49589  1.0000
  C   C2866     1.0  0.90254  0.76128  0.49141  1.0000
  H   H2286     1.0  0.95503  0.74271  0.54155  1.0000
  C   C2867     1.0  0.84800  0.62831  0.64193  1.0000
  H   H2287     1.0  0.94123  0.75794  0.49679  1.0000
  H   H2288     1.0  0.67908  0.85987  0.64480  1.0000
  C   C2868     1.0  0.79445  0.86648  0.49189  1.0000
  C   C2869     1.0  0.85826  0.76045  0.59207  1.0000
  C   C2870     1.0  0.77860  0.85262  0.59264  1.0000
  C   C2871     1.0  0.66969  0.84153  0.60719  1.0000
  H   H2289     1.0  0.68076  0.71519  0.62277  1.0000
  C   C2872     1.0  0.80388  0.84683  0.48829  1.0000
  C   C2873     1.0  0.88925  0.79697  0.60228  1.0000
  H   H2290     1.0  0.91350  0.75091  0.53486  1.0000
  H   H2291     1.0  0.92864  0.65666  0.52133  1.0000
  H   H2292     1.0  0.57398  0.85634  0.63765  1.0000
  C   C2874     1.0  0.77673  0.71056  0.56582  1.0000
  C   C2875     1.0  0.79405  0.72184  0.55547  1.0000
  C   C2876     1.0  0.78456  0.71783  0.54319  1.0000
  C   C2877     1.0  0.75790  0.70159  0.54108  1.0000
  C   C2878     1.0  0.74060  0.69029  0.55142  1.0000
  C   C2879     1.0  0.74981  0.69497  0.56372  1.0000
  H   H2293     1.0  0.81505  0.73354  0.55693  1.0000
  H   H2294     1.0  0.79801  0.72683  0.53535  1.0000
  H   H2295     1.0  0.71993  0.67769  0.54991  1.0000
  H   H2296     1.0  0.73626  0.68603  0.57154  1.0000
  C   C2880     1.0  0.80369  0.87096  0.59549  1.0000
  C   C2881     1.0  0.91154  0.72640  0.61433  1.0000
  C   C2882     1.0  0.91362  0.72750  0.62727  1.0000
  C   C2883     1.0  0.89039  0.72497  0.63459  1.0000
  C   C2884     1.0  0.86510  0.72125  0.62897  1.0000
  C   C2885     1.0  0.86282  0.71888  0.61612  1.0000
  C   C2886     1.0  0.88605  0.72167  0.60881  1.0000
  H   H2297     1.0  0.81829  0.77942  0.54922  1.0000
  H   H2298     1.0  0.84328  0.71556  0.61177  1.0000
  H   H2299     1.0  0.88436  0.72058  0.59882  1.0000
  C   C2887     1.0  0.77800  0.85114  0.62648  1.0000
  C   C2888     1.0  0.74998  0.84246  0.62414  1.0000
  C   C2889     1.0  0.73569  0.81583  0.62309  1.0000
  C   C2890     1.0  0.74939  0.79769  0.62410  1.0000
  C   C2891     1.0  0.77761  0.80653  0.62592  1.0000
  C   C2892     1.0  0.79175  0.83305  0.62728  1.0000
  H   H2300     1.0  0.73924  0.85620  0.62348  1.0000
  H   H2301     1.0  0.71389  0.80924  0.62160  1.0000
  H   H2302     1.0  0.78836  0.79281  0.62659  1.0000
  H   H2303     1.0  0.94625  0.86036  0.62353  1.0000
  C   C2893     1.0  0.72278  0.76589  0.52473  1.0000
  C   C2894     1.0  0.76044  0.94127  0.56260  1.0000
  C   C2895     1.0  0.71374  0.93847  0.54902  1.0000
  C   C2896     1.0  0.66216  0.82105  0.59926  1.0000
  C   C2897     1.0  0.76190  0.94435  0.54936  1.0000
  H   H2304     1.0  0.73509  0.87208  0.59714  1.0000
  C   C2898     1.0  0.73968  0.75156  0.58274  1.0000
  C   C2899     1.0  0.72499  0.75925  0.59166  1.0000
  C   C2900     1.0  0.72301  0.78400  0.59066  1.0000
  H   H2305     1.0  0.74142  0.73246  0.58361  1.0000
  C   C2901     1.0  0.93518  0.82084  0.61804  1.0000
  H   H2306     1.0  0.71243  0.78970  0.59802  1.0000
  H   H2307     1.0  0.67229  0.63849  0.61628  1.0000
  C   C2902     1.0  0.84098  0.65066  0.63988  1.0000
  H   H2308     1.0  0.76411  0.76253  0.56603  1.0000
  H   H2309     1.0  0.83512  0.90667  0.58955  1.0000
  C   C2903     1.0  0.92236  0.62754  0.62769  1.0000
  C   C2904     1.0  0.67452  0.91757  0.60943  1.0000
  H   H2310     1.0  0.82537  0.76872  0.57118  1.0000
  C   C2905     1.0  0.87473  0.76733  0.58132  1.0000
  C   C2906     1.0  0.96528  0.67620  0.54739  1.0000
  C   C2907     1.0  0.89684  0.65522  0.62081  1.0000
  H   H2311     1.0  0.95309  0.62531  0.61482  1.0000
  C   C2908     1.0  0.75746  0.81634  0.48907  1.0000
  H   H2312     1.0  0.79265  0.80644  0.48442  1.0000
  C   C2909     1.0  0.55593  0.63601  0.61187  1.0000
  H   H2313     1.0  0.87177  0.68819  0.50108  1.0000
  S   S392      1.0  0.85324  0.76572  0.48535  1.0000
  H   H2314     1.0  0.70331  0.72348  0.64311  1.0000
  H   H2315     1.0  0.69278  0.93130  0.56675  1.0000
  H   H2316     1.0  0.89212  0.72636  0.64457  1.0000
  H   H2317     1.0  0.82543  0.85111  0.48637  1.0000
  C   C2910     1.0  0.56800  0.65261  0.62124  1.0000
  C   C2911     1.0  0.97486  0.77027  0.55488  1.0000
  H   H2318     1.0  0.91116  0.78172  0.48881  1.0000
  H   H2319     1.0  0.84202  0.71173  0.49283  1.0000
  H   H2320     1.0  0.93810  0.67064  0.64501  1.0000
  Fe  Fe194     1.0  0.81409  0.97370  0.61176  1.0000
  C   C2912     1.0  0.70009  0.85022  0.54033  1.0000
  H   H2321     1.0  0.59334  0.59597  0.61413  1.0000
  H   H2322     1.0  0.87392  0.53877  0.64609  1.0000
  C   C2913     1.0  0.78541  0.82168  0.48706  1.0000
  H   H2323     1.0  0.87322  0.88275  0.59127  1.0000
  C   C2914     1.0  0.86285  0.69728  0.57097  1.0000
  C   C2915     1.0  0.82747  0.60396  0.64138  1.0000
  H   H2324     1.0  0.67497  0.80272  0.58446  1.0000
  C   C2916     1.0  0.85188  0.66326  0.58734  1.0000
  C   C2917     1.0  0.75034  0.79334  0.57166  1.0000
  C   C2918     1.0  0.68869  0.70454  0.64152  1.0000
  C   C2919     1.0  0.84672  0.68415  0.58124  1.0000
  H   H2325     1.0  0.71543  0.74613  0.59949  1.0000
  C   C2920     1.0  0.64233  0.60531  0.62585  1.0000
  H   H2326     1.0  0.81754  0.78742  0.64340  1.0000
  H   H2327     1.0  0.72656  0.83160  0.49482  1.0000
  C   C2921     1.0  0.58652  0.61186  0.61622  1.0000
  C   C2922     1.0  0.89190  0.78825  0.63887  1.0000
  H   H2328     1.0  0.77300  0.62318  0.63461  1.0000
  C   C2923     1.0  0.81412  0.64873  0.63725  1.0000
  H   H2329     1.0  0.69289  0.61282  0.60431  1.0000
  C   C2924     1.0  0.84933  0.72566  0.52389  1.0000
  H   H2330     1.0  0.91236  0.78772  0.63776  1.0000
  C   C2925     1.0  0.93125  0.64955  0.60723  1.0000
  H   H2331     1.0  0.91358  0.73459  0.57717  1.0000
  C   C2926     1.0  0.88622  0.85453  0.60171  1.0000
  C   C2927     1.0  0.80052  0.60214  0.63876  1.0000
  H   H2332     1.0  0.87021  0.90690  0.60979  1.0000
  H   H2333     1.0  0.88223  0.66482  0.62246  1.0000
  Fe  Fe195     1.0  0.76352  0.95128  0.50834  1.0000
  H   H2334     1.0  0.81344  0.83958  0.62906  1.0000
  H   H2335     1.0  0.87493  0.58013  0.63555  1.0000
  H   H2336     1.0  0.79524  0.92211  0.52895  1.0000
  H   H2337     1.0  0.84008  0.74340  0.59239  1.0000
  H   H2338     1.0  0.83937  0.65317  0.59532  1.0000
  C   C2928     1.0  0.86545  0.77519  0.60253  1.0000
  C   C2929     1.0  0.64390  0.56362  0.62011  1.0000
  C   C2930     1.0  0.71499  0.85737  0.59772  1.0000
  C   C2931     1.0  0.89297  0.73746  0.53419  1.0000
  C   C2932     1.0  0.92466  0.68882  0.54710  1.0000
  H   H2339     1.0  0.61664  0.89344  0.63424  1.0000
  H   H2340     1.0  0.68761  0.96275  0.63694  1.0000
  H   H2341     1.0  0.83979  0.80871  0.49598  1.0000
  S   S393      1.0  0.73690  0.94488  0.52595  1.0000
  C   C2933     1.0  0.70532  0.86823  0.54950  1.0000
  C   C2934     1.0  0.70784  0.83637  0.58999  1.0000
  H   H2342     1.0  0.90865  0.67516  0.60285  1.0000
  H   H2343     1.0  0.83617  0.72982  0.51687  1.0000
  C   C2935     1.0  0.94495  0.80033  0.61626  1.0000
  H   H2344     1.0  0.91121  0.79433  0.57264  1.0000
  H   H2345     1.0  0.70397  0.75231  0.52143  1.0000
  H   H2346     1.0  0.53942  0.63893  0.60653  1.0000
  H   H2347     1.0  0.70233  0.88658  0.54752  1.0000
  C   C2936     1.0  0.88948  0.66867  0.57291  1.0000
  C   C2937     1.0  0.95349  0.74933  0.55076  1.0000
  H   H2348     1.0  0.89945  0.67786  0.53085  1.0000
  C   C2938     1.0  0.76538  0.85563  0.58158  1.0000
  H   H2349     1.0  0.90592  0.66237  0.56987  1.0000
  H   H2350     1.0  0.72091  0.79737  0.51252  1.0000
  H   H2351     1.0  0.88327  0.76016  0.51910  1.0000
  H   H2352     1.0  0.84961  0.67921  0.54589  1.0000
  C   C2939     1.0  0.68933  0.96053  0.61718  1.0000
  C   C2940     1.0  0.84004  0.70277  0.53136  1.0000
  H   H2353     1.0  0.66135  0.88609  0.62326  1.0000
  H   H2354     1.0  0.95492  0.69730  0.56163  1.0000
  H   H2355     1.0  0.73068  0.73782  0.53738  1.0000
  C   C2941     1.0  0.88005  0.79967  0.62954  1.0000
  C   C2942     1.0  0.86348  0.72195  0.49375  1.0000
  C   C2943     1.0  0.75726  0.80853  0.52356  1.0000
  C   C2944     1.0  0.77269  0.80060  0.53265  1.0000
  C   C2945     1.0  0.76281  0.77488  0.53758  1.0000
  P   P96       1.0  0.80584  0.82280  0.53684  1.0000
  C   C2946     1.0  0.81428  0.81643  0.55275  1.0000
  C   C2947     1.0  0.83135  0.81920  0.52640  1.0000
  C   C2948     1.0  0.85732  0.82048  0.53068  1.0000
  C   C2949     1.0  0.87655  0.81689  0.52252  1.0000
  C   C2950     1.0  0.87017  0.81248  0.51003  1.0000
  C   C2951     1.0  0.84474  0.81203  0.50566  1.0000
  C   C2952     1.0  0.82541  0.81536  0.51381  1.0000
  C   C2953     1.0  0.81714  0.83466  0.56181  1.0000
  C   C2954     1.0  0.82292  0.82903  0.57412  1.0000
  C   C2955     1.0  0.82558  0.80518  0.57753  1.0000
  C   C2956     1.0  0.82363  0.78734  0.56852  1.0000
  C   C2957     1.0  0.81879  0.79320  0.55613  1.0000
  C   C2958     1.0  0.80384  0.85494  0.53484  1.0000
  C   C2959     1.0  0.82264  0.87418  0.52714  1.0000
  C   C2960     1.0  0.81968  0.89843  0.52514  1.0000
  C   C2961     1.0  0.79789  0.90355  0.53069  1.0000
  C   C2962     1.0  0.77908  0.88451  0.53830  1.0000
  C   C2963     1.0  0.78207  0.86032  0.54042  1.0000
  H   H2356     1.0  0.76468  0.82784  0.51914  1.0000
  H   H2357     1.0  0.77423  0.76751  0.54418  1.0000
  H   H2358     1.0  0.86278  0.82417  0.54027  1.0000
  H   H2359     1.0  0.89640  0.81748  0.52587  1.0000
  C   C2964     1.0  0.73832  0.94276  0.54252  1.0000
  H   H2360     1.0  0.80573  0.81468  0.51027  1.0000
  H   H2361     1.0  0.81491  0.85320  0.55948  1.0000
  H   H2362     1.0  0.82504  0.84302  0.58106  1.0000
  H   H2363     1.0  0.82913  0.80047  0.58715  1.0000
  H   H2364     1.0  0.83920  0.87047  0.52242  1.0000
  H   H2365     1.0  0.71429  0.80176  0.55637  1.0000
  H   H2366     1.0  0.95112  0.77163  0.58421  1.0000
  H   H2367     1.0  0.76197  0.88855  0.54234  1.0000
  H   H2368     1.0  0.76714  0.84561  0.54621  1.0000
  H   H2369     1.0  0.93319  0.73097  0.63160  1.0000
  H   H2370     1.0  0.94300  0.65441  0.59858  1.0000
  C   C2965     1.0  0.73238  0.79129  0.51971  1.0000
  H   H2371     1.0  0.64782  0.67198  0.61889  1.0000
  C   C2966     1.0  0.85712  0.69722  0.54030  1.0000
  C   C2967     1.0  0.89841  0.78907  0.58098  1.0000
  H   H2372     1.0  0.85273  0.76911  0.61085  1.0000
  H   H2373     1.0  0.85828  0.71317  0.56627  1.0000
  C   C2968     1.0  0.90842  0.72151  0.49946  1.0000
  C   C2969     1.0  0.73539  0.93652  0.56896  1.0000
  H   H2374     1.0  0.76036  0.80634  0.56389  1.0000
  C   C2970     1.0  0.73499  0.80102  0.58043  1.0000
  H   H2375     1.0  0.76824  0.88015  0.56481  1.0000
  H   H2376     1.0  0.88484  0.80932  0.50371  1.0000
  H   H2377     1.0  0.86909  0.75582  0.57326  1.0000
  C   C2971     1.0  0.79387  0.62453  0.63665  1.0000
  Fe  Fe196     1.0  0.76356  0.96391  0.62823  1.0000
  H   H2378     1.0  0.87692  0.63905  0.58777  1.0000
  S   S394      1.0  0.80387  0.95772  0.63143  1.0000
  H   H2379     1.0  0.76917  0.83643  0.59923  1.0000
  H   H2380     1.0  0.77850  0.94230  0.56785  1.0000
  H   H2381     1.0  0.88652  0.84393  0.59356  1.0000
  C   C2972     1.0  0.88041  0.70857  0.49835  1.0000
  P   P97       1.0  0.73188  0.83282  0.57872  1.0000
  C   C2973     1.0  0.93009  0.74470  0.57068  1.0000
  H   H2382     1.0  0.80904  0.66614  0.63578  1.0000
  C   C2974     1.0  0.68309  0.94988  0.62935  1.0000
  C   C2975     1.0  0.90577  0.80375  0.59145  1.0000
  C   C2976     1.0  0.91169  0.66105  0.60958  1.0000
  C   C2977     1.0  0.93088  0.73634  0.55861  1.0000
  C   C2978     1.0  0.76669  0.86056  0.49470  1.0000
  H   H2383     1.0  0.92796  0.61574  0.63484  1.0000
  H   H2384     1.0  0.81246  0.91183  0.56978  1.0000
  C   C2979     1.0  0.88338  0.88209  0.62249  1.0000
  C   C2980     1.0  0.69602  0.85976  0.60635  1.0000
  C   C2981     1.0  0.80323  0.89506  0.57608  1.0000
  H   H2385     1.0  0.71867  0.87706  0.56813  1.0000
  S   S395      1.0  0.72121  0.63373  0.63311  1.0000
  H   H2386     1.0  0.81329  0.86902  0.60426  1.0000
  C   C2982     1.0  0.81605  0.89211  0.58719  1.0000
  C   C2983     1.0  0.67249  0.92298  0.63168  1.0000
  C   C2984     1.0  0.77796  0.87696  0.57329  1.0000
  H   H2387     1.0  0.83009  0.69009  0.58446  1.0000
  S   S396      1.0  0.75954  0.70884  0.63722  1.0000
  H   H2388     1.0  0.92441  0.82036  0.59113  1.0000
  H   H2389     1.0  0.89588  0.85400  0.63308  1.0000
  C   C2985     1.0  0.68108  0.81860  0.59061  1.0000
  H   H2390     1.0  0.84335  0.80754  0.62409  1.0000
  H   H2391     1.0  0.65506  0.84336  0.61392  1.0000
  H   H2392     1.0  0.75943  0.87498  0.49822  1.0000
  H   H2393     1.0  0.59846  0.66188  0.63538  1.0000
  H   H2394     1.0  0.81954  0.68928  0.53020  1.0000
  H   H2395     1.0  0.83381  0.91303  0.51893  1.0000
  C   C2986     1.0  0.87307  0.65538  0.58310  1.0000
  C   C2987     1.0  0.88448  0.68974  0.56676  1.0000
  S   S397      1.0  0.80873  0.95884  0.50784  1.0000
  C   C2988     1.0  0.85305  0.79916  0.63122  1.0000
  H   H2396     1.0  0.69321  0.85476  0.53126  1.0000
  H   H2397     1.0  0.69544  0.93726  0.54392  1.0000
  C   C2989     1.0  0.87842  0.87651  0.60036  1.0000
  H   H2398     1.0  0.97123  0.65612  0.53157  1.0000
  H   H2399     1.0  0.70190  0.87586  0.61235  1.0000
  H   H2400     1.0  0.69890  0.81217  0.53587  1.0000
  H   H2401     1.0  0.93132  0.78189  0.61337  1.0000
  C   C2990     1.0  0.87681  0.89017  0.61076  1.0000
  C   C2991     1.0  0.88358  0.71478  0.54197  1.0000
  C   C2992     1.0  0.91734  0.67701  0.53576  1.0000
  C   C2993     1.0  0.58936  0.64890  0.62811  1.0000
  C   C2994     1.0  0.94862  0.68806  0.55294  1.0000
  C   C2995     1.0  0.90169  0.63801  0.62987  1.0000
  H   H2402     1.0  0.88170  0.89250  0.63057  1.0000
  P   P98       1.0  0.89936  0.81598  0.61575  1.0000
  C   C2996     1.0  0.89144  0.86028  0.62386  1.0000
  C   C2997     1.0  0.71916  0.83919  0.56367  1.0000
  C   C2998     1.0  0.71260  0.82065  0.55458  1.0000
  C   C2999     1.0  0.71466  0.86274  0.56114  1.0000
  C   C3000     1.0  0.93683  0.63306  0.61634  1.0000
  P   P99       1.0  0.90544  0.70722  0.55357  1.0000
  S   S398      1.0  0.92910  0.70440  0.50529  1.0000
  C   C3001     1.0  0.95799  0.66473  0.53604  1.0000
  H   H2403     1.0  0.64166  0.80707  0.59981  1.0000
  C   C3002     1.0  0.74812  0.83575  0.49300  1.0000
  C   C3003     1.0  0.93393  0.66494  0.53030  1.0000
  H   H2404     1.0  0.85625  0.66972  0.64027  1.0000
  H   H2405     1.0  0.95673  0.68451  0.48702  1.0000
  P   P100      1.0  0.62649  0.62396  0.63451  1.0000
  H   H2406     1.0  0.67521  0.56491  0.60670  1.0000
  H   H2407     1.0  0.78473  0.58339  0.63833  1.0000
  H   H2408     1.0  0.56083  0.66840  0.62319  1.0000
  C   C3004     1.0  0.59884  0.62854  0.62562  1.0000
  C   C3005     1.0  0.66574  0.57609  0.61190  1.0000
  Fe  Fe197     1.0  0.97355  0.72680  0.50215  1.0000
  C   C3006     1.0  0.67592  0.69983  0.63004  1.0000
  H   H2409     1.0  0.55582  0.60278  0.60210  1.0000
  S   S399      1.0  0.73412  0.78541  0.48682  1.0000
  C   C3007     1.0  0.97396  0.77848  0.56690  1.0000
  H   H2410     1.0  0.63626  0.54270  0.62121  1.0000
  C   C3008     1.0  0.67559  0.60307  0.61048  1.0000
  C   C3009     1.0  0.65731  0.67534  0.62790  1.0000
  C   C3010     1.0  0.63208  0.57813  0.62699  1.0000
  P   P101      1.0  0.88332  0.63136  0.64461  1.0000
  C   C3011     1.0  0.66382  0.61763  0.61735  1.0000
  H   H2411     1.0  0.70166  0.58060  0.64262  1.0000
  C   C3012     1.0  0.56517  0.61564  0.60937  1.0000
  C   C3013     1.0  0.65123  0.65534  0.63728  1.0000
  H   H2412     1.0  0.61506  0.56812  0.63325  1.0000
  H   H2413     1.0  0.82814  0.65398  0.48790  1.0000
  C   C3014     1.0  0.97228  0.80318  0.61846  1.0000
  C   C3015     1.0  0.59117  0.85821  0.64369  1.0000
  H   H2414     1.0  0.83192  0.58629  0.64297  1.0000
  C   C3016     1.0  0.87938  0.57949  0.64538  1.0000
  H   H2415     1.0  0.63941  0.94590  0.64754  1.0000
  H   H2416     1.0  0.72084  0.84824  0.64698  1.0000
  P   P102      1.0  0.66888  0.90897  0.64741  1.0000
  C   C3017     1.0  0.69781  0.87432  0.64755  1.0000
  C   C3018     1.0  0.57344  0.89231  0.81267  1.0000
  S   S400      1.0  0.61749  0.50210  0.80190  1.0000
  S   S401      1.0  0.91407  0.53403  0.80125  1.0000
  C   C3019     1.0  0.53781  0.97208  0.80218  1.0000
  Fe  Fe198     1.0  0.89859  0.51774  0.72521  1.0000
  C   C3020     1.0  0.59453  0.58033  0.67229  1.0000
  S   S402      1.0  0.88201  0.50513  0.74519  1.0000
  Fe  Fe199     1.0  0.92933  0.55225  0.70179  1.0000
  S   S403      1.0  0.91221  0.51969  0.68905  1.0000
  H   H2417     1.0  0.65187  0.86566  0.66590  1.0000
  Fe  Fe200     1.0  0.87262  0.51367  0.69931  1.0000
  C   C3021     1.0  0.69870  0.89958  0.64969  1.0000
  C   C3022     1.0  0.55333  0.89241  0.80406  1.0000
  S   S404      1.0  0.88929  0.54640  0.71179  1.0000
  S   S405      1.0  0.94042  0.52629  0.71657  1.0000
  C   C3023     1.0  0.57881  0.59264  0.66569  1.0000
  S   S406      1.0  0.62824  0.52649  0.71174  1.0000
  C   C3024     1.0  0.81356  0.50912  0.80653  1.0000
  Fe  Fe201     1.0  0.69564  0.51176  0.71641  1.0000
  S   S407      1.0  0.69309  0.55114  0.71797  1.0000
  S   S408      1.0  0.73333  0.50395  0.72317  1.0000
  Fe  Fe202     1.0  0.65421  0.53168  0.72887  1.0000
  S   S409      1.0  0.64604  0.54936  0.74650  1.0000
  Fe  Fe203     1.0  0.66816  0.54345  0.70056  1.0000
  S   S410      1.0  0.67972  0.58083  0.68763  1.0000
  C   C3025     1.0  0.81724  0.63142  0.74862  1.0000
  S   S411      1.0  0.67290  0.50423  0.69847  1.0000
  C   C3026     1.0  0.80655  0.51028  0.69816  1.0000
  H   H2418     1.0  0.75817  0.49919  0.80574  1.0000
  C   C3027     1.0  0.75958  0.50961  0.70030  1.0000
  C   C3028     1.0  0.76143  0.50772  0.71326  1.0000
  C   C3029     1.0  0.78598  0.50770  0.71863  1.0000
  C   C3030     1.0  0.80852  0.50906  0.71112  1.0000
  C   C3031     1.0  0.72332  0.50329  0.79663  1.0000
  H   H2419     1.0  0.60899  0.82867  0.66921  1.0000
  C   C3032     1.0  0.78212  0.51077  0.69276  1.0000
  H   H2420     1.0  0.54231  0.91331  0.78866  1.0000
  H   H2421     1.0  0.89603  0.57606  0.68042  1.0000
  C   C3033     1.0  0.71216  0.63428  0.65880  1.0000
  C   C3034     1.0  0.70273  0.62209  0.67064  1.0000
  C   C3035     1.0  0.69313  0.59493  0.67255  1.0000
  C   C3036     1.0  0.69326  0.58013  0.66235  1.0000
  H   H2422     1.0  0.78300  0.54655  0.65672  1.0000
  C   C3037     1.0  0.78374  0.56150  0.80130  1.0000
  H   H2423     1.0  0.70270  0.63385  0.67839  1.0000
  H   H2424     1.0  0.68562  0.55927  0.66353  1.0000
  C   C3038     1.0  0.70759  0.49921  0.78594  1.0000
  C   C3039     1.0  0.81529  0.67314  0.75377  1.0000
  C   C3040     1.0  0.90673  0.52438  0.78572  1.0000
  C   C3041     1.0  0.88572  0.50160  0.78306  1.0000
  C   C3042     1.0  0.71166  0.61950  0.64854  1.0000
  C   C3043     1.0  0.89337  0.51237  0.76062  1.0000
  H   H2425     1.0  0.76114  0.97346  0.66443  1.0000
  H   H2426     1.0  0.83887  0.76771  0.65979  1.0000
  H   H2427     1.0  0.78060  0.51182  0.68273  1.0000
  C   C3044     1.0  0.66078  0.96504  0.67641  1.0000
  C   C3045     1.0  0.63273  0.51708  0.78741  1.0000
  C   C3046     1.0  0.63245  0.54185  0.78391  1.0000
  C   C3047     1.0  0.63763  0.55162  0.77147  1.0000
  C   C3048     1.0  0.64285  0.53673  0.76224  1.0000
  C   C3049     1.0  0.64429  0.51229  0.76574  1.0000
  C   C3050     1.0  0.63902  0.50246  0.77827  1.0000
  H   H2428     1.0  0.62680  0.55304  0.79072  1.0000
  H   H2429     1.0  0.63644  0.57049  0.76891  1.0000
  H   H2430     1.0  0.72800  0.51109  0.74891  1.0000
  H   H2431     1.0  0.95535  0.50630  0.79420  1.0000
  C   C3051     1.0  0.76519  0.56916  0.75995  1.0000
  C   C3052     1.0  0.74619  0.88626  0.65173  1.0000
  C   C3053     1.0  0.84968  0.58214  0.69721  1.0000
  H   H2432     1.0  0.80593  0.66358  0.69476  1.0000
  C   C3054     1.0  0.71840  0.56685  0.75604  1.0000
  H   H2433     1.0  0.79293  0.70239  0.66090  1.0000
  C   C3055     1.0  0.87718  0.77709  0.64980  1.0000
  C   C3056     1.0  0.61972  0.58119  0.66742  1.0000
  H   H2434     1.0  0.83043  0.66561  0.73626  1.0000
  H   H2435     1.0  0.86993  0.55463  0.78438  1.0000
  H   H2436     1.0  0.87659  0.55444  0.73848  1.0000
  H   H2437     1.0  0.95419  0.57981  0.66887  1.0000
  C   C3057     1.0  0.63780  0.88165  0.64951  1.0000
  C   C3058     1.0  0.78454  0.57433  0.67035  1.0000
  H   H2438     1.0  0.92999  0.71800  0.67410  1.0000
  H   H2439     1.0  0.88838  0.64569  0.69361  1.0000
  H   H2440     1.0  0.76783  0.54702  0.80679  1.0000
  H   H2441     1.0  0.64799  0.50047  0.75871  1.0000
  C   C3059     1.0  0.79938  0.66268  0.68519  1.0000
  H   H2442     1.0  0.74066  0.50960  0.69611  1.0000
  C   C3060     1.0  0.67632  0.94914  0.67906  1.0000
  C   C3061     1.0  0.61087  0.84262  0.66147  1.0000
  H   H2443     1.0  0.80570  0.58560  0.66817  1.0000
  C   C3062     1.0  0.74446  0.53749  0.66647  1.0000
  H   H2444     1.0  0.55930  0.59200  0.66950  1.0000
  C   C3063     1.0  0.73012  0.54461  0.67578  1.0000
  C   C3064     1.0  0.82629  0.59746  0.80044  1.0000
  H   H2445     1.0  0.69241  0.53168  0.74845  1.0000
  H   H2446     1.0  0.79884  0.67473  0.77197  1.0000
  H   H2447     1.0  0.68690  0.95052  0.68783  1.0000
  C   C3065     1.0  0.74678  0.49636  0.79721  1.0000
  C   C3066     1.0  0.67894  0.93219  0.67029  1.0000
  C   C3067     1.0  0.82400  0.58395  0.69488  1.0000
  C   C3068     1.0  0.82117  0.60807  0.69193  1.0000
  C   C3069     1.0  0.77614  0.59840  0.71406  1.0000
  C   C3070     1.0  0.77954  0.63803  0.66745  1.0000
  C   C3071     1.0  0.91511  0.53461  0.76326  1.0000
  H   H2448     1.0  0.73154  0.57132  0.68976  1.0000
  C   C3072     1.0  0.92148  0.54073  0.77574  1.0000
  H   H2449     1.0  0.80900  0.70399  0.68267  1.0000
  C   C3073     1.0  0.89094  0.57706  0.67068  1.0000
  C   C3074     1.0  0.82384  0.57643  0.75631  1.0000
  H   H2450     1.0  0.83392  0.55444  0.72819  1.0000
  H   H2451     1.0  0.65950  0.97869  0.68312  1.0000
  H   H2452     1.0  0.70252  0.57556  0.75605  1.0000
  C   C3075     1.0  0.66024  0.95300  0.79546  1.0000
  C   C3076     1.0  0.75862  0.54362  0.75640  1.0000
  H   H2453     1.0  0.79880  0.49603  0.81301  1.0000
  H   H2454     1.0  0.69308  0.68835  0.65972  1.0000
  P   P103      1.0  0.79947  0.58693  0.76461  1.0000
  C   C3077     1.0  0.64997  0.94676  0.65627  1.0000
  H   H2455     1.0  0.76645  0.58945  0.73362  1.0000
  S   S412      1.0  0.95197  0.59491  0.69483  1.0000
  C   C3078     1.0  0.92116  0.70133  0.66860  1.0000
  H   H2456     1.0  0.85290  0.58273  0.77128  1.0000
  C   C3079     1.0  0.78203  0.56353  0.78832  1.0000
  H   H2457     1.0  0.88177  0.68976  0.67781  1.0000
  C   C3080     1.0  0.96024  0.60066  0.66878  1.0000
  C   C3081     1.0  0.85049  0.77699  0.65147  1.0000
  C   C3082     1.0  0.73235  0.61714  0.71370  1.0000
  H   H2458     1.0  0.83366  0.51860  0.77596  1.0000
  H   H2459     1.0  0.77370  0.53406  0.75665  1.0000
  S   S413      1.0  0.87827  0.48436  0.71325  1.0000
  C   C3083     1.0  0.80091  0.68557  0.67842  1.0000
  C   C3084     1.0  0.68289  0.68477  0.65087  1.0000
  H   H2460     1.0  0.92647  0.54750  0.75570  1.0000
  H   H2461     1.0  0.66036  0.64530  0.65616  1.0000
  H   H2462     1.0  0.63557  0.97624  0.66302  1.0000
  C   C3085     1.0  0.94722  0.48674  0.77701  1.0000
  C   C3086     1.0  0.96013  0.61261  0.67997  1.0000
  H   H2463     1.0  0.89282  0.60287  0.69873  1.0000
  H   H2464     1.0  0.68959  0.50489  0.78554  1.0000
  C   C3087     1.0  0.87890  0.49586  0.77061  1.0000
  H   H2465     1.0  0.80637  0.56636  0.69527  1.0000
  C   C3088     1.0  0.88504  0.60180  0.65217  1.0000
  C   C3089     1.0  0.67802  0.92122  0.78736  1.0000
  C   C3090     1.0  0.79942  0.63658  0.76876  1.0000
  H   H2466     1.0  0.57001  0.82381  0.65509  1.0000
  H   H2467     1.0  0.85144  0.56328  0.69908  1.0000
  H   H2468     1.0  0.70896  0.53328  0.67782  1.0000
  C   C3091     1.0  0.76151  0.59791  0.72504  1.0000
  H   H2469     1.0  0.71673  0.93653  0.77749  1.0000
  H   H2470     1.0  0.95795  0.70808  0.65768  1.0000
  C   C3092     1.0  0.80235  0.58284  0.78131  1.0000
  C   C3093     1.0  0.73258  0.53036  0.75213  1.0000
  H   H2471     1.0  0.84328  0.64921  0.68910  1.0000
  H   H2472     1.0  0.84026  0.61507  0.78230  1.0000
  C   C3094     1.0  0.81256  0.50468  0.79376  1.0000
  C   C3095     1.0  0.74300  0.56639  0.68250  1.0000
  H   H2473     1.0  0.57593  0.49651  0.74943  1.0000
  C   C3096     1.0  0.84458  0.63040  0.69148  1.0000
  H   H2474     1.0  0.64020  0.91140  0.79754  1.0000
  C   C3097     1.0  0.71252  0.54197  0.75187  1.0000
  C   C3098     1.0  0.83786  0.56068  0.73762  1.0000
  H   H2475     1.0  0.76463  0.55024  0.78388  1.0000
  H   H2476     1.0  0.53435  0.87619  0.80406  1.0000
  H   H2477     1.0  0.79250  0.59040  0.71437  1.0000
  H   H2478     1.0  0.82235  0.61972  0.74192  1.0000
  C   C3099     1.0  0.73980  0.60748  0.72489  1.0000
  P   P104      1.0  0.78756  0.60937  0.68849  1.0000
  H   H2479     1.0  0.87078  0.56240  0.80676  1.0000
  C   C3100     1.0  0.70101  0.94108  0.78251  1.0000
  H   H2480     1.0  0.79033  0.62874  0.77781  1.0000
  H   H2481     1.0  0.88579  0.56855  0.75995  1.0000
  C   C3101     1.0  0.85411  0.54681  0.80310  1.0000
  C   C3102     1.0  0.58227  0.93430  0.79541  1.0000
  C   C3103     1.0  0.87285  0.60439  0.69690  1.0000
  C   C3104     1.0  0.89131  0.60053  0.66484  1.0000
  H   H2482     1.0  0.74025  0.62446  0.69405  1.0000
  H   H2483     1.0  0.93782  0.55835  0.77768  1.0000
  H   H2484     1.0  0.71469  0.62342  0.71344  1.0000
  H   H2485     1.0  0.95727  0.50414  0.77125  1.0000
  C   C3105     1.0  0.97668  0.65490  0.66820  1.0000
  C   C3106     1.0  0.81894  0.56865  0.74401  1.0000
  H   H2486     1.0  0.72798  0.60643  0.73332  1.0000
  C   C3107     1.0  0.86191  0.56067  0.74338  1.0000
  C   C3108     1.0  0.77029  0.58144  0.67980  1.0000
  C   C3109     1.0  0.82181  0.65751  0.74535  1.0000
  H   H2487     1.0  0.77054  0.61987  0.66308  1.0000
  C   C3110     1.0  0.79921  0.48480  0.76259  1.0000
  C   C3111     1.0  0.68358  0.97276  0.79068  1.0000
  H   H2488     1.0  0.67594  0.90124  0.78610  1.0000
  C   C3112     1.0  0.89404  0.68536  0.67072  1.0000
  C   C3113     1.0  0.70380  0.96685  0.78420  1.0000
  C   C3114     1.0  0.82446  0.59985  0.78748  1.0000
  C   C3115     1.0  0.78945  0.63879  0.67963  1.0000
  C   C3116     1.0  0.70231  0.59234  0.65045  1.0000
  C   C3117     1.0  0.80406  0.66266  0.76546  1.0000
  C   C3118     1.0  0.84822  0.57653  0.76195  1.0000
  H   H2489     1.0  0.69101  0.92001  0.67258  1.0000
  C   C3119     1.0  0.74732  0.91153  0.65363  1.0000
  H   H2490     1.0  0.74878  0.59975  0.76321  1.0000
  C   C3120     1.0  0.74688  0.61764  0.70270  1.0000
  H   H2491     1.0  0.80055  0.56868  0.73931  1.0000
  C   C3121     1.0  0.94621  0.48798  0.78993  1.0000
  C   C3122     1.0  0.80617  0.62078  0.76040  1.0000
  H   H2492     1.0  0.71742  0.51192  0.80451  1.0000
  C   C3123     1.0  0.52329  0.96408  0.79134  1.0000
  H   H2493     1.0  0.64908  0.59524  0.65245  1.0000
  Fe  Fe204     1.0  0.91953  0.49310  0.70442  1.0000
  Fe  Fe205     1.0  0.63471  0.48793  0.71077  1.0000
  H   H2494     1.0  0.58527  0.95028  0.78861  1.0000
  C   C3124     1.0  0.76920  0.60870  0.70283  1.0000
  C   C3125     1.0  0.80585  0.57835  0.80735  1.0000
  C   C3126     1.0  0.87029  0.62852  0.69401  1.0000
  C   C3127     1.0  0.83278  0.52168  0.78574  1.0000
  H   H2495     1.0  0.63197  0.57176  0.67259  1.0000
  S   S414      1.0  0.65855  0.49292  0.72849  1.0000
  C   C3128     1.0  0.77172  0.55230  0.66379  1.0000
  H   H2496     1.0  0.71941  0.65514  0.65757  1.0000
  H   H2497     1.0  0.73448  0.52040  0.66142  1.0000
  C   C3129     1.0  0.86709  0.56861  0.75552  1.0000
  H   H2498     1.0  0.81885  0.69336  0.75122  1.0000
  C   C3130     1.0  0.63517  0.86352  0.65953  1.0000
  C   C3131     1.0  0.72145  0.86767  0.64869  1.0000
  C   C3132     1.0  0.89834  0.65837  0.65421  1.0000
  C   C3133     1.0  0.85345  0.54254  0.79043  1.0000
  C   C3134     1.0  0.74465  0.58046  0.76009  1.0000
  H   H2499     1.0  0.84347  0.61048  0.80516  1.0000
  H   H2500     1.0  0.51307  0.94369  0.79010  1.0000
  H   H2501     1.0  0.76664  0.92612  0.65566  1.0000
  S   S415      1.0  0.83442  0.51116  0.68866  1.0000
  C   C3135     1.0  0.65773  0.92711  0.79385  1.0000
  H   H2502     1.0  0.88618  0.76783  0.65684  1.0000
  C   C3136     1.0  0.79168  0.68469  0.66620  1.0000
  H   H2503     1.0  0.72506  0.93802  0.65359  1.0000
  C   C3137     1.0  0.60256  0.93438  0.80406  1.0000
  H   H2504     1.0  0.89662  0.61751  0.67024  1.0000
  H   H2505     1.0  0.88337  0.53654  0.66859  1.0000
  C   C3138     1.0  0.59801  0.91315  0.81265  1.0000
  C   C3139     1.0  0.58831  0.60586  0.65421  1.0000
  H   H2506     1.0  0.96833  0.64946  0.68805  1.0000
  H   H2507     1.0  0.51049  0.97592  0.77377  1.0000
  H   H2508     1.0  0.86165  0.65164  0.66532  1.0000
  C   C3140     1.0  0.71502  0.48772  0.77590  1.0000
  H   H2509     1.0  0.82726  0.50866  0.71537  1.0000
  C   C3141     1.0  0.64751  0.96378  0.66505  1.0000
  H   H2510     1.0  0.63915  0.98096  0.77782  1.0000
  H   H2511     1.0  0.79499  0.50270  0.76295  1.0000
  C   C3142     1.0  0.96822  0.63986  0.67951  1.0000
  C   C3143     1.0  0.83407  0.53022  0.81112  1.0000
  C   C3144     1.0  0.66625  0.93127  0.65870  1.0000
  C   C3145     1.0  0.55778  0.91335  0.79542  1.0000
  C   C3146     1.0  0.88269  0.66384  0.66361  1.0000
  P   P105      1.0  0.63451  0.96107  0.80400  1.0000
  H   H2512     1.0  0.58733  0.57023  0.68123  1.0000
  C   C3147     1.0  0.87878  0.55605  0.65128  1.0000
  C   C3148     1.0  0.88428  0.55480  0.66396  1.0000
  C   C3149     1.0  0.78052  0.66091  0.66083  1.0000
  H   H2513     1.0  0.87416  0.48885  0.79061  1.0000
  C   C3150     1.0  0.93690  0.69583  0.65934  1.0000
  C   C3151     1.0  0.58890  0.83991  0.65352  1.0000
  C   C3152     1.0  0.72372  0.91820  0.65251  1.0000
  C   C3153     1.0  0.61368  0.60684  0.64927  1.0000
  H   H2514     1.0  0.57582  0.61527  0.64929  1.0000
  H   H2515     1.0  0.70242  0.48419  0.76773  1.0000
  H   H2516     1.0  0.77238  0.66018  0.65152  1.0000
  C   C3154     1.0  0.75519  0.48590  0.78696  1.0000
  C   C3155     1.0  0.62931  0.59444  0.65599  1.0000
  C   C3156     1.0  0.96897  0.61573  0.65748  1.0000
  H   H2517     1.0  0.76463  0.88123  0.65232  1.0000
  H   H2518     1.0  0.78741  0.50636  0.72864  1.0000
  C   C3157     1.0  0.92556  0.67447  0.65216  1.0000
  H   H2519     1.0  0.63848  0.48301  0.78077  1.0000
  H   H2520     1.0  0.53900  0.95793  0.80935  1.0000
  H   H2521     1.0  0.81374  0.49274  0.74352  1.0000
  H   H2522     1.0  0.96938  0.60612  0.64900  1.0000
  C   C3158     1.0  0.66425  0.66027  0.64878  1.0000
  H   H2523     1.0  0.57657  0.48135  0.77153  1.0000
  Fe  Fe206     1.0  0.63953  0.51775  0.96927  1.0000
  C   C3159     1.0  0.64827  0.51034  0.88844  1.0000
  H   H2524     1.0  0.72282  0.63185  0.97772  1.0000
  Fe  Fe207     1.0  0.65014  0.51858  0.94061  1.0000
  H   H2525     1.0  0.73365  0.53013  0.89976  1.0000
  S   S416      1.0  0.66275  0.54334  0.92248  1.0000
  C   C3160     1.0  0.79927  0.50259  0.83921  1.0000
  C   C3161     1.0  0.52286  0.95207  0.96566  1.0000
  H   H2526     1.0  0.61723  0.92434  0.98002  1.0000
  S   S417      1.0  0.61290  0.51411  0.95252  1.0000
  S   S418      1.0  0.67785  0.52645  0.95718  1.0000
  C   C3162     1.0  0.77084  0.56429  0.94793  1.0000
  H   H2527     1.0  0.82701  0.68615  0.92911  1.0000
  Fe  Fe208     1.0  0.86489  0.50845  0.96460  1.0000
  S   S419      1.0  0.89730  0.53781  0.95245  1.0000
  C   C3163     1.0  0.64543  0.96765  0.81985  1.0000
  Fe  Fe209     1.0  0.89384  0.50415  0.94052  1.0000
  H   H2528     1.0  0.48014  0.52359  0.94725  1.0000
  Fe  Fe210     1.0  0.92827  0.52575  0.96408  1.0000
  P   P106      1.0  0.75033  0.49309  0.88568  1.0000
  C   C3164     1.0  0.75219  0.52446  0.93139  1.0000
  H   H2529     1.0  0.79106  0.51530  0.90490  1.0000
  H   H2530     1.0  0.58581  0.55937  0.91436  1.0000
  C   C3165     1.0  0.75662  0.50926  0.83410  1.0000
  C   C3166     1.0  0.49342  0.93119  0.89110  1.0000
  H   H2531     1.0  0.80641  0.55206  0.94954  1.0000
  H   H2532     1.0  0.54158  0.48744  0.94633  1.0000
  Fe  Fe211     1.0  0.69335  0.50955  0.83314  1.0000
  C   C3167     1.0  0.83011  0.52826  0.89556  1.0000
  S   S420      1.0  0.87828  0.49748  0.92056  1.0000
  S   S421      1.0  0.66573  0.53323  0.83179  1.0000
  Fe  Fe212     1.0  0.90420  0.50365  0.84776  1.0000
  C   C3168     1.0  0.51105  0.94877  0.95382  1.0000
  S   S422      1.0  0.92493  0.52470  0.86473  1.0000
  H   H2533     1.0  0.51465  0.85837  0.97864  1.0000
  Fe  Fe213     1.0  0.89790  0.50823  0.81894  1.0000
  H   H2534     1.0  0.58993  0.97593  0.95645  1.0000
  H   H2535     1.0  0.70195  0.56864  0.87108  1.0000
  H   H2536     1.0  0.79406  0.53988  0.83777  1.0000
  S   S423      1.0  0.87583  0.51684  0.83544  1.0000
  S   S424      1.0  0.92877  0.49912  0.83130  1.0000
  C   C3169     1.0  0.56207  0.52972  0.90257  1.0000
  H   H2537     1.0  0.83485  0.53347  0.82095  1.0000
  H   H2538     1.0  0.60298  0.52979  0.92719  1.0000
  C   C3170     1.0  0.77758  0.52934  0.93695  1.0000
  C   C3171     1.0  0.52755  0.95614  0.94305  1.0000
  Fe  Fe214     1.0  0.63978  0.50139  0.82016  1.0000
  C   C3172     1.0  0.55595  0.96627  0.94398  1.0000
  C   C3173     1.0  0.78691  0.54914  0.94520  1.0000
  C   C3174     1.0  0.89276  0.50431  0.90526  1.0000
  C   C3175     1.0  0.91832  0.52304  0.90259  1.0000
  C   C3176     1.0  0.92799  0.52886  0.89015  1.0000
  C   C3177     1.0  0.91244  0.51582  0.88028  1.0000
  C   C3178     1.0  0.74386  0.48258  0.83339  1.0000
  H   H2539     1.0  0.84041  0.59835  0.95262  1.0000
  C   C3179     1.0  0.50379  0.97115  0.87262  1.0000
  H   H2540     1.0  0.94750  0.54382  0.88814  1.0000
  C   C3180     1.0  0.57940  0.53906  0.91245  1.0000
  H   H2541     1.0  0.57006  0.87602  0.81934  1.0000
  Fe  Fe215     1.0  0.64518  0.50874  0.84891  1.0000
  C   C3181     1.0  0.74526  0.49941  0.96975  1.0000
  S   S425      1.0  0.92736  0.49466  0.95086  1.0000
  C   C3182     1.0  0.79324  0.50253  0.96754  1.0000
  C   C3183     1.0  0.77293  0.51043  0.97295  1.0000
  H   H2542     1.0  0.58207  0.48350  0.85947  1.0000
  C   C3184     1.0  0.73659  0.56796  0.97285  1.0000
  C   C3185     1.0  0.75464  0.59132  0.96753  1.0000
  C   C3186     1.0  0.83639  0.59236  0.96238  1.0000
  S   S426      1.0  0.89587  0.49934  0.97704  1.0000
  C   C3187     1.0  0.65217  0.53554  0.90698  1.0000
  S   S427      1.0  0.63086  0.52578  0.86537  1.0000
  C   C3188     1.0  0.51027  0.95620  0.89360  1.0000
  C   C3189     1.0  0.64054  0.52884  0.88128  1.0000
  C   C3190     1.0  0.63854  0.55031  0.88710  1.0000
  C   C3191     1.0  0.64492  0.55394  0.89968  1.0000
  C   C3192     1.0  0.67336  0.97772  0.82259  1.0000
  C   C3193     1.0  0.84423  0.53152  0.88420  1.0000
  H   H2543     1.0  0.63242  0.56461  0.88176  1.0000
  H   H2544     1.0  0.64410  0.57118  0.90381  1.0000
  C   C3194     1.0  0.78428  0.51926  0.83705  1.0000
  C   C3195     1.0  0.74525  0.55914  0.94233  1.0000
  C   C3196     1.0  0.62601  0.96321  0.82956  1.0000
  H   H2545     1.0  0.86635  0.54001  0.88386  1.0000
  C   C3197     1.0  0.48157  0.92620  0.87942  1.0000
  C   C3198     1.0  0.71221  0.55506  0.87384  1.0000
  C   C3199     1.0  0.81022  0.58729  0.96763  1.0000
  C   C3200     1.0  0.72973  0.53285  0.89000  1.0000
  H   H2546     1.0  0.47798  0.94225  0.86105  1.0000
  C   C3201     1.0  0.81551  0.64277  0.95401  1.0000
  C   C3202     1.0  0.73644  0.51812  0.88105  1.0000
  C   C3203     1.0  0.73597  0.53927  0.93411  1.0000
  H   H2547     1.0  0.56144  0.96371  0.97536  1.0000
  H   H2548     1.0  0.77462  0.60691  0.93203  1.0000
  C   C3204     1.0  0.85736  0.58885  0.96960  1.0000
  C   C3205     1.0  0.82987  0.52371  0.87330  1.0000
  H   H2549     1.0  0.72978  0.50518  0.97421  1.0000
  H   H2550     1.0  0.58771  0.86076  0.97184  1.0000
  H   H2551     1.0  0.55484  0.54278  0.89684  1.0000
  H   H2552     1.0  0.73241  0.57049  0.94428  1.0000
  H   H2553     1.0  0.64987  0.49365  0.88407  1.0000
  C   C3206     1.0  0.80160  0.51706  0.89605  1.0000
  C   C3207     1.0  0.78548  0.48340  0.95885  1.0000
  H   H2554     1.0  0.54122  0.49680  0.89216  1.0000
  H   H2555     1.0  0.73995  0.54995  0.97141  1.0000
  C   C3208     1.0  0.71721  0.55092  0.88641  1.0000
  C   C3209     1.0  0.55149  0.96165  0.96647  1.0000
  C   C3210     1.0  0.58905  0.52232  0.91972  1.0000
  H   H2556     1.0  0.95794  0.49452  0.87891  1.0000
  C   C3211     1.0  0.88728  0.49650  0.88301  1.0000
  H   H2557     1.0  0.82045  0.51029  0.84174  1.0000
  C   C3212     1.0  0.80139  0.51238  0.87377  1.0000
  H   H2558     1.0  0.71093  0.56142  0.89339  1.0000
  S   S428      1.0  0.97155  0.54832  0.97113  1.0000
  C   C3213     1.0  0.58181  0.49628  0.91704  1.0000
  H   H2559     1.0  0.74500  0.50908  0.92508  1.0000
  C   C3214     1.0  0.80558  0.57927  0.98029  1.0000
  H   H2560     1.0  0.65970  0.49936  0.90682  1.0000
  Fe  Fe216     1.0  0.66991  0.48366  0.95819  1.0000
  H   H2561     1.0  0.84140  0.53424  0.90400  1.0000
  H   H2562     1.0  0.93029  0.53354  0.91005  1.0000
  C   C3215     1.0  0.55461  0.50367  0.89988  1.0000
  C   C3216     1.0  0.65366  0.51349  0.90134  1.0000
  H   H2563     1.0  0.84090  0.52629  0.86450  1.0000
  P   P107      1.0  0.78314  0.59103  0.95799  1.0000
  C   C3217     1.0  0.79684  0.62109  0.94875  1.0000
  H   H2564     1.0  0.58985  0.48377  0.92274  1.0000
  H   H2565     1.0  0.52630  0.52461  0.94066  1.0000
  H   H2566     1.0  0.79380  0.64810  0.91974  1.0000
  H   H2567     1.0  0.48918  0.94048  0.95282  1.0000
  C   C3218     1.0  0.51283  0.50800  0.94607  1.0000
  C   C3219     1.0  0.71387  0.56765  0.97988  1.0000
  H   H2568     1.0  0.71608  0.53529  0.92991  1.0000
  S   S429      1.0  0.82774  0.51672  0.97216  1.0000
  H   H2569     1.0  0.78992  0.51747  0.93506  1.0000
  C   C3220     1.0  0.79985  0.64663  0.92931  1.0000
  S   S430      1.0  0.73839  0.53033  0.83106  1.0000
  C   C3221     1.0  0.78711  0.50812  0.88521  1.0000
  C   C3222     1.0  0.81854  0.66806  0.93460  1.0000
  H   H2570     1.0  0.79056  0.50665  0.86521  1.0000
  C   C3223     1.0  0.82635  0.66614  0.94694  1.0000
  C   C3224     1.0  0.48687  0.50741  0.94982  1.0000
  C   C3225     1.0  0.52148  0.48711  0.94927  1.0000
  H   H2571     1.0  0.73842  0.51288  0.86126  1.0000
  H   H2572     1.0  0.69868  0.48466  0.89932  1.0000
  H   H2573     1.0  0.84087  0.68274  0.95104  1.0000
  P   P108      1.0  0.50184  0.94319  0.97973  1.0000
  H   H2574     1.0  0.51038  0.89854  0.96913  1.0000
  H   H2575     1.0  0.71682  0.54509  0.85506  1.0000
  H   H2576     1.0  0.87724  0.59187  0.96541  1.0000
  C   C3226     1.0  0.56481  0.48685  0.90697  1.0000
  H   H2577     1.0  0.82173  0.64160  0.96358  1.0000
  H   H2578     1.0  0.61353  0.91264  0.81929  1.0000
  C   C3227     1.0  0.73246  0.52323  0.86840  1.0000
  C   C3228     1.0  0.78900  0.62321  0.93635  1.0000
  C   C3229     1.0  0.72030  0.54158  0.86483  1.0000
  H   H2579     1.0  0.76313  0.63274  0.96538  1.0000
  C   C3230     1.0  0.50941  0.89548  0.97917  1.0000
  S   S431      1.0  0.67446  0.48698  0.85078  1.0000
  S   S432      1.0  0.63799  0.97810  0.97131  1.0000
  H   H2580     1.0  0.56881  0.97223  0.93567  1.0000
  C   C3231     1.0  0.74968  0.61445  0.96941  1.0000
  H   H2581     1.0  0.51832  0.95406  0.93397  1.0000
  H   H2582     1.0  0.77860  0.52490  0.97980  1.0000
  C   C3232     1.0  0.87742  0.49096  0.89542  1.0000
  H   H2583     1.0  0.68086  0.82137  0.97400  1.0000
  C   C3233     1.0  0.56787  0.96863  0.95569  1.0000
  C   C3234     1.0  0.66225  0.97780  0.84447  1.0000
  C   C3235     1.0  0.48689  0.94615  0.87016  1.0000
  H   H2584     1.0  0.51982  0.95952  0.90259  1.0000
  C   C3236     1.0  0.63442  0.96809  0.84182  1.0000
  H   H2585     1.0  0.60437  0.95640  0.82766  1.0000
  H   H2586     1.0  0.61939  0.96495  0.84925  1.0000
  H   H2587     1.0  0.58729  0.48541  0.88213  1.0000
  H   H2588     1.0  0.80704  0.57651  0.81741  1.0000
  C   C3237     1.0  0.51497  0.97653  0.88447  1.0000
  H   H2589     1.0  0.48966  0.91562  0.89821  1.0000
  H   H2590     1.0  0.58089  0.53620  0.98123  1.0000
  H   H2591     1.0  0.72970  0.84882  0.97479  1.0000
  C   C3238     1.0  0.71475  0.85236  0.98079  1.0000
  H   H2592     1.0  0.87509  0.48631  0.87554  1.0000
  C   C3239     1.0  0.68722  0.83695  0.98032  1.0000
  C   C3240     1.0  0.72682  0.61406  0.97641  1.0000
