data_image0
_chemical_formula_structural       CFeS2FeS2FeSFeCS2C5SHFeCH3C5H2C3HCH2C2H2C6H4CHCH5C4H4CHCHCH2C5HCH3C2HC2SCHC5HC2HC2SHC2H4C3HC3SC6PC9HSC7H12CH7CSC2H2CPHCHC2H3C2HCHC6HC7HFeHFeH2CH9CH3CHC2HPH2C2SHC2HCHC2HCHCHC2H2C3Fe2SC3SCFeS2CHFeSHSFeS2CSPFeHFeS3CHSH2C3H4FeS2FeHC2H2SHSFeCSH3SCHC2SC3HC3H5C4SHC2HSH4PC6H4C9H4C6H5CHC6H2CHSCHC4H7CHCHCH2C2H2C2SC2PCH3CH4CHC2HCHCFeC7HCH3C2HC4HCHC2HPH2FeC3H2C3HC2H2CHC3H5CH2C4H3C2HC3HC3PC6HC4H3CH2C3H3CHC4HC3HCHC2H2CHCHCHC4H2C2HCHFeH3S2CFeCPCHC2H3C2H2C2H2C2H3CH2C3HCHCH3C2HCH2CSH2SH4CHCH2CH2FeC4FeC3H2FeCHCSPCSCH2CH2CSFeS2FeS2FeCFeS3FeHSH4FeSCSFeS2FeS2FeSFeS3FeS2FeS2FeSFeS3CS3FeS2HCHFeS2CHFeSCSC2H2CSCH4C2H2CH2CHFeH2C7H2C7HCH4C2PC3HC6H4C2HC2H2C6H4C6H4PC2HCHFeHC2HC6H4C6H5CH3C6H4C5H4C4FeH3CHPC12H5C2H3CH2CH4CHCPHCHCSC2H3C8H2C2HC2HCHCH2C2H2C3H2CH2CHCH4SC7H3C3HC4HC2H6CHC2H2C2H5CH2CH2C4H4C4HC4H2C2H2C6PC18H21C9PC7H11C7HCHC6H2C2HC3H3C6PC7HC10H6CSH3CH8C4HCHCHSC2HCSH2CHC3HCHC5H2CH2C3H4C5H2C3HCHCH5CSHC2H2C2SCHCHC3H5C2H2CH2CSHCHC4HCH2CSC2HC8H2C3H3CFeCPCH2SPHCH2CHFeHC2PHCH4C3HC3HCH3C3H2CH5CHC3HC4HCPC4H2CHCHC3SFeC2H2C4HC2HCHPCHCFeS2FeS2FeSFeHS2FeSHFeSHFeSFeS4C3S2CSCH2C3HSCH2FeHC8FeH2C6H4C3SHCH4C6H4C6H2SHCH2CHC2HC3HCH4CHCHC3H3C2H3CH5CHCH2C3HC2HCHCHCHC3HCHCHCHCH2C2PHC2H2C3H2CHC2HCHCH2CHC2HCH3CHFePC2H2CHCHCHC4HC3HC2HCHC3HC3PCHC3PCHC2H2CSH4C3HFeS2FeS2FeSFeS3C5H2PHC2HC2HCHSH2FeS2FeS2FeSFeS3H2SHCHFeSHFeS2H3C6H5C5HC2H2C8H2C6H3C3H2CH4C6H5C2HC2H3CH2C6H4C2HC4H4C4H4C3HCHC5H2C8PC18H20C5HPCHCHC8HSCH4PH2CH3C2H5C2HCH2CHPHCH2CHCHC2HCHCHSHC8HPC2HC8HC2SC2FeCHPHC4HCHCHCH2CH2CH2C8H7C3HC2PC2SH2C13FeH4CHCH9CH2CH2C3PC18H2CH9CH7CHCFeCHCHCHC4HCHC4HC2SCFeH4CHC3H3C3HC2HC7H2C3HC3H5CHCH4C2HSHCHC3SH4SC2SH2CHCHCH3C8H6PSHC4H2C4PC2HCSFeHC2H2C3H4C2HSC7HFeCSC2SH2C2HCH3CH4C2FeHCHCHPC2HCHC4HC2H2CH2C3HCHCH4C4H4C4H2CFe2HSCH2C4HCHSC2H3C5HC3HCHC7H2CH2S2CFeS2FeS2FeSFeS3CSC8H2C6H2CHC6H4C2H2CH2C7H2C6HC3H3PSCH3CHCH2CHCHPCH2C2H2CHCHC2H2C3HC3H4CH2PC4SCHCH3CHCH2CHCH2CHC5SC2HC2H2SC4H3C2HCH2C5H2C2HC2FeC2SHPCHFeC2H4CH6CH2CHCHSHC2H2C2HC2HCHSH3C2H2C3HCH2CHSC2HC3H2C3HCFeH4C2HC2HC2SCSHC7HCSHC2HCPH6C2H2C4HCH3C4H4C5H2CH3C2H2PH4C2H2C2HFeCHCFeSCHSFeSHSFeS2FeHSFeS4FeS2HS2HC2HC3HCHC6H4C6HCH2C4H3CHC7H4C3HSFeCHC6HC2HC2H2CHC2H3C2HC2FeHC4H3CH2FeC4HCHCHSPC2H3C2PHCFeC5HC2FeC6H2C2HC2H5C2H6CH2CH2C5HCHCHCSCSHSC8PC3H2C13H7SH13C3H2C2SCHFeSCSCFeSH2SC2H4CHCFeH3CHSCFeCH3C2PSCHSCH3CHC3H2CHCHC2HSHSCH2C4HPHSHCH2CHC2H2CFeCHC4HCHCH6C4HCH4CHC2HC5PH6C9HC2H3CHC2H3CHFeC2H2CHC3HCHCHPH2C4SCHCHC3H3C2FeC2H2CHCSCH3CH2CHCHC2HCH2C2S2HSCSFeSFeS2FeSFeS3HS2HFeSHFeHC3HFeSH2SHFeSFeSC3FeS2FeS2FeSFeS3FeS2FeCFeHS2FeS2FeCSFeSCS3C4HCH2CHC6H2C6H5C6H4CHC6H5C3H2C6H4CHCH3CHC2HCH2C3HC2HCHCHC2H3C6H4C6H4C6H3C6H5CHCHC2H3C2H3C2FeHC4HPC5HC8H4CHCH4C2H5C7PC5HC3HSC4HC2H9CHCSCH3CH2C4HCHCHCH2C3H3C6PC14H17CSCH4C3HCSHSC2H2CPCH2C3FeHC2HC2H2S2HC2HC11PH2C5HCH5CH3SHC2H3C2H2C2PSCHCSHSC2H2CH2C3H2PH4CHC6PC9HC8H11C2H4FeH2C4PC7HSCSHC2HCSCH9CH2C4H3CH5C4H2PC2H2CH3CFeHS2H2CH3CH3C2HC6PC18H21C2SCHC4HCFeHC2FeCHCH2CHCHCHC8H2FeCS2C2HC4FeCHC4HC2H2C2HCH2PC2H2SHCPC4HCHCHC2HC3H3CFeHC2HC5FeH2CH3C2HCH2C3SC2H2CHC4H2CHC2HC2HC3HC2HC2HPSC4HC3H3C3H2SHC2FeCHC7FeCHC4H2C2H2PH3CHC4HC4HC3H2C2PHC2HCH2CHC2HCHC2HSH2CH5CH2CH2CH3C3HSHC3H2SHPHC2H2CHCFeCS2CH2C3SFeS2FeS2FeSFeS3FeS2FeS2FeSFeS3FeSFeS2FeSFeS3FeCFeSHSCHSHCHSHC3H2C2HC3HCHC5H3C8H4C4HCH2CHC6H5CHC3HC6H4C2HC3HCH4C7H4CHSC2H2C7H4C6H2C2H2CHC2H2C2PCHCHC6HC3SHSHCH6C2Fe2CHCH2CH2CHC2H5C2H4P2HCS2HCSHC3H2C3HCSC2H2C6HCH2CH6CH2C4HCHCH3C6PC7SCS2C7H3FeH7CHPH6C7H2C2H4CHCHCH2FeCH4C4HCFeCHCHC3SCHC2H7C2HC2HCH2C4H2C2SC2H4C3H2C2HC2HC4SC10HCH2C2HCH7C6PC18H20FePCSH2SCSH2C4H2CHC4HFeHC5FeH3CH2CHCHC3FeCHC2HC2HCH4CHCH2CHC2HCPH6C7PC12SCH4SH3PC3HC2HCSHC3HC2H2CHSC4HC3H2CH3CFe2C2HC2H2C7SC2FeSCHCSC2HC2HFeS2FeS2FeSFeS3FeSFeS2FeSFeS3PSCSC3HFeS2HC2FeH2SHC3HC3HC7H4CH4C6H4C6H4C5HC3HC4H3C6H5CH2CPHC5HC2HC2PC2H2CH3CH3CHCH2CHCH2C5H2C4HPH4CHC4H2SC5HC2H3C2HCHCHCHCH4C3HC3HC4HC3HC2H3CH4CHC3H2CHC3H4CH2CHCHCH3CFeC3H4C4H2PHC2HC2HCHC2HC2HCH5C2HCPC6HC6H13CHCHC2HCFePHCHCH2CHFeH4C3HC2H4C2FeC2HCSC3HCH3C4H2C3SCHC3H3CHC2HSC2HCH2CHS2Fe3SFeS2FeS2FeSFeS3HCHSC2HFeSPSFeS2FeS2Fe2S3CH2C3HC2HSHC6H4C6H4C3HCH3CHC2H2C3HC8H4C6H6C5H2CHC6HC3H4CHCH2CHC5H2C4HC2HFeH3CH3CHC4SC4SH2C2HCH2C4H3CH2C2HCHC2HC3SCHCH2C2H2CH5C5H2C3H5C2SHFeH5CHCH2CHCH2CSCHCHCHCPCHC2HCHCH2C2H2CHC3PCHPH3C2H2C2H2CPH3SCSHCHCHCHS2HC2HSC3H2CH5CHC3H2C3HC12H7C3HC7H2CH4CHC4H2C2HC3HCPCH6C3HC2FeC2H4CHCHC2HC2HCH2CH2CH3CH3C2HCSHCHCH2C7HC2SH2C4PC8HC3HC4HC3HCHC3FeCHC2HC2HPCPH2CHC5HCHCHCHPH2C3HCH4CSC3HC3HPC5PH2C3FeH3C2HSC2H3CH4CH2CHC2HFeSCFeS2FeSFeS3FeS2FeSCFeSFeS3HC3H3CSCHCHFeSH4FeSHFeS2HC2FeSH2SC3HC2SC4H5CHC7H4C2H3C4H3C4H3C6H5CHC6H2FeC7H4CH2C4HC4HC4SH4C2HCHCHC2HSH3CPC4H2CHCPC2HFeC2H2CSHC2HC7PC2H2C3H4C3HSC2H3C3H9C3HCHCHCSPC2HC2HCH4C8H2CH5C2HPCH5CH2CHCHPHC3H2C2HCH2C9FeHCH2CHSCHCHCH3FeC6PC18SCH9C2H4CH2CH2CH4C3HSCH2CHCHCHC3HCSC3HSHCHC2H7CHC7PC4SHC2HFeC2HC2H6C2H2CH3CHCHC2HCH5CHC2HCH3C2HCSC4H2C2H2CSHC2SCHC5SH3CHCHCH2C2H3FeC4HC4H3C2H2C2HSC2H3CHCHFeCH2C3H5C3HSCHCS2C2SC5H2C2HC7H4FeHCHC7H5CH2C4HCH3CHCHC2H2CHCH2CHC2HCH2C3HCH4CHCHSCHC2H2CS2FeC2HC3HCH2FeC3HCHC2H3CHC2SHC4H2SC5H2CH2CSC2HCFeCHC2H3CH2C2H3C3SCSHC2HCSCH2FeHFeC2P2HCHCHPHC3H2CSCSCH2CHCHCHSCHSCFeH3C4HC2H2C2HFeH4CH2C4H6CHC3H3C2HFeS2FeS2FeSFeHS2H2FeSPH6CHC2FeS2FeS2FeSFeS3FeS2FeS2FeSFeS3FeS2FeS2Fe2S3FeS2FeS2FeSFeS2C2HC6H4C6H4C5H2C6H3C7H4C6H4C5HC8H2C6H5C2H2C2HC6H4C4HCH3CHSC3HCH3C6H10C6PC18H16C6PC18H7CH12C2H2C2H2C5HC8HCHCH5C3HC8H2CH4CS2CHPC7HC3FeCH5C2HCHCHCHPH3CH4CH3C5HC3H2PH2C3HCHC2H2C2HSCPC3FeH2CHC3HC2HCHSC2H5C5H2C3HPC2HCPC2H2C2H2C2HP2HC2HC3H4SH2FeH2C6PC2HCH2C10H7CHCH4CSH5CHCSHSC3HC6PC3H2C13H6PH4CH8C2HSHC6HCFeC2HSC2HS2C2H4C2H5CHCHC3HCHC2HC6PC7HCH11C2HC2HCH3C5HC2H2CS3H4C4H3CH2C6SHCHC2SPCHC3HC3H2C2HCHC3HFe2HCHCFeCH2C6H4C3H3C3H3CHCSHC4H2C3H4CHC3HC2H3C2HCHC2SCHCH3C2SCHC3HCH2CH2C2HSCHCHC3H2C2HCHC2H4C3HC2HCH2SC4H2CFeHC2H2CH3CH2C2HCSFeS2FeS2FeSFeS4C2H2PCHFeSH3CS2H3C2FeSFeS2FeSFeHS2HFeS2CSFeCFeSCHFeSHFeS2FeS2FeSFeS3HC6H5C6H3C6H4SC5H3CHCH2FeC3H2C6H4CHCHC2HCHCSCHCHC4H3C8H4C6H4SH2C4H2C3H2C6H4PC14H10CHC7PC8HCH2C6H3C2H13C6PC9HC8H11C2H7C5H3C6H6CHCHC4HC2HC2HCFeHC4PHC2HCFeC3SC2FeCH2C2HC6PC12HCH10SCH5CFeHCHC3H2C2HCHCHCSPHC3HSHCH2CH2CHCHSC2HC3HSHC3H2CHCHCHCHCHCH2C3HC2HC3H2FeC3HSC3HC5SH2SC6PC3HC7H2C2H5C4H6C8PC18H20C3HCHFeCHCHCHSHC3H3SCH2C2HCHC2HCSPC10HC2HCH2C2H2CH5C2HC3H2CHC2HCFeCSH3CHFeCH4CH2CHC2PC4H2CHCSCHC2SPHC2H2CSH4FeHFeCHCHC2H3SCH2CHC4HC3SH2C2H2CH2C3HC4HCHC4HCPCH8CH2CH3C2HC3H2C3H3CHC2HCH3C3HC3HC3HC3HCH2CH3C2H2C2H3CHCH3C2HCHC2H2CH2CHC3HC2HCH2CH2C2HCHCSH2C4HCHC2H6C2H3CHC2SC2H2SCSCSCFeSC2HSH3CH3C3H2SCSCFe2S2FeS2FeHFeHS2C6H6CSCH5C3HCH2C9H4SHC2HCHCH2CSH2CHC6H2CHC2H2C2H2C3HSPC3HC2HC2HPCH4CFeH3C3HC4HCH2CPH2CHCHCHCH6CHC3H3CH5C5H3CHCH2C2HCPC2SC2HC2HC8HCHCHPCH2CFePCH3CHC2FeHCHC2FeCHC7H2C2HC3H2C3H6C4H3CH4C6HSCSHFeHFeS2CFeSFeS2FeSFeS2H2SH2SCSFeS2FeS2FeSFeS3H3CH2PC3HSC5H3CHCH2CHFeC4HCH2CSC2H2C9H4C6H4C2HC5HC6H4C6H2CHCHFeC3H2C5HCHCHC3H4C4H8C2H4SHCH2CH2C3HCH2CHCH3C2H5C3HCHC3HC2H2CH2CHCHPHC3HPFeHCSCH2CHSCHC2HCHCHCHCSFeH2C2H3CHC2PC9H2C2H4CH2CHCH7CH3CH3C6PC15HCHC4H2C2H2CHPC2H2C2SCHCH2SCHCHCHC2FeH2CHCHCHCHC3HC5HC5HCHCH2C3H2C2H2C3H3CHCH2C2SHC3PHC2SCHC2HCHC2HC2H3C2H4C3HCHC2HFeS2FeS2C2FeS3FeS2CH2C3H2S2HSC4HCH2SHFeS2FeSFeS3FeS2FeS2FeHCSC2HS2FeSCHCSHCHSH2C7H4C6H4CFeC2H3SHC2HC7H5C6H2C6H4C4FeCH4C8H4C2HC6H2SH2CFeC2HCHC2HC4FeC3HCFeHCH4SH5CH7C2PHC10HC9HCH6CH2C2H4C6PC18HCH18C2HC3H2CH3C8HC2FeCFeCHC2HCHC3H2C2HCFeCHC7HCH5CHCHC3PH2C3HC3H5PC4H2CHCSCHCH2C2HC3HCPHC2H2CH2C3HCHSPH2CH3C3H2C6H2SHCHSHC2SCHCH9CHFeCH3C2HC3HC3HCHC7PC4H2C2PHC5HSH5C2HCHCH4CHCH3CHCHC4SH2CHCHC2HCH3C3FeCH4CFeS2FeS2FeSFeS3FeS2FeS2FeSFeS3CHSCSH3CHC6FeSCHCSH2CHSFeSFeS3FeS2FeS2FeSFeS2HSH4CH3C2SHC6H4C3HC6H4CH2CFeC6H4C3HCHSC3HCH2CFeC7HCH2C6H4C6H2C6H4C6H4C6H4C5H4C6PCH2CH2SCHCSC4HPCH5CHC2SCSCH5CSC6H4C7HCHC7HC4H2FeH4CHCHCSC5H3C2HCHCHPC3H2C3HCSHC6HC3H3CH3PSC3H6CHPCPC14HCHC3HSH12C2H2CH2CHCHCPC3H2CHCH2C2HC3HC2HC2HCH2C2HCHCH2C6PC18H7CH12CHCHC3H2PC7PH2C2H4CH5CH2C2HCH2C2HCHCHC2H4CHCH3C3HCSC2H3C2H2CHC3H2C2FeCSH3C2H3C3H2C6H3PCHC2SH2FeH2C2FeC2HCH3CHCHFeH3C2PCHSCH4C7H4CHC2H3CHCHFeCH4C2HC2SHFeCSHCHPC3PC2H2CHCHC3HCHFeS2FeSFeSFeS3FeS2FeS2FeSFeS3HSFeSFeSFeSCFeCSCH2CSHC3S2HSH2C9H2C2H2C6H4C6H4CHC4SCH2C4HC7H7CPH2C6H3C4HPCH2CHSH2C4HC4HCHC2HCSHCHCPC3H2C3H2CSCHCHCHC3H3CH5C3HCHCHCH2SC6PC18H20C6PHC6H2C6HC2H5CH6CHC2H5C4HCHC4HCHCFeCH2CHC2HC2SC2PHCH3C4H2C4HC2HSCHPC3HC5HCHCH2C2H2C5H2C6H6C3HC2H4CHCHC2H3CSH2CPC2HC2HC2H4C4H6CHCH5CH3CHCH2C4H2CHFeH2C2HCHC2HSCSFeS2FeS2FeSFeS3H3C3HC2S2FeCSFeS2Fe3S3FeS2FeS2FeSFeS4FeS2FeC2FeCFeS3FeS2FeS2FeSFeS4C6H2C8H4SFeC6H4C3H2C6H4C6H4C3HC7H2CH3CH2CSH5C3HC7H3C6H4C6H4C3H3C4H3CHC6PC15H2CH11CH6CHSCHCHCH3CSCH4CHC4HC2H2C4HCH2C2HC10H2CHCHCSH4CHSH2C2H2C6PC18H20C5HPHCSC2FeH6C3HC2H3C2HC3H4C2PCH3CHC2HC2H2C2HCSC2HCH5CHCH3CH7CHCHC2SC2SCFeC6PC4HC13H17C6PC11HC2H9C2HC3SH4PHCH4C2HPCHPH3C3HCSHCHSC2HPH2C3SC3PC18H16PC9H8C4HCH4C3H3CHC2SH2FeC2HC2FeH3C3HSH2CHCHCHC4H3C2H2C2H3CHCH2C3SCHC2H2PH2CH2CHSCH2SHCH2CH2C2HCHSC7HFeSHCHC4H2CH4C3HC2H2CFeCHFeH3C2HC2HC3S2CFeCHCHC2H3CH2CHCHCHC4H3SCHCPC2HC2HCHFeHC2FeC5H2C2H2CHC5H4SH2C7SH2CH4CH2SHC3H2C7HC3FeC2H2C2HCSHC3H3FeCH2CHCHCHCH5C2HCHSCHCHCFeS2FeS2FeSFeS3H2SC2SHSCFeSFeSHCHFeC3SH2C5FeC3HCSC2H2C2HSCH2C2HCFeC6H3C5HC2H2C6FeH2C8H4C6H4C6H3C2HCH2C3H2CH3CH2C3HCH3SHPC2HCH3C3H5CHC2HC2H4C2H2PC2H5C2HCHCH2SPC2H2C3H4CH3C3HCH3CSC5HPC2HCHCHCHCHCSCH2C3HCHCH3CH2C4HSHC9HC4HC2HC3SCPH6C3HCSHCH2CH2CHCH3C3HCHC10PH2CH2CH2C3HC3H2C2PHC2PC5H4C4H2CH2FeCHC4H6CFeCH3FeCHCH2CHC4FeC4H3CHC2H5C3SC5H3C2SHSHFeC5HPH3C2HC3HCH2CH3SH2SCH2CH2CH2C5FeHCH2CHCHCHC3SHPCH2CPHC10HC3HC4H2CSC3H2SCHCHC2H2CH2SFe2H2C5H2CH3C2HFeC3H3C2FeCH3CHSCH2CHCHC3H2SC3H2CHCH4C3S2CSCH2CPHC2HC2HSH2CH2FeCHC3H2CH3CHC8H2C2H2CHCH2C2H2CHC2HCH2CH4CHC2HC5HCHCH2CSCFeS2H2FeSHS2CSCFeS2FeS2FeSFeS3FeS2FeS2FeHFeS3CPHCH3CH2CFeS2FeSFeSFeS3CSFeS2FeSFeS3C6H5C2H2C6H4C2H2C2HC2HC4HC4HC7H4C6H4C6H4C7H4CSHC3SPC8H5C2H2C2H3C10H2CH6C5H3C3H2C3H3C2HSHCHCHC2H5CH2C3HCHC4HC2HCHCHC6H4C2HC2H2CHC3H4C4H2C2HC10FeCPC2H4C2HC2HCH4C3HSC7PC18H20C6PC11H15C3HC4HFeCHC3HCH5CHC2PHSH2C2HC4HCH2CFeCH2CHCHC5H2SCHC2H2CH2C2H2C4H3CH3C4HC2H2CHCH2PC4H4CH5C3FeH3C6HC5PCHC2H3C3H2SCFeHCHC3H4C2HC3HSH2C2H2C2H2C5H2FeH2PCH2CSCPH2C2H2CHCHCHCHCH2CHC3SCSFeHC2H3CH2CH4C6H3CH4C3H2CH2C2HC4HCHCHCPHCH3C2H2CSC4HCH3C4HCHC3H2C3HCHC2SC5H3C3FeCH3C2H4C3H5C3HCHC5PHC2HCH2C3H3C3HCH4CH4SCS2HCFeS2FeS2FeSFeS3FeS2FeS2FeSFeS3HSH4FeSC2FeSFeS2FeSFeS3FeS2C3H3CFeH2FeS2HCH2CH4CHC6H2C3HC4HC4H2C7H5C6H4C3H2C7H4C6HCH2C6H4C4HC6H4C5HC2HC2HCHC5HC3H2CH3C6PC18H21C3SHPSC6HC3H3CH8C2H3C4H3CHC3HC2PC3HC14HCS2H2C2SCH10CHC6H5CPC2H2C2HC2H3CHC3HC2HCH3C2H7C3HCHC2HCH2C3HCH2CFeCHCHCHCHC4HCH3CHC5HCH3CHCSH2C3HCHC3HCHC2H2CHCHC2PH2CH4CSHC7FeC2HC2HC2H7C7HCHC3H2C2HC3HC4HCHCSC2FeH2CSHC2HC3HCH2C2HC2HCHCHCH3C4HCFeH2CH3CHC2HCHCHCH2CH4CSC2H2CH4CSC5HC2PHCH4C3H2C3PH3CHC2H2C3H4C2PHCHCH2C5PHCH3PCFeCHCHFeC2H2CH2C5HCHC2HCH4CPH2CH2SFeCH4FeS2CH2FeSFeS3C2HFeS2FeSHCS2HCSCH2C2H3C5H3SHC4HCH3C2HC2H2C9H4C6H3C2H3C8SHC4HC2SC3HCPH3CHC3HPSC3HPC3HC2HCHCHC2HC5HCH2CSH2C2HC6H2C3HCHCHSH3C2HCPSC2HC2H2FeH2C2H2FeHCHC2HCH2C3HC4PC4HCHC2SHC5H2CH5CHCH2FeHC4H3C2H2C3H3FeC2H3CH2CH3C4PC3HC2HCH2SCHC2HSH2FeHCHSH2FeCH2SC2H3FeC2HCH2CHSC7HSHCHCHCHC2FeS2CSC3FeS3CHCHC4SC2HCSH2FeCHCH2CHCHC2H4SCSCHC3HC2H5C2HC2SCH3CHC6H4CHCHFe2CPH6C2H2CHCPHC2H3CHFeH2C2H2CHC4HC2SHCHC3HSC4HCH2C4FeHC2PCH2CHCHC4H3CHCH2SHC4H2C3HSCHCH4C2HC2HC4H2FeS2FeS2FeSHCS2FeS2C2Fe2SC2SHC2HSH3CS2HC2PHC2HC2SHCFeS2CHCFeHFeSCSC4SHFeSHPHCHCSH3C10H4C6H2C2H4SH2CH2FeCPC3H2CSC2HC6H2CH4CHCHCHSC2H2C6H4C6H4C2H6SHC3HSHC4H2CH3C3HCPHC2PSHCHC4HCHFeH3CHCHCFeH3CH2C3HC4H2C2HC2H2CH2C6HC3HCHCHC7PC18H7CH13C6PC18H6CH6CH10CPHCHC2H2C3H4C2HC3H2C5HCHCFeC2HC3PC2HCH2C3HSHCHC3HC7H2C2PHC2H3C2HCHCHCHC2HFeH2SCH2CH2CHC2H2CHC4H3C2HCH2C3HC2H2CHSFeSFeS4FeS2CHCSC2SHC2SCFeSHSH5CHCH4CHC9H3C6H4C3H2C6H3C2SHC3H3C2SHC3PCH3C2HC2HC2SPCH3CH4CH3CHC3HCHC5H7CH9CS2CS2C2H2C4H2C2PC4H4C3H4CFeC3HC3H2C2HCSC2H2C4HCH2C3SHCHC2HC4HPC8SH3C3HCPHFeHC2HCHC2HSCHFeH2CH2C6HCHFeHFeC7PC9HC8HFeSH5CH2CH8SC2HFeC2HC2HFeC2PCHCHCHC3SC2H2C2HPH2SHSHC2HC2HFeSH2CHC3HCHCHC6HC4HC2H2FeCHCHCHCHC2H2CH2C2HCHCHFeH3C3HCFeS2CSC6HSFeS2FeS2FeSFeS4FeS2FeS2FeSFeS3HFeSCFeS2FeSFeS3CHCSH4SCFeS2FeS2FeSFeS2H2SC6H4C6H4C2HC3HCH2C6H5C7H2C6H4C6H4C6H4CHC2H2CHC3H2C3HCH2CH5CPH2C6PH3C2H3C6H4CHFeH4C4PC14SCH12C2H2CHCSCHFePC2SHC3HC11HC3H2C2HCHCSFeH4C5HC2H9C6PC9H6CH6C3HCH7C2HC3SH5CH4CHCH3C2HC8PC18H18C6PC18H20C2HCH4C4HC2HCHSH3C2HC3SC3HCH3CHC5HCSFeCH2C2HCH3CHCHC2H2CPC2SCPC6HCHCH4C3H5C2HCHC3H2CH2CHC2HC6HC5PHSCHCH4C2SC2H2C3H3C3HC3HC2HCHC3H2FeHPC8H3CHCHCH2CHCH4CHC2HCH3CHFeCH4C2H2C5FeHC3HC3H2C3H2CH2SFeCHSHCHCH2C2FeCSCHC2HFeHCHC2HCHC2HCHC2H3CH3C2H2C4PC2HC2H3CS3H3CH3FeSH2C2HCHC3HCH4CHC2HCH2C2H2C4PCFeC2HCH4CH4CHC2HCHC3FeC3H3CH3CSCSCFeSH3CFeS2C2HSHFeS2FeS2FeSFeS3FeS2FeS2FeSFeS3HC4HCHC6HCH3C6H4C6H4C6H5C3FeCHSHC6H4FeHC2FeC3H2CFeC6H4C7H2CHC8H2C2H5C7PC18H23C3H2CH2C3SC6PC13HPFeH11CH7SCPCH4PC4HCHC11H2CHFeH2SCH7CH4C2H3CHCH3SC4HC2HCHSHC2H2CHCHC3HC2HC6SC4HCH2CHCH11SH2CH2CHC6PC15HC2H16C2H2C6PC8HC4H2FeC2H11C2H2C2HCHC5HCH4C2HC2HC4H3C2HCH2CSHC3HSC6PC10HC4H2CH11CSHCHCHCSCSCHC2H3C2H2C4HCSH2PHCHFeSC5H3SCH2CHC2H2CHC2H3CHC3SCSC3HC3HC2HCPC2HCSCH6CHCH2C2H4CSFeCH2SC2H2CH2PH2C3HC2H2C4HCH2CHCPHCHC3H3PC2HCH2FeCFeHC2HC3H2CHCH3C4H2CH2CH2SC2HC3HC8H2CSC2SH3C2HC4HC2H4C3SFeH2FeS2FeS2FeSFeCS2CH3C4HCSCHC2HC2H2CHSHC4HCH4C2H2CH2CHC4H3C7H7C5H4C7SC5H2C5HC2H6FeC2SHCH3SHC3SH2SH4C2HCH2FeHSHPHCHC2HC3SCH3CHC7PC5HC12H6C2H12PHC2FeHC3HCH3CHC2HCSH2SHCH4CHC4HCH2C6PHC4HSC3SC3H2PHCHSHC6HC4FeH4CFeHC2SHC2HC2HCHC3H4CH2PCH2CFeHCFeCH3C4H2SC3H2C2H2CH2C6FeSCHCH2
_chemical_formula_sum              "C8640 Fe576 S1152 H6912 P288"
_cell_length_a       98.3822
_cell_length_b       99.7411
_cell_length_c       100.126
_cell_angle_alpha    73.5696
_cell_angle_beta     73.52
_cell_angle_gamma    73.5195

_space_group_name_H-M_alt    "P 1"
_space_group_IT_number       1

loop_
  _space_group_symop_operation_xyz
  'x, y, z'

loop_
  _atom_site_type_symbol
  _atom_site_label
  _atom_site_symmetry_multiplicity
  _atom_site_fract_x
  _atom_site_fract_y
  _atom_site_fract_z
  _atom_site_occupancy
  C   C1        1.0  0.48714  0.08299  0.17954  1.0000
  Fe  Fe1       1.0  0.46656  0.15221  0.14589  1.0000
  S   S1        1.0  0.47035  0.17449  0.13832  1.0000
  S   S2        1.0  0.47569  0.13515  0.13307  1.0000
  Fe  Fe2       1.0  0.44964  0.15652  0.17534  1.0000
  S   S3        1.0  0.45184  0.17937  0.17045  1.0000
  S   S4        1.0  0.44032  0.14417  0.19705  1.0000
  Fe  Fe3       1.0  0.44704  0.18088  0.14931  1.0000
  S   S5        1.0  0.43265  0.20058  0.13878  1.0000
  Fe  Fe4       1.0  0.47496  0.17117  0.15986  1.0000
  C   C2        1.0  0.46715  0.21181  0.13481  1.0000
  S   S6        1.0  0.44273  0.15876  0.15517  1.0000
  S   S7        1.0  0.47312  0.14841  0.16653  1.0000
  C   C3        1.0  0.48283  0.21941  0.03452  1.0000
  C   C4        1.0  0.48001  0.15612  0.10871  1.0000
  C   C5        1.0  0.39408  0.21542  0.12461  1.0000
  C   C6        1.0  0.42004  0.05227  0.20771  1.0000
  C   C7        1.0  0.48071  0.13427  0.20717  1.0000
  S   S8        1.0  0.44036  0.20879  0.07226  1.0000
  H   H1        1.0  0.42439  0.04500  0.20051  1.0000
  Fe  Fe5       1.0  0.46566  0.06290  0.21864  1.0000
  C   C8        1.0  0.42382  0.06509  0.22316  1.0000
  H   H2        1.0  0.43599  0.12870  0.99729  1.0000
  H   H3        1.0  0.40867  0.21250  0.01446  1.0000
  H   H4        1.0  0.41826  0.18983  0.00585  1.0000
  C   C9        1.0  0.49658  0.15159  0.08652  1.0000
  C   C10       1.0  0.46545  0.15849  0.06854  1.0000
  C   C11       1.0  0.44790  0.10531  0.18759  1.0000
  C   C12       1.0  0.47582  0.04174  0.15698  1.0000
  C   C13       1.0  0.46463  0.17039  0.03966  1.0000
  H   H5        1.0  0.47866  0.03240  0.15241  1.0000
  H   H6        1.0  0.49711  0.18950  0.12010  1.0000
  C   C14       1.0  0.47305  0.21057  0.04166  1.0000
  C   C15       1.0  0.43846  0.18482  0.01262  1.0000
  C   C16       1.0  0.47829  0.10066  0.11987  1.0000
  H   H7        1.0  0.48418  0.15389  0.03540  1.0000
  C   C17       1.0  0.49249  0.08305  0.13595  1.0000
  H   H8        1.0  0.48472  0.20912  0.08011  1.0000
  H   H9        1.0  0.44642  0.17507  0.07307  1.0000
  C   C18       1.0  0.46345  0.23253  0.07291  1.0000
  C   C19       1.0  0.48993  0.08729  0.16460  1.0000
  H   H10       1.0  0.44234  0.17489  0.00898  1.0000
  H   H11       1.0  0.47838  0.11580  0.18751  1.0000
  C   C20       1.0  0.43565  0.20300  0.12016  1.0000
  C   C21       1.0  0.42814  0.21549  0.11242  1.0000
  C   C22       1.0  0.42946  0.21723  0.09776  1.0000
  C   C23       1.0  0.43886  0.20679  0.09060  1.0000
  C   C24       1.0  0.44698  0.19461  0.09818  1.0000
  C   C25       1.0  0.44520  0.19261  0.11300  1.0000
  H   H12       1.0  0.42095  0.22368  0.11785  1.0000
  H   H13       1.0  0.42294  0.22653  0.09214  1.0000
  H   H14       1.0  0.45435  0.18653  0.09269  1.0000
  H   H15       1.0  0.45093  0.18289  0.11891  1.0000
  C   C26       1.0  0.48346  0.09322  0.18783  1.0000
  H   H16       1.0  0.48488  0.12286  0.16102  1.0000
  C   C27       1.0  0.49630  0.02054  0.18236  1.0000
  H   H17       1.0  0.46878  0.19233  0.05858  1.0000
  H   H18       1.0  0.49290  0.10530  0.14663  1.0000
  H   H19       1.0  0.48087  0.09000  0.19937  1.0000
  H   H20       1.0  0.37837  0.23487  0.09685  1.0000
  H   H21       1.0  0.41900  0.09881  0.21358  1.0000
  C   C28       1.0  0.44537  0.12018  0.18634  1.0000
  C   C29       1.0  0.44402  0.12557  0.19824  1.0000
  C   C30       1.0  0.44539  0.11602  0.21133  1.0000
  C   C31       1.0  0.44847  0.10115  0.21244  1.0000
  H   H22       1.0  0.44436  0.12746  0.17619  1.0000
  H   H23       1.0  0.44434  0.12012  0.22057  1.0000
  H   H24       1.0  0.44973  0.09392  0.22251  1.0000
  H   H25       1.0  0.38493  0.23794  0.11769  1.0000
  C   C32       1.0  0.50020  0.13703  0.09296  1.0000
  H   H26       1.0  0.38802  0.07233  0.22239  1.0000
  C   C33       1.0  0.48372  0.14161  0.11520  1.0000
  H   H27       1.0  0.46164  0.20332  0.14109  1.0000
  C   C34       1.0  0.49380  0.13207  0.10731  1.0000
  H   H28       1.0  0.45471  0.03820  0.16899  1.0000
  H   H29       1.0  0.48472  0.15444  0.19357  1.0000
  C   C35       1.0  0.49868  0.20712  0.00382  1.0000
  C   C36       1.0  0.38727  0.22733  0.11563  1.0000
  C   C37       1.0  0.45888  0.05701  0.17221  1.0000
  C   C38       1.0  0.50009  0.19310  0.10860  1.0000
  C   C39       1.0  0.49529  0.02101  0.19649  1.0000
  H   H30       1.0  0.48614  0.20273  0.14369  1.0000
  C   C40       1.0  0.48087  0.21158  0.13636  1.0000
  H   H31       1.0  0.46321  0.14848  0.02720  1.0000
  H   H32       1.0  0.47015  0.13903  0.21299  1.0000
  H   H33       1.0  0.48477  0.02418  0.20328  1.0000
  C   C41       1.0  0.49059  0.18627  0.01989  1.0000
  C   C42       1.0  0.39707  0.10048  0.22652  1.0000
  H   H34       1.0  0.48466  0.14366  0.06078  1.0000
  C   C43       1.0  0.50097  0.19469  0.01444  1.0000
  C   C44       1.0  0.48593  0.21124  0.99874  1.0000
  S   S9        1.0  0.46555  0.03942  0.22715  1.0000
  C   C45       1.0  0.44970  0.09574  0.20059  1.0000
  H   H35       1.0  0.44896  0.10122  0.17834  1.0000
  C   C46       1.0  0.46030  0.22312  0.12536  1.0000
  C   C47       1.0  0.48225  0.10771  0.18121  1.0000
  C   C48       1.0  0.47625  0.19929  0.05309  1.0000
  C   C49       1.0  0.48855  0.09624  0.10820  1.0000
  C   C50       1.0  0.48885  0.19727  0.05787  1.0000
  H   H36       1.0  0.47026  0.13101  0.01192  1.0000
  C   C51       1.0  0.39106  0.12746  0.20815  1.0000
  C   C52       1.0  0.45913  0.99372  0.23503  1.0000
  H   H37       1.0  0.46610  0.15415  0.07963  1.0000
  C   C53       1.0  0.48565  0.11181  0.16637  1.0000
  C   C54       1.0  0.47557  0.20279  0.00409  1.0000
  S   S10       1.0  0.43424  0.23911  0.03958  1.0000
  H   H38       1.0  0.47992  0.11273  0.21922  1.0000
  C   C55       1.0  0.48009  0.09390  0.13372  1.0000
  C   C56       1.0  0.49816  0.20677  0.05150  1.0000
  H   H39       1.0  0.44845  0.05972  0.17938  1.0000
  H   H40       1.0  0.46556  0.07542  0.17279  1.0000
  H   H41       1.0  0.48729  0.10150  0.09742  1.0000
  H   H42       1.0  0.45871  0.22560  0.09574  1.0000
  C   C57       1.0  0.49553  0.21733  0.03923  1.0000
  C   C58       1.0  0.48934  0.19990  0.10080  1.0000
  C   C59       1.0  0.38361  0.22560  0.10383  1.0000
  H   H43       1.0  0.47201  0.16346  0.11463  1.0000
  C   C60       1.0  0.47781  0.19021  0.01473  1.0000
  C   C61       1.0  0.47788  0.14580  0.99274  1.0000
  C   C62       1.0  0.48991  0.10168  0.15810  1.0000
  S   S11       1.0  0.45376  0.07711  0.20163  1.0000
  C   C63       1.0  0.37210  0.15345  0.12220  1.0000
  C   C64       1.0  0.35819  0.16215  0.12512  1.0000
  C   C65       1.0  0.35638  0.17702  0.12218  1.0000
  C   C66       1.0  0.36847  0.18323  0.11637  1.0000
  C   C67       1.0  0.38251  0.17456  0.11357  1.0000
  C   C68       1.0  0.38421  0.15962  0.11639  1.0000
  P   P1        1.0  0.39818  0.18247  0.10577  1.0000
  C   C69       1.0  0.39400  0.20001  0.10968  1.0000
  C   C70       1.0  0.41332  0.17114  0.11333  1.0000
  C   C71       1.0  0.41101  0.16344  0.12759  1.0000
  C   C72       1.0  0.42270  0.15421  0.13318  1.0000
  C   C73       1.0  0.43678  0.15273  0.12466  1.0000
  C   C74       1.0  0.43920  0.16062  0.11060  1.0000
  C   C75       1.0  0.42754  0.16985  0.10497  1.0000
  C   C76       1.0  0.39757  0.20182  0.12159  1.0000
  C   C77       1.0  0.48645  0.16113  0.09439  1.0000
  H   H44       1.0  0.49818  0.23604  0.05344  1.0000
  S   S12       1.0  0.48991  0.05923  0.21487  1.0000
  C   C78       1.0  0.38684  0.21200  0.10091  1.0000
  C   C79       1.0  0.40292  0.18400  0.08665  1.0000
  C   C80       1.0  0.39983  0.17441  0.08060  1.0000
  C   C81       1.0  0.40383  0.17556  0.06580  1.0000
  C   C82       1.0  0.41098  0.18625  0.05696  1.0000
  C   C83       1.0  0.41416  0.19577  0.06291  1.0000
  C   C84       1.0  0.41019  0.19463  0.07768  1.0000
  H   H45       1.0  0.37350  0.14191  0.12444  1.0000
  H   H46       1.0  0.34881  0.15736  0.12963  1.0000
  H   H47       1.0  0.34559  0.18378  0.12439  1.0000
  H   H48       1.0  0.36678  0.19477  0.11415  1.0000
  H   H49       1.0  0.39490  0.15273  0.11410  1.0000
  H   H50       1.0  0.40021  0.16460  0.13441  1.0000
  H   H51       1.0  0.42091  0.14832  0.14420  1.0000
  H   H52       1.0  0.44586  0.14568  0.12904  1.0000
  H   H53       1.0  0.45019  0.15976  0.10418  1.0000
  H   H54       1.0  0.42965  0.17613  0.09420  1.0000
  H   H55       1.0  0.40324  0.19286  0.12847  1.0000
  H   H56       1.0  0.46299  0.21243  0.03838  1.0000
  C   C85       1.0  0.48254  0.06221  0.15986  1.0000
  H   H57       1.0  0.44534  0.18529  0.04818  1.0000
  H   H58       1.0  0.38382  0.21092  0.09174  1.0000
  H   H59       1.0  0.39436  0.16602  0.08722  1.0000
  H   H60       1.0  0.40135  0.16818  0.06119  1.0000
  H   H61       1.0  0.41402  0.18719  0.04551  1.0000
  H   H62       1.0  0.41974  0.20407  0.05612  1.0000
  H   H63       1.0  0.41284  0.20204  0.08211  1.0000
  C   C86       1.0  0.46239  0.04498  0.16634  1.0000
  S   S13       1.0  0.49457  0.17612  0.16322  1.0000
  C   C87       1.0  0.48589  0.05027  0.15382  1.0000
  C   C88       1.0  0.44699  0.18934  0.01890  1.0000
  H   H64       1.0  0.38885  0.13797  0.20121  1.0000
  H   H65       1.0  0.46588  0.20609  0.99981  1.0000
  C   C89       1.0  0.47190  0.14182  0.00732  1.0000
  P   P2        1.0  0.46484  0.17880  0.02102  1.0000
  H   H66       1.0  0.49107  0.18853  0.06683  1.0000
  C   C90       1.0  0.44147  0.20225  0.02356  1.0000
  H   H67       1.0  0.44095  0.05134  0.21118  1.0000
  C   C91       1.0  0.45391  0.17608  0.05054  1.0000
  C   C92       1.0  0.47062  0.16559  0.01018  1.0000
  H   H68       1.0  0.36900  0.12906  0.22034  1.0000
  H   H69       1.0  0.44779  0.20603  0.02838  1.0000
  H   H70       1.0  0.42327  0.22007  0.02623  1.0000
  C   C93       1.0  0.40514  0.05826  0.21085  1.0000
  C   C94       1.0  0.49321  0.20408  0.08590  1.0000
  H   H71       1.0  0.48654  0.02324  0.17841  1.0000
  C   C95       1.0  0.42936  0.05575  0.21380  1.0000
  H   H72       1.0  0.39714  0.21674  0.13367  1.0000
  C   C96       1.0  0.42760  0.21032  0.02226  1.0000
  C   C97       1.0  0.47562  0.15847  0.04348  1.0000
  C   C98       1.0  0.41930  0.20594  0.01575  1.0000
  C   C99       1.0  0.40510  0.11887  0.20624  1.0000
  C   C100      1.0  0.44427  0.12844  0.98751  1.0000
  C   C101      1.0  0.39958  0.06767  0.22012  1.0000
  H   H73       1.0  0.49272  0.17669  0.02808  1.0000
  C   C102      1.0  0.45438  0.17019  0.06487  1.0000
  C   C103      1.0  0.46879  0.06577  0.16872  1.0000
  C   C104      1.0  0.40805  0.10536  0.21524  1.0000
  C   C105      1.0  0.47596  0.15257  0.05786  1.0000
  C   C106      1.0  0.42473  0.19319  0.01091  1.0000
  C   C107      1.0  0.46811  0.15171  0.01599  1.0000
  C   C108      1.0  0.47643  0.16957  0.99547  1.0000
  H   H74       1.0  0.47798  0.20159  0.10629  1.0000
  Fe  Fe6       1.0  0.48932  0.03638  0.22575  1.0000
  H   H75       1.0  0.41378  0.12272  0.19785  1.0000
  Fe  Fe7       1.0  0.42728  0.23014  0.06291  1.0000
  H   H76       1.0  0.49758  0.08469  0.05685  1.0000
  H   H77       1.0  0.39790  0.05560  0.20612  1.0000
  C   C109      1.0  0.44557  0.00160  0.23236  1.0000
  H   H78       1.0  0.44978  0.22285  0.12422  1.0000
  H   H79       1.0  0.43127  0.06778  0.22760  1.0000
  H   H80       1.0  0.46261  0.22256  0.07123  1.0000
  H   H81       1.0  0.50172  0.23254  0.08918  1.0000
  H   H82       1.0  0.46906  0.10947  0.11822  1.0000
  H   H83       1.0  0.48045  0.22794  0.02544  1.0000
  H   H84       1.0  0.47195  0.09735  0.14268  1.0000
  H   H85       1.0  0.49835  0.16252  0.14035  1.0000
  H   H86       1.0  0.48749  0.07183  0.18474  1.0000
  C   C110      1.0  0.46129  0.23430  0.08680  1.0000
  H   H87       1.0  0.49429  0.99204  0.22760  1.0000
  H   H88       1.0  0.48353  0.17237  0.08945  1.0000
  H   H89       1.0  0.48404  0.22100  0.99065  1.0000
  C   C111      1.0  0.37992  0.12246  0.21898  1.0000
  H   H90       1.0  0.44469  0.00794  0.22177  1.0000
  C   C112      1.0  0.48887  0.14294  0.19620  1.0000
  C   C113      1.0  0.40885  0.07090  0.22658  1.0000
  H   H91       1.0  0.49627  0.04763  0.14656  1.0000
  P   P3        1.0  0.49462  0.07433  0.15383  1.0000
  H   H92       1.0  0.47795  0.18036  0.99064  1.0000
  H   H93       1.0  0.49678  0.12085  0.11233  1.0000
  C   C114      1.0  0.48067  0.23439  0.11941  1.0000
  C   C115      1.0  0.48615  0.11947  0.21059  1.0000
  S   S14       1.0  0.40367  0.23495  0.06258  1.0000
  H   H94       1.0  0.49838  0.22252  0.12973  1.0000
  C   C116      1.0  0.46676  0.23477  0.11792  1.0000
  C   C117      1.0  0.49946  0.11324  0.20266  1.0000
  H   H95       1.0  0.45597  0.10705  0.99534  1.0000
  C   C118      1.0  0.48772  0.22277  0.12851  1.0000
  H   H96       1.0  0.46859  0.99410  0.22635  1.0000
  C   C119      1.0  0.38287  0.10898  0.22811  1.0000
  C   C120      1.0  0.50050  0.08500  0.11044  1.0000
  H   H97       1.0  0.44627  0.24076  0.98679  1.0000
  C   C121      1.0  0.48012  0.15969  0.98681  1.0000
  H   H98       1.0  0.49579  0.24088  0.99371  1.0000
  C   C122      1.0  0.45549  0.11625  0.98644  1.0000
  H   H99       1.0  0.48076  0.13807  0.98609  1.0000
  C   C123      1.0  0.18302  0.07032  0.44243  1.0000
  C   C124      1.0  0.40118  0.00238  0.43970  1.0000
  H   H100      1.0  0.02167  0.10322  0.43377  1.0000
  H   H101      1.0  0.10101  0.09908  0.46724  1.0000
  C   C125      1.0  0.00705  0.22105  0.37789  1.0000
  C   C126      1.0  0.01271  0.22731  0.39701  1.0000
  C   C127      1.0  0.13718  0.14461  0.44337  1.0000
  Fe  Fe8       1.0  0.24668  0.07171  0.47085  1.0000
  Fe  Fe9       1.0  0.46277  0.04419  0.24848  1.0000
  S   S15       1.0  0.44834  0.03395  0.26833  1.0000
  C   C128      1.0  0.01984  0.15001  0.45213  1.0000
  C   C129      1.0  0.20673  0.16697  0.47060  1.0000
  C   C130      1.0  0.30354  0.99204  0.46064  1.0000
  S   S16       1.0  0.13787  0.19912  0.47358  1.0000
  C   C131      1.0  0.23834  0.00263  0.42336  1.0000
  Fe  Fe10      1.0  0.16311  0.16483  0.46210  1.0000
  S   S17       1.0  0.17003  0.18580  0.45514  1.0000
  S   S18       1.0  0.17487  0.14308  0.45765  1.0000
  C   C132      1.0  0.38623  0.07804  0.25199  1.0000
  H   H102      1.0  0.07513  0.10244  0.47966  1.0000
  Fe  Fe11      1.0  0.14743  0.19544  0.45145  1.0000
  S   S19       1.0  0.14169  0.21445  0.43394  1.0000
  H   H103      1.0  0.03390  0.14358  0.46697  1.0000
  S   S20       1.0  0.14135  0.17431  0.45626  1.0000
  Fe  Fe12      1.0  0.25196  0.09767  0.44715  1.0000
  S   S21       1.0  0.27577  0.08790  0.44075  1.0000
  S   S22       1.0  0.24252  0.12071  0.43744  1.0000
  C   C133      1.0  0.05576  0.06121  0.47980  1.0000
  S   S23       1.0  0.26985  0.05970  0.46657  1.0000
  P   P4        1.0  0.36499  0.00351  0.35160  1.0000
  Fe  Fe13      1.0  0.27516  0.08072  0.46419  1.0000
  H   H104      1.0  0.24710  0.00783  0.42189  1.0000
  Fe  Fe14      1.0  0.26849  0.06766  0.44352  1.0000
  S   S24       1.0  0.28143  0.05262  0.42900  1.0000
  S   S25       1.0  0.25211  0.09211  0.47031  1.0000
  S   S26       1.0  0.24456  0.07800  0.44797  1.0000
  C   C134      1.0  0.38344  0.99427  0.38591  1.0000
  H   H105      1.0  0.39149  0.03739  0.31415  1.0000
  S   S27       1.0  0.39211  0.02322  0.25780  1.0000
  H   H106      1.0  0.10549  0.05353  0.47854  1.0000
  H   H107      1.0  0.00913  0.18037  0.43679  1.0000
  C   C135      1.0  0.20031  0.08490  0.47418  1.0000
  C   C136      1.0  0.11308  0.15268  0.47907  1.0000
  C   C137      1.0  0.37148  0.01253  0.33344  1.0000
  H   H108      1.0  0.03436  0.19719  0.39598  1.0000
  H   H109      1.0  0.22023  0.13294  0.41318  1.0000
  H   H110      1.0  0.28341  0.00014  0.32842  1.0000
  H   H111      1.0  0.26576  0.02005  0.43168  1.0000
  Fe  Fe15      1.0  0.26486  0.01346  0.38196  1.0000
  S   S28       1.0  0.28927  0.00902  0.37488  1.0000
  S   S29       1.0  0.25079  0.02937  0.39528  1.0000
  Fe  Fe16      1.0  0.48527  0.06273  0.23696  1.0000
  H   H112      1.0  0.16008  0.20436  0.38967  1.0000
  C   C138      1.0  0.25836  0.00497  0.45054  1.0000
  C   C139      1.0  0.21083  0.99392  0.46207  1.0000
  H   H113      1.0  0.10838  0.99699  0.48347  1.0000
  H   H114      1.0  0.13541  0.22611  0.37738  1.0000
  S   S30       1.0  0.29748  0.01997  0.33250  1.0000
  H   H115      1.0  0.26008  0.00050  0.32352  1.0000
  S   S31       1.0  0.26106  0.01553  0.36028  1.0000
  Fe  Fe17      1.0  0.08922  0.22501  0.38679  1.0000
  C   C140      1.0  0.22799  0.15455  0.48057  1.0000
  S   S32       1.0  0.10980  0.20825  0.39001  1.0000
  H   H116      1.0  0.43521  0.10353  0.25159  1.0000
  H   H117      1.0  0.15961  0.17981  0.38961  1.0000
  H   H118      1.0  0.10046  0.21950  0.48007  1.0000
  S   S33       1.0  0.01910  0.09756  0.46887  1.0000
  C   C141      1.0  0.21708  0.15445  0.47411  1.0000
  H   H119      1.0  0.42261  0.00756  0.24135  1.0000
  C   C142      1.0  0.42072  0.09479  0.24556  1.0000
  C   C143      1.0  0.29762  0.00528  0.45264  1.0000
  S   S34       1.0  0.06801  0.21804  0.39468  1.0000
  C   C144      1.0  0.32053  0.03195  0.36752  1.0000
  C   C145      1.0  0.03019  0.22734  0.37425  1.0000
  C   C146      1.0  0.49798  0.00417  0.26636  1.0000
  H   H120      1.0  0.04016  0.06903  0.46641  1.0000
  C   C147      1.0  0.37095  0.01827  0.30829  1.0000
  C   C148      1.0  0.03264  0.23101  0.48563  1.0000
  C   C149      1.0  0.02042  0.22343  0.36903  1.0000
  H   H121      1.0  0.39371  0.01137  0.45842  1.0000
  H   H122      1.0  0.39022  0.05666  0.24828  1.0000
  H   H123      1.0  0.38347  0.03346  0.29444  1.0000
  H   H124      1.0  0.02350  0.22155  0.35834  1.0000
  H   H125      1.0  0.11609  0.07454  0.46664  1.0000
  C   C150      1.0  0.37799  0.99959  0.36252  1.0000
  C   C151      1.0  0.16506  0.19535  0.39704  1.0000
  C   C152      1.0  0.09961  0.18449  0.45068  1.0000
  C   C153      1.0  0.12455  0.15014  0.43805  1.0000
  S   S35       1.0  0.48664  0.03959  0.24763  1.0000
  H   H126      1.0  0.17991  0.03680  0.46194  1.0000
  C   C154      1.0  0.00722  0.13913  0.42528  1.0000
  C   C155      1.0  0.32290  0.01165  0.31354  1.0000
  H   H127      1.0  0.22310  0.03478  0.46207  1.0000
  S   S36       1.0  0.49740  0.07644  0.24127  1.0000
  H   H128      1.0  0.38343  0.02457  0.33901  1.0000
  H   H129      1.0  0.05611  0.21329  0.45431  1.0000
  H   H130      1.0  0.31893  0.02090  0.30578  1.0000
  H   H131      1.0  0.37072  0.04922  0.26802  1.0000
  P   P5        1.0  0.24162  0.13838  0.48478  1.0000
  C   C156      1.0  0.27276  0.04713  0.41901  1.0000
  C   C157      1.0  0.28120  0.03811  0.40978  1.0000
  C   C158      1.0  0.27458  0.03280  0.40226  1.0000
  C   C159      1.0  0.25949  0.03653  0.40389  1.0000
  C   C160      1.0  0.25106  0.04576  0.41295  1.0000
  C   C161      1.0  0.25767  0.05103  0.42054  1.0000
  H   H132      1.0  0.29288  0.03506  0.40858  1.0000
  H   H133      1.0  0.28117  0.02574  0.39534  1.0000
  H   H134      1.0  0.23942  0.04877  0.41411  1.0000
  H   H135      1.0  0.25110  0.05798  0.42764  1.0000
  C   C162      1.0  0.01391  0.13644  0.47642  1.0000
  C   C163      1.0  0.09867  0.06403  0.47904  1.0000
  C   C164      1.0  0.04985  0.21810  0.46321  1.0000
  C   C165      1.0  0.13185  0.21201  0.42298  1.0000
  C   C166      1.0  0.13379  0.19869  0.41984  1.0000
  C   C167      1.0  0.12703  0.19758  0.40967  1.0000
  C   C168      1.0  0.11787  0.20963  0.40307  1.0000
  C   C169      1.0  0.11556  0.22276  0.40669  1.0000
  C   C170      1.0  0.12262  0.22397  0.41647  1.0000
  H   H136      1.0  0.14095  0.18939  0.42479  1.0000
  H   H137      1.0  0.12888  0.18739  0.40692  1.0000
  H   H138      1.0  0.10889  0.23217  0.40147  1.0000
  H   H139      1.0  0.12097  0.23422  0.41895  1.0000
  C   C171      1.0  0.19392  0.13756  0.45334  1.0000
  C   C172      1.0  0.20016  0.12291  0.45688  1.0000
  C   C173      1.0  0.21517  0.11775  0.45262  1.0000
  C   C174      1.0  0.22402  0.12723  0.44445  1.0000
  C   C175      1.0  0.21788  0.14199  0.44121  1.0000
  C   C176      1.0  0.20283  0.14719  0.44575  1.0000
  H   H140      1.0  0.02039  0.15842  0.40235  1.0000
  H   H141      1.0  0.21982  0.10637  0.45520  1.0000
  H   H142      1.0  0.22474  0.14936  0.43491  1.0000
  H   H143      1.0  0.19809  0.15851  0.44290  1.0000
  H   H144      1.0  0.33675  0.00906  0.34527  1.0000
  C   C177      1.0  0.25984  0.00475  0.48291  1.0000
  H   H145      1.0  0.17072  0.20858  0.40739  1.0000
  C   C178      1.0  0.43274  0.03101  0.26536  1.0000
  C   C179      1.0  0.42372  0.02333  0.27651  1.0000
  C   C180      1.0  0.41120  0.02097  0.27429  1.0000
  C   C181      1.0  0.40753  0.02641  0.26097  1.0000
  C   C182      1.0  0.41641  0.03432  0.24991  1.0000
  C   C183      1.0  0.42908  0.03645  0.25205  1.0000
  H   H146      1.0  0.42647  0.01911  0.28685  1.0000
  H   H147      1.0  0.29391  0.02658  0.47511  1.0000
  C   C184      1.0  0.37335  0.99746  0.37744  1.0000
  H   H148      1.0  0.38050  0.09736  0.26003  1.0000
  S   S37       1.0  0.04491  0.23519  0.42537  1.0000
  C   C185      1.0  0.16339  0.13891  0.37485  1.0000
  H   H149      1.0  0.16038  0.14093  0.43852  1.0000
  C   C186      1.0  0.09630  0.08979  0.47236  1.0000
  C   C187      1.0  0.02619  0.22951  0.38820  1.0000
  C   C188      1.0  0.13189  0.10408  0.46199  1.0000
  C   C189      1.0  0.26417  0.12175  0.46833  1.0000
  H   H150      1.0  0.35572  0.06565  0.28392  1.0000
  H   H151      1.0  0.11381  0.13531  0.46985  1.0000
  H   H152      1.0  0.42472  0.99391  0.26584  1.0000
  H   H153      1.0  0.18119  0.18809  0.42489  1.0000
  H   H154      1.0  0.15709  0.13224  0.37351  1.0000
  H   H155      1.0  0.00285  0.21768  0.43757  1.0000
  H   H156      1.0  0.33197  0.99676  0.47324  1.0000
  C   C190      1.0  0.22879  0.16763  0.48271  1.0000
  H   H157      1.0  0.34281  0.00442  0.29881  1.0000
  C   C191      1.0  0.19799  0.14127  0.41098  1.0000
  H   H158      1.0  0.26435  0.11342  0.47801  1.0000
  C   C192      1.0  0.13243  0.04371  0.45366  1.0000
  H   H159      1.0  0.19934  0.18949  0.47041  1.0000
  H   H160      1.0  0.20485  0.03087  0.44801  1.0000
  C   C193      1.0  0.02348  0.09619  0.48515  1.0000
  C   C194      1.0  0.09034  0.20351  0.43215  1.0000
  H   H161      1.0  0.21830  0.10117  0.48340  1.0000
  H   H162      1.0  0.28240  0.00144  0.41903  1.0000
  C   C195      1.0  0.38011  0.02252  0.33049  1.0000
  C   C196      1.0  0.01465  0.17932  0.42599  1.0000
  S   S38       1.0  0.46102  0.06785  0.24015  1.0000
  C   C197      1.0  0.43314  0.00150  0.24339  1.0000
  C   C198      1.0  0.15078  0.14482  0.43413  1.0000
  P   P6        1.0  0.15842  0.06378  0.46331  1.0000
  C   C199      1.0  0.08371  0.21222  0.44199  1.0000
  H   H163      1.0  0.20236  0.07515  0.42699  1.0000
  H   H164      1.0  0.19825  0.16678  0.46577  1.0000
  H   H165      1.0  0.14007  0.10472  0.42652  1.0000
  C   C200      1.0  0.37809  0.08705  0.26136  1.0000
  H   H166      1.0  0.30998  0.03847  0.37129  1.0000
  H   H167      1.0  0.41457  0.99174  0.36005  1.0000
  H   H168      1.0  0.19327  0.11552  0.46279  1.0000
  H   H169      1.0  0.33287  0.99198  0.39859  1.0000
  C   C201      1.0  0.12176  0.24104  0.36382  1.0000
  H   H170      1.0  0.10371  0.18310  0.42872  1.0000
  C   C202      1.0  0.18224  0.12443  0.42103  1.0000
  C   C203      1.0  0.34989  0.99881  0.47995  1.0000
  H   H171      1.0  0.15681  0.03494  0.48078  1.0000
  C   C204      1.0  0.48290  0.00686  0.26826  1.0000
  H   H172      1.0  0.18345  0.06086  0.47565  1.0000
  C   C205      1.0  0.13409  0.03042  0.46323  1.0000
  Fe  Fe18      1.0  0.26219  0.99187  0.36707  1.0000
  C   C206      1.0  0.10758  0.14188  0.47737  1.0000
  C   C207      1.0  0.00647  0.14967  0.44989  1.0000
  C   C208      1.0  0.15009  0.03755  0.47309  1.0000
  C   C209      1.0  0.19389  0.11378  0.42534  1.0000
  C   C210      1.0  0.16025  0.06167  0.48129  1.0000
  C   C211      1.0  0.22506  0.99351  0.46242  1.0000
  C   C212      1.0  0.20988  0.03167  0.48345  1.0000
  H   H173      1.0  0.36072  0.08970  0.27989  1.0000
  C   C213      1.0  0.14855  0.05093  0.46346  1.0000
  H   H174      1.0  0.41369  0.03844  0.23957  1.0000
  H   H175      1.0  0.39656  0.01209  0.43279  1.0000
  H   H176      1.0  0.33142  0.03841  0.37973  1.0000
  C   C214      1.0  0.01461  0.12596  0.43236  1.0000
  C   C215      1.0  0.40303  0.99379  0.36487  1.0000
  H   H177      1.0  0.36730  0.01664  0.29973  1.0000
  C   C216      1.0  0.27609  0.99834  0.42977  1.0000
  C   C217      1.0  0.13001  0.23722  0.37414  1.0000
  C   C218      1.0  0.43030  0.09448  0.25370  1.0000
  C   C219      1.0  0.36666  0.01074  0.32228  1.0000
  H   H178      1.0  0.09390  0.18884  0.47156  1.0000
  C   C220      1.0  0.01389  0.16788  0.42083  1.0000
  H   H179      1.0  0.47606  0.01609  0.27236  1.0000
  C   C221      1.0  0.18442  0.04528  0.45406  1.0000
  C   C222      1.0  0.38360  0.06427  0.25467  1.0000
  H   H180      1.0  0.46488  0.00179  0.30108  1.0000
  P   P7        1.0  0.00311  0.15516  0.43208  1.0000
  H   H181      1.0  0.50051  0.02001  0.30578  1.0000
  H   H182      1.0  0.17336  0.14406  0.35244  1.0000
  Fe  Fe19      1.0  0.06182  0.23310  0.37500  1.0000
  C   C223      1.0  0.33639  0.00239  0.30961  1.0000
  C   C224      1.0  0.17638  0.17221  0.41723  1.0000
  C   C225      1.0  0.47327  0.99426  0.30620  1.0000
  H   H183      1.0  0.22946  0.12193  0.47287  1.0000
  H   H184      1.0  0.02777  0.15471  0.44351  1.0000
  C   C226      1.0  0.01092  0.11380  0.41631  1.0000
  C   C227      1.0  0.36420  0.06913  0.27504  1.0000
  C   C228      1.0  0.33262  0.03187  0.37229  1.0000
  H   H185      1.0  0.17741  0.08145  0.44111  1.0000
  C   C229      1.0  0.22019  0.03767  0.47230  1.0000
  C   C230      1.0  0.10476  0.07597  0.47209  1.0000
  H   H186      1.0  0.15540  0.13538  0.39757  1.0000
  H   H187      1.0  0.01434  0.23034  0.47823  1.0000
  C   C231      1.0  0.19205  0.08759  0.46410  1.0000
  H   H188      1.0  0.08310  0.00646  0.48018  1.0000
  C   C232      1.0  0.08808  0.01255  0.48410  1.0000
  C   C233      1.0  0.34624  0.02344  0.36741  1.0000
  C   C234      1.0  0.14023  0.09055  0.46676  1.0000
  H   H189      1.0  0.44131  0.08210  0.27056  1.0000
  H   H190      1.0  0.06435  0.06505  0.47135  1.0000
  H   H191      1.0  0.13997  0.08703  0.47804  1.0000
  H   H192      1.0  0.29609  0.00607  0.44211  1.0000
  H   H193      1.0  0.25098  0.01334  0.45569  1.0000
  C   C235      1.0  0.17368  0.06097  0.48404  1.0000
  H   H194      1.0  0.17085  0.09642  0.45931  1.0000
  H   H195      1.0  0.19730  0.08511  0.45376  1.0000
  C   C236      1.0  0.38455  0.02994  0.31644  1.0000
  C   C237      1.0  0.08169  0.09170  0.47939  1.0000
  C   C238      1.0  0.17061  0.09716  0.48064  1.0000
  C   C239      1.0  0.02345  0.14355  0.46540  1.0000
  H   H196      1.0  0.43594  0.04245  0.24347  1.0000
  H   H197      1.0  0.01209  0.10398  0.41307  1.0000
  H   H198      1.0  0.15464  0.08066  0.43481  1.0000
  C   C240      1.0  0.17677  0.18617  0.41705  1.0000
  C   C241      1.0  0.17982  0.15594  0.37828  1.0000
  H   H199      1.0  0.19234  0.10315  0.43092  1.0000
  C   C242      1.0  0.34772  0.01473  0.35801  1.0000
  C   C243      1.0  0.20756  0.11687  0.42248  1.0000
  C   C244      1.0  0.20961  0.13058  0.41526  1.0000
  H   H200      1.0  0.20330  0.01084  0.42015  1.0000
  C   C245      1.0  0.21366  0.00436  0.42226  1.0000
  C   C246      1.0  0.17643  0.05954  0.45221  1.0000
  C   C247      1.0  0.22680  0.04741  0.47441  1.0000
  P   P8        1.0  0.07616  0.21845  0.46888  1.0000
  C   C248      1.0  0.25433  0.13505  0.46844  1.0000
  C   C249      1.0  0.25424  0.14551  0.45563  1.0000
  C   C250      1.0  0.26376  0.14263  0.44293  1.0000
  C   C251      1.0  0.27353  0.12938  0.44293  1.0000
  C   C252      1.0  0.02608  0.22755  0.47676  1.0000
  C   C253      1.0  0.17069  0.16970  0.40702  1.0000
  H   H201      1.0  0.12530  0.11054  0.46962  1.0000
  C   C254      1.0  0.18084  0.15400  0.36470  1.0000
  C   C255      1.0  0.48708  0.99713  0.30321  1.0000
  C   C256      1.0  0.39827  0.99265  0.37961  1.0000
  C   C257      1.0  0.02208  0.18979  0.41707  1.0000
  H   H202      1.0  0.46491  0.00066  0.26564  1.0000
  H   H203      1.0  0.24668  0.15580  0.45528  1.0000
  H   H204      1.0  0.26334  0.15052  0.43300  1.0000
  C   C258      1.0  0.24801  0.99837  0.48550  1.0000
  H   H205      1.0  0.31284  0.02408  0.35368  1.0000
  H   H206      1.0  0.48904  0.00684  0.29561  1.0000
  C   C259      1.0  0.00317  0.22290  0.39193  1.0000
  C   C260      1.0  0.38001  0.02778  0.30534  1.0000
  C   C261      1.0  0.22813  0.11750  0.48424  1.0000
  H   H207      1.0  0.21190  0.08044  0.47156  1.0000
  H   H208      1.0  0.13830  0.06400  0.44607  1.0000
  H   H209      1.0  0.04084  0.10743  0.47548  1.0000
  C   C262      1.0  0.04214  0.06331  0.47688  1.0000
  H   H210      1.0  0.21659  0.10871  0.42597  1.0000
  C   C263      1.0  0.16481  0.18139  0.39707  1.0000
  C   C264      1.0  0.09835  0.18968  0.43647  1.0000
  C   C265      1.0  0.17037  0.14957  0.39020  1.0000
  C   C266      1.0  0.14857  0.08188  0.45707  1.0000
  H   H211      1.0  0.11397  0.15019  0.44525  1.0000
  C   C267      1.0  0.02830  0.17750  0.39779  1.0000
  C   C268      1.0  0.31447  0.00881  0.32749  1.0000
  C   C269      1.0  0.19865  0.04185  0.44618  1.0000
  H   H212      1.0  0.02231  0.19882  0.42094  1.0000
  C   C270      1.0  0.09273  0.19306  0.46063  1.0000
  H   H213      1.0  0.41341  0.06169  0.26095  1.0000
  C   C271      1.0  0.36700  0.08268  0.27272  1.0000
  C   C272      1.0  0.12555  0.15587  0.42344  1.0000
  H   H214      1.0  0.08941  0.20756  0.42112  1.0000
  H   H215      1.0  0.10390  0.22432  0.45075  1.0000
  C   C273      1.0  0.16237  0.14080  0.38845  1.0000
  H   H216      1.0  0.10601  0.17387  0.45401  1.0000
  C   C274      1.0  0.39959  0.00199  0.45412  1.0000
  H   H217      1.0  0.35958  0.00350  0.32438  1.0000
  C   C275      1.0  0.29648  0.01678  0.47136  1.0000
  H   H218      1.0  0.35552  0.02383  0.37092  1.0000
  C   C276      1.0  0.02085  0.16701  0.40667  1.0000
  C   C277      1.0  0.27381  0.11902  0.45564  1.0000
  C   C278      1.0  0.20506  0.05260  0.43638  1.0000
  C   C279      1.0  0.05655  0.22178  0.47191  1.0000
  H   H219      1.0  0.15920  0.10234  0.48261  1.0000
  H   H220      1.0  0.12080  0.23289  0.35912  1.0000
  C   C280      1.0  0.13916  0.15614  0.41418  1.0000
  C   C281      1.0  0.08466  0.20698  0.45636  1.0000
  H   H221      1.0  0.28967  0.02792  0.45168  1.0000
  C   C282      1.0  0.15190  0.15040  0.41944  1.0000
  H   H222      1.0  0.03344  0.17696  0.38679  1.0000
  Fe  Fe20      1.0  0.38859  0.00098  0.26872  1.0000
  H   H223      1.0  0.19988  0.15177  0.40524  1.0000
  H   H224      1.0  0.28066  0.12699  0.43304  1.0000
  H   H225      1.0  0.28132  0.10872  0.45557  1.0000
  S   S39       1.0  0.04761  0.22859  0.36348  1.0000
  S   S40       1.0  0.15492  0.16607  0.48516  1.0000
  C   C283      1.0  0.26671  0.00884  0.43684  1.0000
  Fe  Fe21      1.0  0.13372  0.17708  0.47877  1.0000
  C   C284      1.0  0.17257  0.14555  0.36297  1.0000
  P   P9        1.0  0.16935  0.15185  0.40771  1.0000
  C   C285      1.0  0.37257  0.05990  0.26606  1.0000
  H   H226      1.0  0.13655  0.14045  0.45471  1.0000
  C   C286      1.0  0.09685  0.23436  0.45296  1.0000
  C   C287      1.0  0.14846  0.08715  0.44250  1.0000
  H   H227      1.0  0.17785  0.12462  0.48446  1.0000
  H   H228      1.0  0.21616  0.04993  0.43045  1.0000
  H   H229      1.0  0.43040  0.06121  0.27510  1.0000
  C   C288      1.0  0.32210  0.02377  0.35771  1.0000
  C   C289      1.0  0.41809  0.07090  0.25878  1.0000
  H   H230      1.0  0.12854  0.02251  0.46314  1.0000
  H   H231      1.0  0.22322  0.02255  0.41799  1.0000
  C   C290      1.0  0.17721  0.09383  0.46727  1.0000
  C   C291      1.0  0.03473  0.10212  0.48538  1.0000
  H   H232      1.0  0.18645  0.16236  0.37948  1.0000
  H   H233      1.0  0.21657  0.14481  0.47159  1.0000
  C   C292      1.0  0.22482  0.01097  0.42111  1.0000
  C   C293      1.0  0.02886  0.18890  0.40297  1.0000
  H   H234      1.0  0.13970  0.16113  0.40298  1.0000
  H   H235      1.0  0.02974  0.21857  0.45848  1.0000
  H   H236      1.0  0.19072  0.14326  0.48191  1.0000
  C   C294      1.0  0.03471  0.22091  0.46568  1.0000
  H   H237      1.0  0.23480  0.05199  0.46581  1.0000
  H   H238      1.0  0.17179  0.12180  0.42312  1.0000
  C   C295      1.0  0.43429  0.99376  0.25718  1.0000
  C   C296      1.0  0.14018  0.10076  0.43775  1.0000
  C   C297      1.0  0.13183  0.10918  0.44751  1.0000
  H   H239      1.0  0.23148  0.99955  0.45338  1.0000
  C   C298      1.0  0.42760  0.07066  0.26694  1.0000
  H   H240      1.0  0.07770  0.22301  0.43841  1.0000
  C   C299      1.0  0.14293  0.02735  0.47292  1.0000
  H   H241      1.0  0.26952  0.00220  0.47480  1.0000
  H   H242      1.0  0.40436  0.01505  0.28296  1.0000
  H   H243      1.0  0.35770  0.99597  0.47054  1.0000
  C   C300      1.0  0.43371  0.08243  0.26441  1.0000
  C   C301      1.0  0.18411  0.13837  0.41415  1.0000
  H   H244      1.0  0.18025  0.16345  0.42551  1.0000
  C   C302      1.0  0.17102  0.19774  0.40704  1.0000
  H   H245      1.0  0.12520  0.11961  0.44389  1.0000
  H   H246      1.0  0.20649  0.00026  0.45288  1.0000
  C   C303      1.0  0.19725  0.06683  0.43449  1.0000
  S   S41       1.0  0.20165  0.01956  0.48076  1.0000
  H   H247      1.0  0.36196  0.99804  0.38258  1.0000
  H   H248      1.0  0.03370  0.23228  0.39247  1.0000
  S   S42       1.0  0.29171  0.08316  0.47436  1.0000
  H   H249      1.0  0.39690  0.99747  0.34503  1.0000
  H   H250      1.0  0.11576  0.16041  0.41932  1.0000
  H   H251      1.0  0.18809  0.15901  0.35551  1.0000
  H   H252      1.0  0.14417  0.01711  0.48046  1.0000
  C   C304      1.0  0.13968  0.05389  0.45370  1.0000
  H   H253      1.0  0.31353  0.99501  0.34843  1.0000
  C   C305      1.0  0.47660  0.99800  0.26443  1.0000
  H   H254      1.0  0.21893  0.19016  0.48103  1.0000
  H   H255      1.0  0.12359  0.15444  0.47288  1.0000
  C   C306      1.0  0.29405  0.01762  0.45802  1.0000
  H   H256      1.0  0.00612  0.21317  0.46227  1.0000
  H   H257      1.0  0.37973  0.99273  0.39741  1.0000
  Fe  Fe22      1.0  0.15987  0.18794  0.47779  1.0000
  C   C307      1.0  0.31967  0.99698  0.33753  1.0000
  C   C308      1.0  0.33564  0.01523  0.35297  1.0000
  C   C309      1.0  0.20735  0.17979  0.47320  1.0000
  C   C310      1.0  0.21840  0.18013  0.47921  1.0000
  Fe  Fe23      1.0  0.28535  0.00938  0.35375  1.0000
  C   C311      1.0  0.30233  0.00351  0.47954  1.0000
  C   C312      1.0  0.39295  0.99713  0.35636  1.0000
  C   C313      1.0  0.01637  0.11337  0.42792  1.0000
  H   H258      1.0  0.01001  0.22834  0.40799  1.0000
  H   H259      1.0  0.01871  0.12517  0.44158  1.0000
  Fe  Fe24      1.0  0.06009  0.23747  0.40393  1.0000
  C   C314      1.0  0.41460  0.08294  0.24799  1.0000
  H   H260      1.0  0.12556  0.04609  0.44615  1.0000
  C   C315      1.0  0.08258  0.23486  0.46121  1.0000
  S   S43       1.0  0.08401  0.23811  0.36570  1.0000
  P   P10       1.0  0.40151  0.08323  0.23833  1.0000
  C   C316      1.0  0.00375  0.12687  0.40908  1.0000
  S   S44       1.0  0.36799  0.99334  0.27264  1.0000
  C   C317      1.0  0.33518  0.99922  0.48159  1.0000
  H   H261      1.0  0.37406  0.10527  0.23628  1.0000
  H   H262      1.0  0.41819  0.10434  0.23749  1.0000
  C   C318      1.0  0.04779  0.22794  0.48334  1.0000
  H   H263      1.0  0.50174  0.04290  0.28807  1.0000
  H   H264      1.0  0.02025  0.06033  0.48529  1.0000
  C   C319      1.0  0.08149  0.21035  0.48574  1.0000
  S   S45       1.0  0.08875  0.12401  0.48574  1.0000
  Fe  Fe25      1.0  0.05206  0.10269  0.52647  1.0000
  S   S46       1.0  0.07421  0.09362  0.51466  1.0000
  S   S47       1.0  0.03271  0.09434  0.52791  1.0000
  Fe  Fe26      1.0  0.06262  0.12223  0.53753  1.0000
  S   S48       1.0  0.08581  0.11496  0.52659  1.0000
  S   S49       1.0  0.05543  0.13714  0.55273  1.0000
  Fe  Fe27      1.0  0.07661  0.11633  0.50803  1.0000
  C   C320      1.0  0.01736  0.16260  0.61057  1.0000
  Fe  Fe28      1.0  0.08170  0.09280  0.53404  1.0000
  S   S50       1.0  0.09784  0.07451  0.54417  1.0000
  S   S51       1.0  0.05363  0.12570  0.51822  1.0000
  S   S52       1.0  0.05919  0.09986  0.54661  1.0000
  Fe  Fe29      1.0  0.15364  0.01481  0.51377  1.0000
  H   H265      1.0  0.47786  0.07282  0.71306  1.0000
  S   S53       1.0  0.13193  0.02689  0.50897  1.0000
  H   H266      1.0  0.30576  0.99441  0.58784  1.0000
  H   H267      1.0  0.28324  0.06918  0.56345  1.0000
  H   H268      1.0  0.35864  0.07283  0.61931  1.0000
  H   H269      1.0  0.11468  0.22808  0.59920  1.0000
  Fe  Fe30      1.0  0.17553  0.00652  0.53236  1.0000
  S   S54       1.0  0.17779  0.00997  0.55278  1.0000
  C   C321      1.0  0.04059  0.18579  0.52764  1.0000
  S   S55       1.0  0.17024  0.02553  0.51487  1.0000
  Fe  Fe31      1.0  0.11299  0.16873  0.56417  1.0000
  S   S56       1.0  0.11557  0.18794  0.56980  1.0000
  S   S57       1.0  0.10187  0.17252  0.54628  1.0000
  Fe  Fe32      1.0  0.13256  0.14775  0.58333  1.0000
  S   S58       1.0  0.13659  0.16542  0.59053  1.0000
  S   S59       1.0  0.14287  0.12464  0.59213  1.0000
  Fe  Fe33      1.0  0.11271  0.17490  0.59221  1.0000
  S   S60       1.0  0.09695  0.18377  0.61065  1.0000
  Fe  Fe34      1.0  0.13903  0.17677  0.56743  1.0000
  S   S61       1.0  0.15740  0.18764  0.55522  1.0000
  S   S62       1.0  0.10833  0.15629  0.58677  1.0000
  S   S63       1.0  0.13672  0.15858  0.56014  1.0000
  Fe  Fe35      1.0  0.21619  0.07900  0.55899  1.0000
  S   S64       1.0  0.23253  0.08323  0.56801  1.0000
  S   S65       1.0  0.19878  0.09685  0.55060  1.0000
  Fe  Fe36      1.0  0.23287  0.04851  0.55753  1.0000
  S   S66       1.0  0.25086  0.05025  0.56625  1.0000
  S   S67       1.0  0.23513  0.02864  0.54973  1.0000
  Fe  Fe37      1.0  0.23290  0.06112  0.58175  1.0000
  S   S68       1.0  0.23162  0.05724  0.60536  1.0000
  Fe  Fe38      1.0  0.24911  0.07214  0.55177  1.0000
  S   S69       1.0  0.26859  0.08167  0.54019  1.0000
  S   S70       1.0  0.21480  0.05777  0.57418  1.0000
  S   S71       1.0  0.23278  0.06945  0.54169  1.0000
  C   C322      1.0  0.37924  0.05923  0.62291  1.0000
  S   S72       1.0  0.46374  0.00452  0.61328  1.0000
  S   S73       1.0  0.41122  0.03876  0.69510  1.0000
  S   S74       1.0  0.41486  0.01131  0.68102  1.0000
  Fe  Fe39      1.0  0.42939  0.02354  0.68385  1.0000
  S   S75       1.0  0.44754  0.03181  0.66699  1.0000
  S   S76       1.0  0.37491  0.03500  0.68714  1.0000
  H   H270      1.0  0.18463  0.10671  0.52721  1.0000
  C   C323      1.0  0.41843  0.06597  0.62231  1.0000
  H   H271      1.0  0.21024  0.04766  0.50917  1.0000
  Fe  Fe40      1.0  0.30248  0.02635  0.63354  1.0000
  S   S77       1.0  0.32536  0.02948  0.62855  1.0000
  S   S78       1.0  0.28297  0.04456  0.63685  1.0000
  C   C324      1.0  0.22319  0.02064  0.59173  1.0000
  H   H272      1.0  0.45123  0.05998  0.72193  1.0000
  Fe  Fe41      1.0  0.32966  0.00913  0.64510  1.0000
  S   S79       1.0  0.34568  0.00246  0.65982  1.0000
  C   C325      1.0  0.07804  0.19432  0.50918  1.0000
  S   S80       1.0  0.30630  0.00707  0.65146  1.0000
  C   C326      1.0  0.29472  0.01766  0.50374  1.0000
  C   C327      1.0  0.08303  0.04051  0.52408  1.0000
  H   H273      1.0  0.20063  0.08691  0.49478  1.0000
  H   H274      1.0  0.09111  0.03190  0.52010  1.0000
  C   C328      1.0  0.26251  0.01395  0.65244  1.0000
  S   S81       1.0  0.04020  0.22340  0.66693  1.0000
  C   C329      1.0  0.19588  0.17683  0.55739  1.0000
  H   H275      1.0  0.17372  0.14602  0.55634  1.0000
  H   H276      1.0  0.22608  0.99785  0.49805  1.0000
  H   H277      1.0  0.25809  0.11071  0.54577  1.0000
  H   H278      1.0  0.16470  0.20621  0.58249  1.0000
  C   C330      1.0  0.02724  0.22190  0.65866  1.0000
  C   C331      1.0  0.02532  0.20824  0.65975  1.0000
  H   H279      1.0  0.06448  0.19842  0.49439  1.0000
  H   H280      1.0  0.49334  0.00347  0.61233  1.0000
  C   C332      1.0  0.19322  0.12522  0.51580  1.0000
  H   H281      1.0  0.17395  0.15511  0.57818  1.0000
  H   H282      1.0  0.03186  0.19892  0.66542  1.0000
  C   C333      1.0  0.29516  0.00153  0.58877  1.0000
  H   H283      1.0  0.33666  0.00540  0.55315  1.0000
  Fe  Fe42      1.0  0.18584  0.01172  0.50046  1.0000
  H   H284      1.0  0.41539  0.06905  0.61211  1.0000
  H   H285      1.0  0.26027  0.01172  0.56034  1.0000
  C   C334      1.0  0.08204  0.04153  0.53799  1.0000
  C   C335      1.0  0.36637  0.02593  0.67996  1.0000
  C   C336      1.0  0.35414  0.03338  0.67412  1.0000
  C   C337      1.0  0.34773  0.02654  0.66767  1.0000
  C   C338      1.0  0.35336  0.01208  0.66723  1.0000
  C   C339      1.0  0.36523  0.00459  0.67350  1.0000
  C   C340      1.0  0.37161  0.01142  0.67991  1.0000
  H   H286      1.0  0.34953  0.04447  0.67463  1.0000
  H   H287      1.0  0.33838  0.03241  0.66319  1.0000
  C   C341      1.0  0.02778  0.23282  0.57178  1.0000
  C   C342      1.0  0.45302  0.02382  0.65224  1.0000
  C   C343      1.0  0.45424  0.00914  0.65410  1.0000
  C   C344      1.0  0.45882  0.00286  0.64219  1.0000
  C   C345      1.0  0.46101  0.01149  0.62837  1.0000
  C   C346      1.0  0.45995  0.02616  0.62655  1.0000
  C   C347      1.0  0.45632  0.03224  0.63847  1.0000
  H   H288      1.0  0.45161  0.00268  0.66473  1.0000
  C   C348      1.0  0.21169  0.02083  0.61649  1.0000
  H   H289      1.0  0.46176  0.03285  0.61591  1.0000
  H   H290      1.0  0.45551  0.04359  0.63700  1.0000
  H   H291      1.0  0.19093  0.07196  0.51398  1.0000
  H   H292      1.0  0.19765  0.12529  0.52453  1.0000
  C   C349      1.0  0.21295  0.04496  0.49885  1.0000
  C   C350      1.0  0.10869  0.01508  0.49100  1.0000
  P   P11       1.0  0.02409  0.22666  0.53418  1.0000
  C   C351      1.0  0.43055  0.04141  0.58725  1.0000
  C   C352      1.0  0.27687  0.99341  0.56646  1.0000
  C   C353      1.0  0.18117  0.16049  0.52080  1.0000
  H   H293      1.0  0.00723  0.08446  0.49790  1.0000
  C   C354      1.0  0.24673  0.05542  0.61249  1.0000
  C   C355      1.0  0.26099  0.04950  0.60604  1.0000
  C   C356      1.0  0.27227  0.04577  0.61345  1.0000
  C   C357      1.0  0.26949  0.04903  0.62686  1.0000
  C   C358      1.0  0.25549  0.05611  0.63265  1.0000
  C   C359      1.0  0.24410  0.05885  0.62574  1.0000
  H   H294      1.0  0.26323  0.04752  0.59552  1.0000
  H   H295      1.0  0.28309  0.04050  0.60879  1.0000
  H   H296      1.0  0.25328  0.05883  0.64289  1.0000
  H   H297      1.0  0.23317  0.06355  0.63078  1.0000
  C   C360      1.0  0.27391  0.08335  0.52161  1.0000
  C   C361      1.0  0.26602  0.07955  0.51418  1.0000
  H   H298      1.0  0.38358  0.05944  0.61169  1.0000
  C   C362      1.0  0.15163  0.23115  0.55528  1.0000
  C   C363      1.0  0.28663  0.08816  0.51421  1.0000
  H   H299      1.0  0.25611  0.07603  0.51971  1.0000
  H   H300      1.0  0.29268  0.09128  0.51987  1.0000
  C   C364      1.0  0.09781  0.20006  0.61370  1.0000
  C   C365      1.0  0.08824  0.20512  0.62546  1.0000
  C   C366      1.0  0.08804  0.21847  0.62768  1.0000
  C   C367      1.0  0.09751  0.22685  0.61821  1.0000
  C   C368      1.0  0.10729  0.22168  0.60656  1.0000
  C   C369      1.0  0.10741  0.20833  0.60431  1.0000
  H   H301      1.0  0.08087  0.19873  0.63287  1.0000
  H   H302      1.0  0.08053  0.22227  0.63676  1.0000
  H   H303      1.0  0.31771  0.00088  0.67976  1.0000
  H   H304      1.0  0.11477  0.20441  0.59530  1.0000
  C   C370      1.0  0.15821  0.11635  0.58070  1.0000
  C   C371      1.0  0.16738  0.10352  0.58608  1.0000
  C   C372      1.0  0.17991  0.09726  0.57698  1.0000
  C   C373      1.0  0.18311  0.10376  0.56245  1.0000
  C   C374      1.0  0.17370  0.11627  0.55708  1.0000
  C   C375      1.0  0.16142  0.12257  0.56619  1.0000
  H   H305      1.0  0.16516  0.09875  0.59737  1.0000
  H   H306      1.0  0.18718  0.08760  0.58122  1.0000
  H   H307      1.0  0.17605  0.12135  0.54588  1.0000
  H   H308      1.0  0.15453  0.13235  0.56199  1.0000
  P   P12       1.0  0.17094  0.10063  0.50738  1.0000
  C   C376      1.0  0.16032  0.19089  0.53655  1.0000
  C   C377      1.0  0.15153  0.18721  0.52993  1.0000
  H   H309      1.0  0.48832  0.00745  0.63668  1.0000
  C   C378      1.0  0.09385  0.21283  0.48821  1.0000
  H   H310      1.0  0.14251  0.18246  0.53632  1.0000
  Fe  Fe43      1.0  0.39677  0.02516  0.69391  1.0000
  H   H311      1.0  0.43341  0.04518  0.60622  1.0000
  C   C379      1.0  0.20635  0.03522  0.49674  1.0000
  C   C380      1.0  0.41929  0.04976  0.64537  1.0000
  H   H312      1.0  0.19872  0.03033  0.50549  1.0000
  C   C381      1.0  0.19358  0.01577  0.55123  1.0000
  C   C382      1.0  0.20682  0.01025  0.54268  1.0000
  C   C383      1.0  0.21951  0.01424  0.54237  1.0000
  C   C384      1.0  0.21895  0.02412  0.55017  1.0000
  C   C385      1.0  0.20566  0.02983  0.55849  1.0000
  C   C386      1.0  0.19305  0.02547  0.55921  1.0000
  H   H313      1.0  0.20733  0.00265  0.53661  1.0000
  H   H314      1.0  0.22979  0.00977  0.53600  1.0000
  H   H315      1.0  0.20512  0.03746  0.56453  1.0000
  H   H316      1.0  0.18285  0.02971  0.56587  1.0000
  C   C387      1.0  0.06860  0.14659  0.55113  1.0000
  C   C388      1.0  0.07085  0.14918  0.56332  1.0000
  C   C389      1.0  0.08144  0.15669  0.56204  1.0000
  C   C390      1.0  0.08937  0.16209  0.54852  1.0000
  C   C391      1.0  0.08681  0.15982  0.53637  1.0000
  C   C392      1.0  0.07665  0.15185  0.53768  1.0000
  H   H317      1.0  0.06454  0.14523  0.57375  1.0000
  H   H318      1.0  0.08323  0.15860  0.57145  1.0000
  H   H319      1.0  0.09308  0.16387  0.52595  1.0000
  H   H320      1.0  0.07494  0.14986  0.52828  1.0000
  H   H321      1.0  0.44138  0.04258  0.58129  1.0000
  C   C393      1.0  0.13182  0.12862  0.50417  1.0000
  H   H322      1.0  0.27680  0.00738  0.51573  1.0000
  H   H323      1.0  0.08557  0.16454  0.50530  1.0000
  H   H324      1.0  0.07627  0.14496  0.50292  1.0000
  C   C394      1.0  0.10758  0.06148  0.53421  1.0000
  C   C395      1.0  0.11672  0.04910  0.54037  1.0000
  C   C396      1.0  0.12448  0.03849  0.53262  1.0000
  C   C397      1.0  0.12283  0.04013  0.51879  1.0000
  C   C398      1.0  0.11377  0.05251  0.51262  1.0000
  C   C399      1.0  0.10632  0.06323  0.52023  1.0000
  H   H325      1.0  0.11772  0.04770  0.55119  1.0000
  H   H326      1.0  0.13154  0.02898  0.53741  1.0000
  H   H327      1.0  0.11269  0.05396  0.50185  1.0000
  H   H328      1.0  0.09957  0.07280  0.51527  1.0000
  C   C400      1.0  0.02976  0.09479  0.51128  1.0000
  C   C401      1.0  0.03775  0.10159  0.49847  1.0000
  C   C402      1.0  0.12355  0.99188  0.52754  1.0000
  C   C403      1.0  0.18951  0.13525  0.49178  1.0000
  C   C404      1.0  0.01903  0.08834  0.51095  1.0000
  H   H329      1.0  0.04615  0.10652  0.49866  1.0000
  H   H330      1.0  0.32474  0.07396  0.48710  1.0000
  H   H331      1.0  0.41882  0.00049  0.61707  1.0000
  H   H332      1.0  0.01691  0.13094  0.48653  1.0000
  C   C405      1.0  0.32504  0.00231  0.49401  1.0000
  C   C406      1.0  0.23636  0.01330  0.59561  1.0000
  C   C407      1.0  0.08018  0.02574  0.48735  1.0000
  C   C408      1.0  0.08650  0.03379  0.49241  1.0000
  Fe  Fe44      1.0  0.32955  0.01514  0.61349  1.0000
  H   H333      1.0  0.31032  0.04126  0.59169  1.0000
  H   H334      1.0  0.32654  0.03056  0.57185  1.0000
  H   H335      1.0  0.42509  0.03641  0.57011  1.0000
  C   C409      1.0  0.42773  0.07176  0.63944  1.0000
  H   H336      1.0  0.08096  0.21848  0.59418  1.0000
  P   P13       1.0  0.32658  0.03630  0.54154  1.0000
  C   C410      1.0  0.16600  0.08040  0.54955  1.0000
  C   C411      1.0  0.17677  0.06779  0.54949  1.0000
  C   C412      1.0  0.18556  0.06479  0.53656  1.0000
  C   C413      1.0  0.18367  0.07444  0.52368  1.0000
  C   C414      1.0  0.17275  0.08709  0.52360  1.0000
  C   C415      1.0  0.16394  0.08999  0.53668  1.0000
  C   C416      1.0  0.18022  0.11431  0.50600  1.0000
  C   C417      1.0  0.19523  0.13540  0.50298  1.0000
  C   C418      1.0  0.49543  0.04609  0.65148  1.0000
  C   C419      1.0  0.23743  0.01010  0.60991  1.0000
  C   C420      1.0  0.14227  0.09900  0.51134  1.0000
  C   C421      1.0  0.12766  0.10459  0.51078  1.0000
  H   H337      1.0  0.15943  0.08292  0.55958  1.0000
  H   H338      1.0  0.17853  0.06048  0.55946  1.0000
  H   H339      1.0  0.19412  0.05513  0.53654  1.0000
  H   H340      1.0  0.15578  0.09989  0.53699  1.0000
  H   H341      1.0  0.10610  0.03424  0.49791  1.0000
  C   C422      1.0  0.07453  0.22864  0.58963  1.0000
  C   C423      1.0  0.48712  0.02394  0.66160  1.0000
  H   H342      1.0  0.14621  0.08753  0.51405  1.0000
  H   H343      1.0  0.12030  0.09748  0.51326  1.0000
  H   H344      1.0  0.04239  0.22625  0.55324  1.0000
  C   C424      1.0  0.17183  0.19725  0.52817  1.0000
  H   H345      1.0  0.34315  0.04681  0.55540  1.0000
  H   H346      1.0  0.28870  0.06075  0.58751  1.0000
  C   C425      1.0  0.30390  0.99212  0.69931  1.0000
  H   H347      1.0  0.01451  0.07413  0.58679  1.0000
  H   H348      1.0  0.24313  0.15162  0.52818  1.0000
  H   H349      1.0  0.00219  0.10479  0.55014  1.0000
  H   H350      1.0  0.14795  0.18637  0.50986  1.0000
  C   C426      1.0  0.01522  0.20651  0.65328  1.0000
  H   H351      1.0  0.16335  0.05987  0.51966  1.0000
  C   C427      1.0  0.19382  0.08845  0.48744  1.0000
  P   P14       1.0  0.39358  0.99204  0.61497  1.0000
  H   H352      1.0  0.32670  0.04809  0.49004  1.0000
  C   C428      1.0  0.00615  0.08181  0.58177  1.0000
  H   H353      1.0  0.03651  0.16589  0.54180  1.0000
  C   C429      1.0  0.28426  0.08407  0.49229  1.0000
  S   S82       1.0  0.30637  0.01364  0.61708  1.0000
  C   C430      1.0  0.22202  0.12520  0.54770  1.0000
  C   C431      1.0  0.02273  0.22334  0.71402  1.0000
  H   H354      1.0  0.26780  0.02042  0.48792  1.0000
  H   H355      1.0  0.04269  0.20698  0.51580  1.0000
  H   H356      1.0  0.45987  0.99147  0.64371  1.0000
  C   C432      1.0  0.47170  0.01604  0.71032  1.0000
  C   C433      1.0  0.48508  0.01777  0.71107  1.0000
  C   C434      1.0  0.25372  0.99190  0.56381  1.0000
  C   C435      1.0  0.50105  0.01608  0.65651  1.0000
  C   C436      1.0  0.31737  0.03926  0.56977  1.0000
  C   C437      1.0  0.49567  0.09512  0.71966  1.0000
  C   C438      1.0  0.02534  0.23161  0.70012  1.0000
  C   C439      1.0  0.20147  0.15827  0.53097  1.0000
  H   H357      1.0  0.36394  0.99295  0.61348  1.0000
  H   H358      1.0  0.01854  0.17766  0.56036  1.0000
  C   C440      1.0  0.22305  0.05115  0.48765  1.0000
  C   C441      1.0  0.10089  0.02834  0.49407  1.0000
  H   H359      1.0  0.18952  0.19945  0.55666  1.0000
  C   C442      1.0  0.15457  0.18947  0.51494  1.0000
  C   C443      1.0  0.32187  0.99498  0.55010  1.0000
  H   H360      1.0  0.30093  0.03301  0.53474  1.0000
  C   C444      1.0  0.12014  0.21517  0.54092  1.0000
  H   H361      1.0  0.49175  0.10431  0.71179  1.0000
  C   C445      1.0  0.31390  0.99140  0.68634  1.0000
  H   H362      1.0  0.12644  0.00060  0.52979  1.0000
  H   H363      1.0  0.30158  0.09229  0.49388  1.0000
  C   C446      1.0  0.19092  0.11569  0.59430  1.0000
  C   C447      1.0  0.36513  0.06710  0.62715  1.0000
  H   H364      1.0  0.04825  0.18056  0.51948  1.0000
  H   H365      1.0  0.43801  0.99445  0.63710  1.0000
  C   C448      1.0  0.01994  0.23072  0.55162  1.0000
  C   C449      1.0  0.37011  0.01788  0.53599  1.0000
  C   C450      1.0  0.34463  0.00442  0.50310  1.0000
  H   H366      1.0  0.23690  0.10723  0.53968  1.0000
  H   H367      1.0  0.01016  0.21659  0.51738  1.0000
  C   C451      1.0  0.25905  0.01491  0.49046  1.0000
  H   H368      1.0  0.09045  0.20776  0.53616  1.0000
  H   H369      1.0  0.12771  0.14013  0.50164  1.0000
  C   C452      1.0  0.49815  0.06883  0.69768  1.0000
  H   H370      1.0  0.01061  0.24042  0.58870  1.0000
  C   C453      1.0  0.32484  0.07211  0.50908  1.0000
  H   H371      1.0  0.20844  0.11702  0.57599  1.0000
  H   H372      1.0  0.17152  0.22621  0.56249  1.0000
  H   H373      1.0  0.49650  0.07967  0.69128  1.0000
  H   H374      1.0  0.22532  0.09924  0.52432  1.0000
  S   S83       1.0  0.17146  0.19740  0.48803  1.0000
  C   C454      1.0  0.01856  0.18376  0.62322  1.0000
  C   C455      1.0  0.38110  0.00906  0.61655  1.0000
  C   C456      1.0  0.37505  0.01750  0.60493  1.0000
  C   C457      1.0  0.36537  0.03068  0.60598  1.0000
  C   C458      1.0  0.36160  0.03550  0.61863  1.0000
  C   C459      1.0  0.36785  0.02736  0.63009  1.0000
  C   C460      1.0  0.37765  0.01426  0.62904  1.0000
  H   H375      1.0  0.23095  0.14931  0.51080  1.0000
  H   H376      1.0  0.23144  0.14671  0.56309  1.0000
  H   H377      1.0  0.10294  0.00457  0.52331  1.0000
  C   C461      1.0  0.14671  0.23572  0.52237  1.0000
  C   C462      1.0  0.48744  0.01804  0.72419  1.0000
  C   C463      1.0  0.28327  0.99721  0.59897  1.0000
  H   H378      1.0  0.34067  0.99688  0.69456  1.0000
  C   C464      1.0  0.20219  0.16322  0.56464  1.0000
  C   C465      1.0  0.03112  0.22959  0.55832  1.0000
  C   C466      1.0  0.13829  0.22747  0.55739  1.0000
  C   C467      1.0  0.27093  0.00149  0.64801  1.0000
  H   H379      1.0  0.26983  0.14287  0.52533  1.0000
  C   C468      1.0  0.06245  0.06246  0.53554  1.0000
  C   C469      1.0  0.22104  0.09889  0.50457  1.0000
  H   H380      1.0  0.37751  0.01374  0.59518  1.0000
  H   H381      1.0  0.36039  0.03694  0.59713  1.0000
  H   H382      1.0  0.35369  0.04545  0.61961  1.0000
  H   H383      1.0  0.36499  0.03112  0.63989  1.0000
  H   H384      1.0  0.38234  0.00827  0.63807  1.0000
  H   H385      1.0  0.02596  0.23640  0.49402  1.0000
  C   C470      1.0  0.20694  0.16207  0.57698  1.0000
  H   H386      1.0  0.15150  0.22550  0.52849  1.0000
  C   C471      1.0  0.06598  0.23131  0.51594  1.0000
  C   C472      1.0  0.44501  0.05345  0.73072  1.0000
  H   H387      1.0  0.05758  0.22187  0.62608  1.0000
  H   H388      1.0  0.13164  0.21060  0.54020  1.0000
  C   C473      1.0  0.03979  0.23347  0.52293  1.0000
  C   C474      1.0  0.05388  0.22601  0.52456  1.0000
  H   H389      1.0  0.11967  0.01089  0.49269  1.0000
  H   H390      1.0  0.14095  0.20013  0.58671  1.0000
  H   H391      1.0  0.47822  0.01869  0.66714  1.0000
  H   H392      1.0  0.29993  0.00218  0.70275  1.0000
  H   H393      1.0  0.24574  0.01042  0.58737  1.0000
  C   C475      1.0  0.09038  0.19679  0.51149  1.0000
  H   H394      1.0  0.49335  0.01951  0.70135  1.0000
  H   H395      1.0  0.07145  0.05369  0.55424  1.0000
  C   C476      1.0  0.28096  0.01697  0.51279  1.0000
  H   H396      1.0  0.07682  0.22545  0.51713  1.0000
  H   H397      1.0  0.01889  0.19166  0.62858  1.0000
  C   C477      1.0  0.16117  0.22346  0.56426  1.0000
  C   C478      1.0  0.07366  0.20098  0.49631  1.0000
  C   C479      1.0  0.42023  0.99999  0.60612  1.0000
  C   C480      1.0  0.30216  0.05502  0.55379  1.0000
  H   H398      1.0  0.18501  0.06014  0.49975  1.0000
  H   H399      1.0  0.49323  0.05767  0.64952  1.0000
  H   H400      1.0  0.05275  0.23055  0.49032  1.0000
  H   H401      1.0  0.27967  0.99489  0.65314  1.0000
  C   C481      1.0  0.19983  0.18786  0.57423  1.0000
  C   C482      1.0  0.29589  0.05610  0.57875  1.0000
  C   C483      1.0  0.09176  0.15819  0.49757  1.0000
  C   C484      1.0  0.41601  0.05309  0.63189  1.0000
  H   H402      1.0  0.00364  0.14812  0.52174  1.0000
  C   C485      1.0  0.42492  0.05920  0.64916  1.0000
  C   C486      1.0  0.35548  0.02153  0.53529  1.0000
  C   C487      1.0  0.30808  0.04519  0.58108  1.0000
  C   C488      1.0  0.29287  0.06091  0.56516  1.0000
  H   H403      1.0  0.17175  0.11710  0.61133  1.0000
  H   H404      1.0  0.01406  0.19584  0.65401  1.0000
  C   C489      1.0  0.01867  0.23393  0.65134  1.0000
  C   C490      1.0  0.32988  0.00507  0.50468  1.0000
  H   H405      1.0  0.17616  0.16382  0.51168  1.0000
  H   H406      1.0  0.20081  0.03066  0.59904  1.0000
  C   C491      1.0  0.13545  0.09085  0.60380  1.0000
  C   C492      1.0  0.12475  0.09738  0.61398  1.0000
  C   C493      1.0  0.11083  0.10372  0.61149  1.0000
  C   C494      1.0  0.10756  0.10336  0.59890  1.0000
  C   C495      1.0  0.11823  0.09669  0.58865  1.0000
  C   C496      1.0  0.13234  0.09084  0.59103  1.0000
  P   P15       1.0  0.11406  0.09612  0.57237  1.0000
  C   C497      1.0  0.12505  0.08021  0.56618  1.0000
  C   C498      1.0  0.09506  0.09587  0.57571  1.0000
  C   C499      1.0  0.09080  0.08314  0.57714  1.0000
  C   C500      1.0  0.07610  0.08315  0.57940  1.0000
  C   C501      1.0  0.06554  0.09581  0.58039  1.0000
  C   C502      1.0  0.06967  0.10850  0.57902  1.0000
  C   C503      1.0  0.08436  0.10858  0.57660  1.0000
  C   C504      1.0  0.12921  0.08041  0.55153  1.0000
  C   C505      1.0  0.13774  0.06815  0.54673  1.0000
  C   C506      1.0  0.14222  0.05560  0.55646  1.0000
  C   C507      1.0  0.13786  0.05521  0.57108  1.0000
  C   C508      1.0  0.12916  0.06741  0.57596  1.0000
  C   C509      1.0  0.11770  0.11170  0.55864  1.0000
  C   C510      1.0  0.12919  0.11781  0.55787  1.0000
  C   C511      1.0  0.13197  0.12978  0.54702  1.0000
  C   C512      1.0  0.12319  0.13584  0.53711  1.0000
  C   C513      1.0  0.11195  0.12963  0.53768  1.0000
  C   C514      1.0  0.10929  0.11754  0.54829  1.0000
  H   H407      1.0  0.14631  0.08624  0.60562  1.0000
  H   H408      1.0  0.12738  0.09791  0.62359  1.0000
  H   H409      1.0  0.10264  0.10909  0.61923  1.0000
  H   H410      1.0  0.09674  0.10841  0.59723  1.0000
  H   H411      1.0  0.14100  0.08633  0.58302  1.0000
  H   H412      1.0  0.09876  0.07327  0.57608  1.0000
  H   H413      1.0  0.07296  0.07340  0.57999  1.0000
  H   H414      1.0  0.05418  0.09589  0.58184  1.0000
  H   H415      1.0  0.06151  0.11838  0.57945  1.0000
  H   H416      1.0  0.08737  0.11862  0.57520  1.0000
  H   H417      1.0  0.12565  0.08991  0.54379  1.0000
  H   H418      1.0  0.14063  0.06833  0.53547  1.0000
  H   H419      1.0  0.14883  0.04609  0.55268  1.0000
  H   H420      1.0  0.14109  0.04539  0.57864  1.0000
  H   H421      1.0  0.12559  0.06682  0.58734  1.0000
  H   H422      1.0  0.13594  0.11345  0.56563  1.0000
  H   H423      1.0  0.14081  0.13451  0.54632  1.0000
  H   H424      1.0  0.12503  0.14540  0.52901  1.0000
  H   H425      1.0  0.10524  0.13423  0.52989  1.0000
  H   H426      1.0  0.10062  0.11280  0.54844  1.0000
  H   H427      1.0  0.32231  0.00739  0.51436  1.0000
  C   C515      1.0  0.46071  0.01439  0.72267  1.0000
  C   C516      1.0  0.00657  0.21843  0.64600  1.0000
  C   C517      1.0  0.24761  0.11799  0.54804  1.0000
  C   C518      1.0  0.42756  0.00113  0.64061  1.0000
  C   C519      1.0  0.18217  0.12466  0.49324  1.0000
  C   C520      1.0  0.40355  0.00352  0.65571  1.0000
  C   C521      1.0  0.39993  0.01792  0.64871  1.0000
  C   C522      1.0  0.41035  0.02409  0.63772  1.0000
  C   C523      1.0  0.42418  0.01554  0.63373  1.0000
  P   P16       1.0  0.40632  0.04242  0.62786  1.0000
  C   C524      1.0  0.38760  0.05156  0.63309  1.0000
  C   C525      1.0  0.35945  0.06780  0.64147  1.0000
  C   C526      1.0  0.36795  0.06078  0.65152  1.0000
  C   C527      1.0  0.38191  0.05267  0.64738  1.0000
  C   C528      1.0  0.41199  0.04134  0.60929  1.0000
  C   C529      1.0  0.40317  0.03716  0.60310  1.0000
  C   C530      1.0  0.40776  0.03562  0.58895  1.0000
  H   H428      1.0  0.10376  0.23738  0.57390  1.0000
  H   H429      1.0  0.24587  0.02666  0.50650  1.0000
  H   H430      1.0  0.39570  0.99859  0.66415  1.0000
  H   H431      1.0  0.38901  0.02399  0.65186  1.0000
  H   H432      1.0  0.43232  0.01990  0.62510  1.0000
  H   H433      1.0  0.41722  0.04006  0.65310  1.0000
  H   H434      1.0  0.34855  0.07393  0.64478  1.0000
  H   H435      1.0  0.36380  0.06160  0.66258  1.0000
  H   H436      1.0  0.38831  0.04741  0.65540  1.0000
  H   H437      1.0  0.39282  0.03492  0.60928  1.0000
  H   H438      1.0  0.40088  0.03233  0.58431  1.0000
  C   C531      1.0  0.27984  0.02459  0.58127  1.0000
  C   C532      1.0  0.29345  0.01520  0.57995  1.0000
  C   C533      1.0  0.36045  0.00098  0.57440  1.0000
  C   C534      1.0  0.03387  0.17749  0.54019  1.0000
  C   C535      1.0  0.26952  0.00648  0.60026  1.0000
  C   C536      1.0  0.26792  0.02028  0.59146  1.0000
  C   C537      1.0  0.26339  0.00011  0.56312  1.0000
  H   H439      1.0  0.26545  0.07613  0.49407  1.0000
  C   C538      1.0  0.19474  0.18908  0.56215  1.0000
  H   H440      1.0  0.03181  0.21680  0.71867  1.0000
  C   C539      1.0  0.23221  0.11641  0.50727  1.0000
  C   C540      1.0  0.22612  0.10437  0.51312  1.0000
  C   C541      1.0  0.48436  0.03887  0.65915  1.0000
  C   C542      1.0  0.25728  0.00633  0.62972  1.0000
  C   C543      1.0  0.24917  0.01907  0.63395  1.0000
  C   C544      1.0  0.25152  0.02262  0.64554  1.0000
  H   H441      1.0  0.27864  0.03534  0.57467  1.0000
  H   H442      1.0  0.30272  0.01854  0.57223  1.0000
  C   C545      1.0  0.00982  0.08922  0.56762  1.0000
  C   C546      1.0  0.16642  0.19540  0.50665  1.0000
  H   H443      1.0  0.25754  0.02784  0.59276  1.0000
  C   C547      1.0  0.25083  0.14015  0.49728  1.0000
  C   C548      1.0  0.29173  0.08861  0.49956  1.0000
  C   C549      1.0  0.19222  0.13711  0.57531  1.0000
  H   H444      1.0  0.36905  0.00658  0.57215  1.0000
  H   H445      1.0  0.24132  0.02652  0.62814  1.0000
  H   H446      1.0  0.24520  0.03242  0.64882  1.0000
  C   C550      1.0  0.07969  0.15218  0.61987  1.0000
  C   C551      1.0  0.07828  0.15238  0.63410  1.0000
  C   C552      1.0  0.06707  0.16233  0.64052  1.0000
  C   C553      1.0  0.05742  0.17227  0.63264  1.0000
  C   C554      1.0  0.05920  0.17257  0.61814  1.0000
  C   C555      1.0  0.07012  0.16216  0.61192  1.0000
  P   P17       1.0  0.04681  0.18562  0.60805  1.0000
  C   C556      1.0  0.03052  0.17880  0.61287  1.0000
  C   C557      1.0  0.04334  0.20292  0.61211  1.0000
  C   C558      1.0  0.05332  0.20636  0.61749  1.0000
  C   C559      1.0  0.05019  0.21952  0.62128  1.0000
  C   C560      1.0  0.03742  0.22957  0.61912  1.0000
  C   C561      1.0  0.02766  0.22637  0.61335  1.0000
  C   C562      1.0  0.03067  0.21318  0.60967  1.0000
  H   H447      1.0  0.13762  0.06136  0.49087  1.0000
  C   C563      1.0  0.02378  0.18414  0.55067  1.0000
  C   C564      1.0  0.19916  0.99221  0.58816  1.0000
  C   C565      1.0  0.06991  0.23986  0.59677  1.0000
  C   C566      1.0  0.02999  0.16788  0.60687  1.0000
  C   C567      1.0  0.05466  0.18851  0.58915  1.0000
  C   C568      1.0  0.06910  0.19007  0.58410  1.0000
  C   C569      1.0  0.07537  0.19210  0.56950  1.0000
  C   C570      1.0  0.06729  0.19265  0.55984  1.0000
  C   C571      1.0  0.05280  0.19160  0.56474  1.0000
  C   C572      1.0  0.04638  0.18979  0.57932  1.0000
  H   H448      1.0  0.08842  0.14448  0.61491  1.0000
  H   H449      1.0  0.08596  0.14491  0.64012  1.0000
  H   H450      1.0  0.06598  0.16252  0.65154  1.0000
  H   H451      1.0  0.04878  0.17992  0.63777  1.0000
  H   H452      1.0  0.07145  0.16187  0.60089  1.0000
  H   H453      1.0  0.06345  0.19885  0.61895  1.0000
  C   C573      1.0  0.40956  0.99632  0.60195  1.0000
  S   S84       1.0  0.15745  0.99686  0.53258  1.0000
  H   H454      1.0  0.01741  0.23382  0.61233  1.0000
  H   H455      1.0  0.02285  0.21083  0.60541  1.0000
  H   H456      1.0  0.01402  0.15396  0.49572  1.0000
  C   C574      1.0  0.01373  0.23983  0.69388  1.0000
  H   H457      1.0  0.13958  0.06054  0.51510  1.0000
  H   H458      1.0  0.27258  0.13055  0.48686  1.0000
  H   H459      1.0  0.03934  0.16345  0.59932  1.0000
  H   H460      1.0  0.07560  0.18945  0.59149  1.0000
  H   H461      1.0  0.08665  0.19275  0.56568  1.0000
  H   H462      1.0  0.07242  0.19343  0.54863  1.0000
  H   H463      1.0  0.04670  0.19183  0.55723  1.0000
  H   H464      1.0  0.03506  0.18923  0.58286  1.0000
  C   C575      1.0  0.18577  0.11466  0.51731  1.0000
  C   C576      1.0  0.30699  0.02241  0.53886  1.0000
  C   C577      1.0  0.11173  0.20788  0.53764  1.0000
  C   C578      1.0  0.27126  0.07977  0.49956  1.0000
  H   H465      1.0  0.07241  0.18662  0.51709  1.0000
  C   C579      1.0  0.17760  0.12273  0.60144  1.0000
  H   H466      1.0  0.40311  0.99386  0.58391  1.0000
  C   C580      1.0  0.26595  0.13527  0.49572  1.0000
  H   H467      1.0  0.01695  0.15426  0.60582  1.0000
  S   S85       1.0  0.43459  0.00839  0.70382  1.0000
  C   C581      1.0  0.15180  0.10818  0.50815  1.0000
  C   C582      1.0  0.14908  0.06077  0.50642  1.0000
  H   H468      1.0  0.32627  0.00059  0.59450  1.0000
  C   C583      1.0  0.23511  0.01186  0.50387  1.0000
  S   S86       1.0  0.34468  0.01920  0.59200  1.0000
  H   H469      1.0  0.47350  0.04481  0.66299  1.0000
  H   H470      1.0  0.20216  0.02392  0.62457  1.0000
  C   C584      1.0  0.12250  0.11940  0.50700  1.0000
  H   H471      1.0  0.48888  0.99772  0.68812  1.0000
  C   C585      1.0  0.13437  0.21646  0.56895  1.0000
  C   C586      1.0  0.24951  0.14712  0.51909  1.0000
  C   C587      1.0  0.24266  0.14592  0.50916  1.0000
  H   H472      1.0  0.46959  0.01656  0.70010  1.0000
  C   C588      1.0  0.43483  0.00226  0.58199  1.0000
  H   H473      1.0  0.28438  0.13223  0.50466  1.0000
  C   C589      1.0  0.00448  0.22742  0.51827  1.0000
  C   C590      1.0  0.31471  0.04438  0.55596  1.0000
  C   C591      1.0  0.17364  0.15431  0.53417  1.0000
  C   C592      1.0  0.37493  0.02453  0.54376  1.0000
  C   C593      1.0  0.14803  0.06118  0.49267  1.0000
  H   H474      1.0  0.38060  0.00543  0.68486  1.0000
  H   H475      1.0  0.43687  0.04577  0.71691  1.0000
  C   C594      1.0  0.23559  0.00211  0.49601  1.0000
  H   H476      1.0  0.16101  0.14216  0.60093  1.0000
  H   H477      1.0  0.01286  0.20401  0.55703  1.0000
  C   C595      1.0  0.17152  0.13688  0.59554  1.0000
  C   C596      1.0  0.30170  0.01041  0.54005  1.0000
  C   C597      1.0  0.32711  0.00695  0.54907  1.0000
  H   H478      1.0  0.29161  0.01178  0.53700  1.0000
  H   H479      1.0  0.32404  0.08345  0.50775  1.0000
  H   H480      1.0  0.36612  0.00040  0.48966  1.0000
  H   H481      1.0  0.22259  0.02343  0.58062  1.0000
  C   C598      1.0  0.42391  0.99931  0.57760  1.0000
  C   C599      1.0  0.09689  0.21360  0.53850  1.0000
  C   C600      1.0  0.17992  0.15030  0.54601  1.0000
  C   C601      1.0  0.42141  0.03787  0.58098  1.0000
  C   C602      1.0  0.42592  0.04303  0.60138  1.0000
  H   H482      1.0  0.42709  0.05676  0.65971  1.0000
  H   H483      1.0  0.05620  0.06954  0.51547  1.0000
  C   C603      1.0  0.15280  0.23957  0.50779  1.0000
  C   C604      1.0  0.03087  0.05842  0.48756  1.0000
  C   C605      1.0  0.35081  0.99461  0.71178  1.0000
  H   H484      1.0  0.11670  0.19766  0.53459  1.0000
  C   C606      1.0  0.09048  0.22676  0.54241  1.0000
  H   H485      1.0  0.21275  0.12321  0.54534  1.0000
  C   C607      1.0  0.04683  0.04921  0.50415  1.0000
  H   H486      1.0  0.19129  0.17806  0.54839  1.0000
  H   H487      1.0  0.07282  0.23843  0.60681  1.0000
  H   H488      1.0  0.34984  0.00604  0.71012  1.0000
  H   H489      1.0  0.11122  0.12379  0.50647  1.0000
  H   H490      1.0  0.01314  0.08277  0.52081  1.0000
  C   C608      1.0  0.42451  0.07515  0.62599  1.0000
  S   S87       1.0  0.11237  0.17327  0.49276  1.0000
  H   H491      1.0  0.07901  0.23126  0.54288  1.0000
  C   C609      1.0  0.01573  0.08924  0.49796  1.0000
  C   C610      1.0  0.08645  0.14719  0.49614  1.0000
  H   H492      1.0  0.43226  0.07892  0.64243  1.0000
  H   H493      1.0  0.42647  0.08501  0.61853  1.0000
  C   C611      1.0  0.22188  0.10557  0.49017  1.0000
  C   C612      1.0  0.41745  0.99527  0.65192  1.0000
  S   S88       1.0  0.16880  0.00269  0.49766  1.0000
  C   C613      1.0  0.16240  0.06051  0.50897  1.0000
  H   H494      1.0  0.36940  0.99335  0.67359  1.0000
  C   C614      1.0  0.07058  0.23044  0.57680  1.0000
  H   H495      1.0  0.29423  0.05242  0.50235  1.0000
  C   C615      1.0  0.33637  0.99753  0.58713  1.0000
  C   C616      1.0  0.24670  0.01845  0.50095  1.0000
  C   C617      1.0  0.31994  0.02072  0.54306  1.0000
  H   H496      1.0  0.12399  0.21375  0.57097  1.0000
  H   H497      1.0  0.03637  0.23197  0.57696  1.0000
  H   H498      1.0  0.32759  0.03162  0.51356  1.0000
  H   H499      1.0  0.05452  0.07105  0.53993  1.0000
  H   H500      1.0  0.07397  0.22159  0.57149  1.0000
  C   C618      1.0  0.14640  0.12307  0.50477  1.0000
  C   C619      1.0  0.01330  0.23739  0.57852  1.0000
  H   H501      1.0  0.26479  0.01714  0.66093  1.0000
  H   H502      1.0  0.22540  0.01487  0.51178  1.0000
  C   C620      1.0  0.34545  0.03159  0.54269  1.0000
  H   H503      1.0  0.03494  0.23970  0.62227  1.0000
  H   H504      1.0  0.16278  0.15295  0.53540  1.0000
  C   C621      1.0  0.02065  0.19907  0.54875  1.0000
  S   S89       1.0  0.19252  0.99338  0.51802  1.0000
  H   H505      1.0  0.44128  0.00518  0.59965  1.0000
  C   C622      1.0  0.49847  0.00054  0.63265  1.0000
  H   H506      1.0  0.36883  0.04003  0.55685  1.0000
  C   C623      1.0  0.43292  0.00273  0.59624  1.0000
  C   C624      1.0  0.26455  0.14221  0.51748  1.0000
  C   C625      1.0  0.00541  0.23466  0.55883  1.0000
  C   C626      1.0  0.36513  0.03494  0.55072  1.0000
  H   H507      1.0  0.35197  0.01631  0.52917  1.0000
  C   C627      1.0  0.32519  0.06289  0.52248  1.0000
  H   H508      1.0  0.21663  0.08936  0.50908  1.0000
  H   H509      1.0  0.23626  0.12019  0.51413  1.0000
  C   C628      1.0  0.35463  0.00131  0.49074  1.0000
  S   S90       1.0  0.23065  0.06373  0.49033  1.0000
  C   C629      1.0  0.32529  0.06677  0.49744  1.0000
  C   C630      1.0  0.19398  0.15200  0.54444  1.0000
  H   H510      1.0  0.24314  0.99737  0.56154  1.0000
  C   C631      1.0  0.41132  0.99632  0.58753  1.0000
  C   C632      1.0  0.19502  0.16262  0.51922  1.0000
  C   C633      1.0  0.14386  0.20889  0.57800  1.0000
  C   C634      1.0  0.35049  0.03861  0.55004  1.0000
  C   C635      1.0  0.22485  0.01340  0.62041  1.0000
  C   C636      1.0  0.29068  0.04240  0.50543  1.0000
  C   C637      1.0  0.20591  0.17435  0.58165  1.0000
  C   C638      1.0  0.32628  0.05217  0.49913  1.0000
  H   H511      1.0  0.03642  0.23141  0.69400  1.0000
  H   H512      1.0  0.02438  0.04774  0.50947  1.0000
  C   C639      1.0  0.17487  0.19948  0.51328  1.0000
  C   C640      1.0  0.27715  0.04149  0.51462  1.0000
  C   C641      1.0  0.00216  0.23827  0.57204  1.0000
  H   H513      1.0  0.20061  0.16779  0.50890  1.0000
  H   H514      1.0  0.21113  0.15163  0.58317  1.0000
  H   H515      1.0  0.19549  0.10461  0.59873  1.0000
  C   C642      1.0  0.32664  0.04291  0.51250  1.0000
  Fe  Fe45      1.0  0.41575  0.02281  0.71523  1.0000
  C   C643      1.0  0.09825  0.20607  0.50105  1.0000
  P   P18       1.0  0.30603  0.00239  0.49656  1.0000
  C   C644      1.0  0.17467  0.06053  0.49779  1.0000
  H   H516      1.0  0.48151  0.04837  0.72776  1.0000
  H   H517      1.0  0.09436  0.19085  0.52099  1.0000
  S   S91       1.0  0.39948  0.01058  0.71524  1.0000
  P   P19       1.0  0.25474  0.00152  0.61466  1.0000
  H   H518      1.0  0.15330  0.13052  0.50249  1.0000
  C   C645      1.0  0.00813  0.23222  0.64522  1.0000
  H   H519      1.0  0.37771  0.00975  0.53065  1.0000
  H   H520      1.0  0.20127  0.14335  0.50171  1.0000
  C   C646      1.0  0.19819  0.12280  0.58126  1.0000
  H   H521      1.0  0.38622  0.02150  0.54450  1.0000
  Fe  Fe46      1.0  0.41826  0.99748  0.70229  1.0000
  H   H522      1.0  0.19879  0.19735  0.57800  1.0000
  C   C647      1.0  0.07187  0.05260  0.54366  1.0000
  C   C648      1.0  0.22027  0.13632  0.55451  1.0000
  P   P20       1.0  0.20230  0.14718  0.55955  1.0000
  H   H523      1.0  0.22527  0.01056  0.63157  1.0000
  C   C649      1.0  0.32583  0.04826  0.52433  1.0000
  H   H524      1.0  0.32488  0.06718  0.53139  1.0000
  H   H525      1.0  0.29941  0.05877  0.54342  1.0000
  H   H526      1.0  0.20953  0.17336  0.59122  1.0000
  H   H527      1.0  0.08950  0.03400  0.54422  1.0000
  C   C650      1.0  0.24600  0.12908  0.55471  1.0000
  C   C651      1.0  0.05815  0.05431  0.49352  1.0000
  C   C652      1.0  0.23565  0.11609  0.54450  1.0000
  H   H528      1.0  0.10822  0.20739  0.50261  1.0000
  C   C653      1.0  0.00592  0.17856  0.62683  1.0000
  C   C654      1.0  0.17880  0.14409  0.58256  1.0000
  C   C655      1.0  0.23240  0.13827  0.55788  1.0000
  H   H529      1.0  0.20967  0.99631  0.60228  1.0000
  C   C656      1.0  0.27226  0.02883  0.51823  1.0000
  H   H530      1.0  0.02100  0.08731  0.56159  1.0000
  H   H531      1.0  0.34839  0.00605  0.51157  1.0000
  H   H532      1.0  0.21214  0.16010  0.52969  1.0000
  C   C657      1.0  0.15731  0.21229  0.57559  1.0000
  C   C658      1.0  0.06351  0.06158  0.52157  1.0000
  C   C659      1.0  0.07401  0.05076  0.51557  1.0000
  H   H533      1.0  0.25528  0.13040  0.55759  1.0000
  H   H534      1.0  0.17852  0.20028  0.53321  1.0000
  C   C660      1.0  0.26836  0.99770  0.63669  1.0000
  H   H535      1.0  0.27032  0.05064  0.51883  1.0000
  H   H536      1.0  0.44476  0.00419  0.57439  1.0000
  H   H537      1.0  0.18858  0.99848  0.59226  1.0000
  H   H538      1.0  0.05554  0.21601  0.53238  1.0000
  H   H539      1.0  0.18399  0.20411  0.50690  1.0000
  C   C661      1.0  0.00845  0.22329  0.72171  1.0000
  H   H540      1.0  0.28402  0.99984  0.56650  1.0000
  C   C662      1.0  0.21091  0.02462  0.60214  1.0000
  C   C663      1.0  0.48770  0.06503  0.70996  1.0000
  C   C664      1.0  0.34732  0.00503  0.58388  1.0000
  H   H541      1.0  0.04849  0.04362  0.51473  1.0000
  C   C665      1.0  0.43682  0.04540  0.72782  1.0000
  C   C666      1.0  0.27275  0.13624  0.50583  1.0000
  C   C667      1.0  0.03748  0.20072  0.52566  1.0000
  C   C668      1.0  0.02773  0.20744  0.53637  1.0000
  H   H542      1.0  0.06432  0.08159  0.49205  1.0000
  C   C669      1.0  0.00527  0.16803  0.62046  1.0000
  P   P21       1.0  0.07606  0.05073  0.49697  1.0000
  C   C670      1.0  0.48372  0.99198  0.68402  1.0000
  C   C671      1.0  0.03320  0.05138  0.50118  1.0000
  C   C672      1.0  0.17884  0.09436  0.49094  1.0000
  C   C673      1.0  0.00872  0.23484  0.52588  1.0000
  H   H543      1.0  0.30973  0.03156  0.49261  1.0000
  H   H544      1.0  0.26162  0.02831  0.52519  1.0000
  C   C674      1.0  0.10525  0.16069  0.48934  1.0000
  H   H545      1.0  0.23754  0.16830  0.48687  1.0000
  C   C675      1.0  0.23331  0.12308  0.49272  1.0000
  H   H546      1.0  0.45014  0.01362  0.72206  1.0000
  C   C676      1.0  0.48980  0.05110  0.71829  1.0000
  C   C677      1.0  0.11026  0.99411  0.52391  1.0000
  C   C678      1.0  0.11378  0.22828  0.54504  1.0000
  S   S92       1.0  0.33541  0.99492  0.62949  1.0000
  Fe  Fe47      1.0  0.31190  0.99446  0.63444  1.0000
  C   C679      1.0  0.30928  0.99669  0.54544  1.0000
  C   C680      1.0  0.48589  0.08744  0.72969  1.0000
  H   H547      1.0  0.42533  0.99896  0.56655  1.0000
  H   H548      1.0  0.47440  0.09056  0.72964  1.0000
  C   C681      1.0  0.29943  0.03055  0.49997  1.0000
  C   C682      1.0  0.00266  0.15832  0.49986  1.0000
  C   C683      1.0  0.50131  0.99837  0.61883  1.0000
  C   C684      1.0  0.09889  0.23413  0.54564  1.0000
  H   H549      1.0  0.00644  0.21666  0.73238  1.0000
  C   C685      1.0  0.10232  0.00721  0.48595  1.0000
  C   C686      1.0  0.07562  0.07981  0.48651  1.0000
  H   H550      1.0  0.06913  0.02953  0.48589  1.0000
  C   C687      1.0  0.08410  0.06583  0.48666  1.0000
  H   H551      1.0  0.15460  0.24002  0.54679  1.0000
  P   P22       1.0  0.12524  0.23849  0.54702  1.0000
  C   C688      1.0  0.09442  0.13895  0.48612  1.0000
  H   H552      1.0  0.16226  0.23242  0.50288  1.0000
  C   C689      1.0  0.46299  0.01462  0.73573  1.0000
  Fe  Fe48      1.0  0.45612  0.04989  0.80079  1.0000
  S   S93       1.0  0.47271  0.04636  0.78084  1.0000
  S   S94       1.0  0.44764  0.03164  0.81673  1.0000
  Fe  Fe49      1.0  0.45298  0.08209  0.79303  1.0000
  S   S95       1.0  0.46897  0.08138  0.77194  1.0000
  S   S96       1.0  0.44144  0.10205  0.80194  1.0000
  Fe  Fe50      1.0  0.45806  0.06510  0.76963  1.0000
  S   S97       1.0  0.45544  0.06378  0.74790  1.0000
  Fe  Fe51      1.0  0.48221  0.06259  0.78467  1.0000
  H   H553      1.0  0.39700  0.23022  0.88499  1.0000
  S   S98       1.0  0.44072  0.06775  0.78956  1.0000
  S   S99       1.0  0.46691  0.06421  0.80578  1.0000
  Fe  Fe52      1.0  0.45389  0.16991  0.86197  1.0000
  S   S100      1.0  0.44603  0.14991  0.86508  1.0000
  H   H554      1.0  0.44568  0.20798  0.96304  1.0000
  Fe  Fe53      1.0  0.48494  0.15408  0.86194  1.0000
  S   S101      1.0  0.47988  0.13252  0.86570  1.0000
  H   H555      1.0  0.42651  0.08290  0.82423  1.0000
  Fe  Fe54      1.0  0.46640  0.14279  0.84923  1.0000
  S   S102      1.0  0.47218  0.12947  0.83243  1.0000
  Fe  Fe55      1.0  0.46004  0.14071  0.88127  1.0000
  S   S103      1.0  0.44929  0.12723  0.90141  1.0000
  S   S104      1.0  0.47285  0.16391  0.84440  1.0000
  S   S105      1.0  0.46644  0.16123  0.87924  1.0000
  S   S106      1.0  0.47722  0.08821  0.95310  1.0000
  C   C690      1.0  0.47334  0.20818  0.85134  1.0000
  C   C691      1.0  0.44409  0.06546  0.85133  1.0000
  C   C692      1.0  0.47157  0.16980  0.79566  1.0000
  S   S107      1.0  0.47456  0.00221  0.87093  1.0000
  S   S108      1.0  0.43915  0.24054  0.92326  1.0000
  C   C693      1.0  0.49943  0.06135  0.88518  1.0000
  S   S109      1.0  0.42354  0.20940  0.92051  1.0000
  C   C694      1.0  0.48343  0.14928  0.91113  1.0000
  H   H556      1.0  0.46038  0.15177  0.91779  1.0000
  H   H557      1.0  0.47116  0.00641  0.77207  1.0000
  C   C695      1.0  0.44565  0.19767  0.94687  1.0000
  C   C696      1.0  0.50063  0.09060  0.85571  1.0000
  C   C697      1.0  0.49102  0.19301  0.83642  1.0000
  H   H558      1.0  0.45896  0.00036  0.81758  1.0000
  S   S110      1.0  0.44083  0.19277  0.86030  1.0000
  C   C698      1.0  0.45297  0.17181  0.96615  1.0000
  H   H559      1.0  0.40561  0.15379  0.92628  1.0000
  H   H560      1.0  0.48384  0.14797  0.90064  1.0000
  Fe  Fe56      1.0  0.50126  0.08503  0.95014  1.0000
  H   H561      1.0  0.49407  0.01305  0.81368  1.0000
  C   C699      1.0  0.49462  0.22926  0.86820  1.0000
  C   C700      1.0  0.48451  0.21059  0.85594  1.0000
  C   C701      1.0  0.43584  0.19768  0.87693  1.0000
  C   C702      1.0  0.48269  0.15198  0.93836  1.0000
  C   C703      1.0  0.42866  0.21599  0.89097  1.0000
  C   C704      1.0  0.42836  0.20532  0.90355  1.0000
  C   C705      1.0  0.43167  0.19092  0.90278  1.0000
  C   C706      1.0  0.43532  0.18711  0.88956  1.0000
  Fe  Fe57      1.0  0.42050  0.23177  0.92339  1.0000
  H   H562      1.0  0.43135  0.18262  0.91244  1.0000
  H   H563      1.0  0.43744  0.17597  0.88919  1.0000
  C   C707      1.0  0.45811  0.11612  0.91497  1.0000
  C   C708      1.0  0.45020  0.10745  0.92623  1.0000
  C   C709      1.0  0.45620  0.09903  0.93781  1.0000
  C   C710      1.0  0.47026  0.09905  0.93823  1.0000
  C   C711      1.0  0.47831  0.10769  0.92693  1.0000
  C   C712      1.0  0.47226  0.11617  0.91523  1.0000
  H   H564      1.0  0.43930  0.10730  0.92606  1.0000
  H   H565      1.0  0.44994  0.09241  0.94647  1.0000
  H   H566      1.0  0.50012  0.08713  0.90115  1.0000
  H   H567      1.0  0.47845  0.12281  0.90654  1.0000
  C   C713      1.0  0.47854  0.20161  0.91152  1.0000
  C   C714      1.0  0.43699  0.04465  0.75605  1.0000
  C   C715      1.0  0.42881  0.03661  0.75316  1.0000
  S   S111      1.0  0.43903  0.24001  0.96129  1.0000
  H   H568      1.0  0.44265  0.20767  0.93941  1.0000
  C   C716      1.0  0.48005  0.14288  0.78544  1.0000
  H   H569      1.0  0.43687  0.04434  0.76697  1.0000
  H   H570      1.0  0.42253  0.03014  0.76195  1.0000
  H   H571      1.0  0.44855  0.13346  0.78778  1.0000
  H   H572      1.0  0.45739  0.15022  0.79533  1.0000
  C   C717      1.0  0.44978  0.10835  0.81183  1.0000
  C   C718      1.0  0.46483  0.10466  0.81044  1.0000
  C   C719      1.0  0.47139  0.11118  0.81694  1.0000
  C   C720      1.0  0.46299  0.12101  0.82541  1.0000
  C   C721      1.0  0.44786  0.12428  0.82732  1.0000
  C   C722      1.0  0.44130  0.11811  0.82039  1.0000
  H   H573      1.0  0.47151  0.09731  0.80377  1.0000
  H   H574      1.0  0.48308  0.10884  0.81510  1.0000
  H   H575      1.0  0.44126  0.13187  0.83376  1.0000
  H   H576      1.0  0.42964  0.12106  0.82150  1.0000
  C   C723      1.0  0.45557  0.02417  0.83159  1.0000
  C   C724      1.0  0.46854  0.02702  0.83217  1.0000
  C   C725      1.0  0.47463  0.02038  0.84423  1.0000
  C   C726      1.0  0.46753  0.01117  0.85573  1.0000
  C   C727      1.0  0.45446  0.00867  0.85517  1.0000
  C   C728      1.0  0.44864  0.01494  0.84308  1.0000
  H   H577      1.0  0.47394  0.03419  0.82332  1.0000
  H   H578      1.0  0.48473  0.02241  0.84465  1.0000
  S   S112      1.0  0.41834  0.02618  0.73613  1.0000
  H   H579      1.0  0.43858  0.01283  0.84271  1.0000
  C   C729      1.0  0.45844  0.10191  0.87404  1.0000
  H   H580      1.0  0.47917  0.07854  0.91772  1.0000
  H   H581      1.0  0.49358  0.08713  0.78617  1.0000
  C   C730      1.0  0.45357  0.23844  0.87971  1.0000
  H   H582      1.0  0.47397  0.18493  0.77524  1.0000
  C   C731      1.0  0.38724  0.23301  0.90643  1.0000
  C   C732      1.0  0.45642  0.19380  0.79090  1.0000
  H   H583      1.0  0.41636  0.99475  0.84290  1.0000
  C   C733      1.0  0.50074  0.05683  0.84537  1.0000
  C   C734      1.0  0.49896  0.16367  0.77439  1.0000
  C   C735      1.0  0.49593  0.14989  0.92844  1.0000
  H   H584      1.0  0.48340  0.06945  0.74740  1.0000
  C   C736      1.0  0.46211  0.08909  0.86944  1.0000
  H   H585      1.0  0.47110  0.01955  0.89031  1.0000
  H   H586      1.0  0.47428  0.10602  0.97264  1.0000
  H   H587      1.0  0.46978  0.03692  0.86734  1.0000
  H   H588      1.0  0.46710  0.07604  0.82918  1.0000
  C   C737      1.0  0.49680  0.07857  0.89913  1.0000
  H   H589      1.0  0.49217  0.16734  0.81127  1.0000
  C   C738      1.0  0.44509  0.05321  0.74484  1.0000
  H   H590      1.0  0.43014  0.09137  0.86106  1.0000
  C   C739      1.0  0.48750  0.05648  0.89473  1.0000
  C   C740      1.0  0.46973  0.12369  0.77703  1.0000
  C   C741      1.0  0.48974  0.13296  0.77764  1.0000
  H   H591      1.0  0.44392  0.04340  0.86263  1.0000
  H   H592      1.0  0.46604  0.10475  0.87819  1.0000
  H   H593      1.0  0.49233  0.09318  0.86491  1.0000
  C   C742      1.0  0.49745  0.15609  0.81275  1.0000
  C   C743      1.0  0.43904  0.07652  0.84038  1.0000
  H   H594      1.0  0.45366  0.20396  0.78359  1.0000
  H   H595      1.0  0.48421  0.22076  0.89737  1.0000
  H   H596      1.0  0.46071  0.01637  0.79372  1.0000
  C   C744      1.0  0.49005  0.06793  0.82488  1.0000
  H   H597      1.0  0.43456  0.14937  0.97668  1.0000
  H   H598      1.0  0.44481  0.05197  0.91304  1.0000
  H   H599      1.0  0.47263  0.18163  0.92301  1.0000
  H   H600      1.0  0.45889  0.02697  0.91311  1.0000
  H   H601      1.0  0.42815  0.04004  0.84933  1.0000
  C   C745      1.0  0.44000  0.05230  0.85455  1.0000
  H   H602      1.0  0.41973  0.05951  0.82986  1.0000
  C   C746      1.0  0.47688  0.20896  0.88662  1.0000
  H   H603      1.0  0.42414  0.11428  0.86842  1.0000
  H   H604      1.0  0.39290  0.22252  0.91132  1.0000
  C   C747      1.0  0.45671  0.05465  0.87706  1.0000
  C   C748      1.0  0.47618  0.01671  0.73647  1.0000
  C   C749      1.0  0.43102  0.05029  0.84700  1.0000
  H   H605      1.0  0.44187  0.12078  0.87741  1.0000
  C   C750      1.0  0.49899  0.20406  0.85063  1.0000
  C   C751      1.0  0.44950  0.05869  0.89009  1.0000
  H   H606      1.0  0.46788  0.19743  0.83839  1.0000
  C   C752      1.0  0.46452  0.00487  0.79471  1.0000
  H   H607      1.0  0.46203  0.21258  0.85566  1.0000
  C   C753      1.0  0.48013  0.06273  0.90639  1.0000
  H   H608      1.0  0.44576  0.17658  0.82541  1.0000
  C   C754      1.0  0.44738  0.18464  0.94324  1.0000
  H   H609      1.0  0.40449  0.17467  0.93573  1.0000
  C   C755      1.0  0.45807  0.03466  0.90310  1.0000
  C   C756      1.0  0.44740  0.19782  0.96018  1.0000
  C   C757      1.0  0.46935  0.18737  0.90161  1.0000
  H   H610      1.0  0.43271  0.22041  0.86792  1.0000
  C   C758      1.0  0.44351  0.14012  0.97584  1.0000
  H   H611      1.0  0.46784  0.19518  0.87979  1.0000
  C   C759      1.0  0.45022  0.04873  0.90304  1.0000
  H   H612      1.0  0.48464  0.16282  0.97548  1.0000
  C   C760      1.0  0.45191  0.17839  0.81443  1.0000
  H   H613      1.0  0.48909  0.10800  0.92726  1.0000
  C   C761      1.0  0.47661  0.19951  0.84157  1.0000
  H   H614      1.0  0.37642  0.23909  0.92650  1.0000
  H   H615      1.0  0.47296  0.12624  0.95201  1.0000
  C   C762      1.0  0.45416  0.13979  0.96310  1.0000
  C   C763      1.0  0.49704  0.09432  0.84241  1.0000
  P   P23       1.0  0.45283  0.15484  0.94804  1.0000
  H   H616      1.0  0.48598  0.05582  0.86580  1.0000
  C   C764      1.0  0.48035  0.23252  0.96168  1.0000
  C   C765      1.0  0.46513  0.12730  0.96196  1.0000
  H   H617      1.0  0.49213  0.11550  0.76783  1.0000
  H   H618      1.0  0.48422  0.04757  0.89333  1.0000
  C   C766      1.0  0.43476  0.10725  0.86863  1.0000
  C   C767      1.0  0.42622  0.06128  0.83604  1.0000
  C   C768      1.0  0.43778  0.14256  0.93675  1.0000
  H   H619      1.0  0.49751  0.04286  0.92534  1.0000
  H   H620      1.0  0.45598  0.16196  0.97371  1.0000
  C   C769      1.0  0.43013  0.07442  0.83282  1.0000
  H   H621      1.0  0.42676  0.13323  0.92714  1.0000
  C   C770      1.0  0.48023  0.21138  0.89837  1.0000
  C   C771      1.0  0.44845  0.19153  0.80502  1.0000
  H   H622      1.0  0.46583  0.15743  0.81716  1.0000
  C   C772      1.0  0.41434  0.15391  0.93081  1.0000
  H   H623      1.0  0.47722  0.01798  0.74647  1.0000
  C   C773      1.0  0.46365  0.23460  0.86759  1.0000
  H   H624      1.0  0.44890  0.00173  0.86412  1.0000
  H   H625      1.0  0.44701  0.13350  0.93692  1.0000
  C   C774      1.0  0.42519  0.16593  0.94162  1.0000
  H   H626      1.0  0.49430  0.17099  0.88089  1.0000
  C   C775      1.0  0.49629  0.14863  0.91481  1.0000
  C   C776      1.0  0.46587  0.11568  0.97366  1.0000
  H   H627      1.0  0.46573  0.11599  0.77425  1.0000
  C   C777      1.0  0.42628  0.14232  0.93128  1.0000
  H   H628      1.0  0.47106  0.05876  0.91393  1.0000
  H   H629      1.0  0.49125  0.07140  0.81344  1.0000
  H   H630      1.0  0.47254  0.08193  0.87028  1.0000
  C   C778      1.0  0.44478  0.11099  0.87361  1.0000
  H   H631      1.0  0.42586  0.22713  0.89153  1.0000
  Fe  Fe58      1.0  0.49628  0.00466  0.87160  1.0000
  P   P24       1.0  0.45659  0.06779  0.86033  1.0000
  C   C779      1.0  0.49093  0.07558  0.73982  1.0000
  C   C780      1.0  0.46794  0.18297  0.78621  1.0000
  H   H632      1.0  0.46485  0.17826  0.90286  1.0000
  H   H633      1.0  0.42426  0.17512  0.94576  1.0000
  C   C781      1.0  0.43833  0.09433  0.86422  1.0000
  H   H634      1.0  0.46948  0.21592  0.96385  1.0000
  C   C782      1.0  0.47047  0.99923  0.78251  1.0000
  H   H635      1.0  0.48597  0.09948  0.84145  1.0000
  C   C783      1.0  0.48695  0.05916  0.85441  1.0000
  H   H636      1.0  0.44225  0.08668  0.83741  1.0000
  C   C784      1.0  0.43241  0.21217  0.87765  1.0000
  C   C785      1.0  0.47014  0.15129  0.92102  1.0000
  C   C786      1.0  0.49373  0.23614  0.95904  1.0000
  C   C787      1.0  0.46968  0.15263  0.93476  1.0000
  H   H637      1.0  0.44341  0.06955  0.89035  1.0000
  C   C788      1.0  0.45080  0.17159  0.95293  1.0000
  C   C789      1.0  0.46341  0.99573  0.80825  1.0000
  C   C790      1.0  0.45214  0.08525  0.86439  1.0000
  H   H638      1.0  0.48262  0.15278  0.94893  1.0000
  C   C791      1.0  0.48459  0.12339  0.77349  1.0000
  C   C792      1.0  0.41373  0.16565  0.93611  1.0000
  H   H639      1.0  0.45502  0.23288  0.89035  1.0000
  C   C793      1.0  0.46335  0.16755  0.80975  1.0000
  H   H640      1.0  0.44578  0.18481  0.93290  1.0000
  C   C794      1.0  0.46513  0.14302  0.78903  1.0000
  C   C795      1.0  0.46501  0.03048  0.89021  1.0000
  C   C796      1.0  0.47454  0.06548  0.84873  1.0000
  H   H641      1.0  0.48121  0.20343  0.92053  1.0000
  C   C797      1.0  0.46002  0.13356  0.78469  1.0000
  C   C798      1.0  0.47103  0.19709  0.88846  1.0000
  C   C799      1.0  0.47346  0.18943  0.91301  1.0000
  P   P25       1.0  0.48002  0.22101  0.86939  1.0000
  C   C800      1.0  0.46429  0.04039  0.87723  1.0000
  H   H642      1.0  0.43958  0.19991  0.80871  1.0000
  C   C801      1.0  0.47629  0.07042  0.83390  1.0000
  C   C802      1.0  0.43754  0.15457  0.94156  1.0000
  C   C803      1.0  0.49283  0.20810  0.96032  1.0000
  P   P26       1.0  0.48669  0.15584  0.78994  1.0000
  C   C804      1.0  0.47990  0.21852  0.96222  1.0000
  H   H643      1.0  0.49351  0.18582  0.82929  1.0000
  C   C805      1.0  0.45115  0.18489  0.96979  1.0000
  C   C806      1.0  0.48477  0.07378  0.90858  1.0000
  H   H644      1.0  0.49225  0.19743  0.96027  1.0000
  H   H645      1.0  0.45417  0.01400  0.74513  1.0000
  C   C807      1.0  0.38959  0.23741  0.89157  1.0000
  S   S113      1.0  0.40835  0.23507  0.94527  1.0000
  H   H646      1.0  0.48927  0.16021  0.75906  1.0000
  H   H647      1.0  0.47033  0.24066  0.96305  1.0000
  H   H648      1.0  0.45244  0.18505  0.98012  1.0000
  H   H649      1.0  0.46930  0.23965  0.84447  1.0000
  C   C808      1.0  0.42861  0.03693  0.73905  1.0000
  C   C809      1.0  0.49771  0.16425  0.76059  1.0000
  C   C810      1.0  0.49633  0.14763  0.80420  1.0000
  H   H650      1.0  0.50131  0.13252  0.77490  1.0000
  Fe  Fe59      1.0  0.30461  0.33690  0.03909  1.0000
  S   S114      1.0  0.32668  0.32238  0.03939  1.0000
  S   S115      1.0  0.28584  0.33118  0.03494  1.0000
  Fe  Fe60      1.0  0.31134  0.35960  0.04966  1.0000
  S   S116      1.0  0.33398  0.34716  0.05108  1.0000
  S   S117      1.0  0.30148  0.38172  0.05404  1.0000
  Fe  Fe61      1.0  0.33477  0.34280  0.03007  1.0000
  S   S118      1.0  0.35369  0.34525  0.01147  1.0000
  Fe  Fe62      1.0  0.32420  0.32782  0.06032  1.0000
  S   S119      1.0  0.32871  0.31221  0.08065  1.0000
  S   S120      1.0  0.31290  0.35678  0.02781  1.0000
  S   S121      1.0  0.30132  0.34072  0.06091  1.0000
  C   C811      1.0  0.46168  0.24744  0.08907  1.0000
  C   C812      1.0  0.01265  0.47237  0.12492  1.0000
  C   C813      1.0  0.21294  0.40659  0.05100  1.0000
  C   C814      1.0  0.11442  0.45680  0.07305  1.0000
  C   C815      1.0  0.22034  0.37691  0.06096  1.0000
  H   H651      1.0  0.32492  0.34986  0.98804  1.0000
  H   H652      1.0  0.27206  0.33559  0.07075  1.0000
  P   P27       1.0  0.24435  0.37284  0.03808  1.0000
  H   H653      1.0  0.21697  0.32671  0.08811  1.0000
  C   C816      1.0  0.20478  0.40006  0.06376  1.0000
  C   C817      1.0  0.39964  0.36032  0.00050  1.0000
  H   H654      1.0  0.25739  0.35136  0.02069  1.0000
  C   C818      1.0  0.36556  0.46030  0.01820  1.0000
  C   C819      1.0  0.24455  0.33119  0.05935  1.0000
  H   H655      1.0  0.43113  0.24366  0.01070  1.0000
  C   C820      1.0  0.25558  0.32791  0.06675  1.0000
  H   H656      1.0  0.22603  0.34340  0.09556  1.0000
  S   S122      1.0  0.40017  0.24514  0.02268  1.0000
  H   H657      1.0  0.49156  0.30994  0.99697  1.0000
  H   H658      1.0  0.22041  0.38802  0.99707  1.0000
  Fe  Fe63      1.0  0.21206  0.40753  0.11882  1.0000
  S   S123      1.0  0.23231  0.40938  0.10191  1.0000
  S   S124      1.0  0.19355  0.40146  0.11485  1.0000
  Fe  Fe64      1.0  0.22394  0.41241  0.14142  1.0000
  S   S125      1.0  0.24528  0.41513  0.12630  1.0000
  S   S126      1.0  0.22114  0.41316  0.16439  1.0000
  Fe  Fe65      1.0  0.23172  0.42801  0.11047  1.0000
  S   S127      1.0  0.23700  0.44752  0.09420  1.0000
  Fe  Fe66      1.0  0.24403  0.39630  0.11914  1.0000
  S   S128      1.0  0.26316  0.37781  0.11670  1.0000
  S   S129      1.0  0.21034  0.42731  0.12618  1.0000
  S   S130      1.0  0.22375  0.39253  0.13543  1.0000
  H   H659      1.0  0.24523  0.29097  0.10952  1.0000
  H   H660      1.0  0.04005  0.47780  0.13564  1.0000
  S   S131      1.0  0.05676  0.47369  0.15414  1.0000
  H   H661      1.0  0.17026  0.44056  0.01281  1.0000
  C   C821      1.0  0.02940  0.47965  0.13376  1.0000
  H   H662      1.0  0.43024  0.34998  0.00967  1.0000
  Fe  Fe67      1.0  0.06170  0.47766  0.17288  1.0000
  S   S132      1.0  0.06139  0.46140  0.19355  1.0000
  H   H663      1.0  0.12046  0.47938  0.13777  1.0000
  Fe  Fe68      1.0  0.16140  0.46437  0.05774  1.0000
  S   S133      1.0  0.17805  0.47125  0.03827  1.0000
  S   S134      1.0  0.16047  0.44129  0.06713  1.0000
  H   H664      1.0  0.25217  0.39274  0.04992  1.0000
  H   H665      1.0  0.36211  0.42095  0.02543  1.0000
  H   H666      1.0  0.47912  0.36854  0.99406  1.0000
  C   C822      1.0  0.23758  0.47745  0.04410  1.0000
  C   C823      1.0  0.24113  0.34483  0.05067  1.0000
  C   C824      1.0  0.46610  0.24379  0.06122  1.0000
  C   C825      1.0  0.24214  0.47303  0.09417  1.0000
  C   C826      1.0  0.14211  0.45866  0.00578  1.0000
  C   C827      1.0  0.14669  0.46803  0.01095  1.0000
  H   H667      1.0  0.13915  0.44903  0.01292  1.0000
  H   H668      1.0  0.14733  0.46556  0.02202  1.0000
  H   H669      1.0  0.19499  0.47524  0.17028  1.0000
  H   H670      1.0  0.39304  0.24536  0.99688  1.0000
  H   H671      1.0  0.11437  0.46428  0.10135  1.0000
  C   C828      1.0  0.15389  0.48324  0.14384  1.0000
  C   C829      1.0  0.24114  0.48044  0.11554  1.0000
  C   C830      1.0  0.36325  0.38333  0.98976  1.0000
  C   C831      1.0  0.02628  0.46992  0.12796  1.0000
  C   C832      1.0  0.15075  0.48036  0.00164  1.0000
  H   H672      1.0  0.33047  0.47657  0.03311  1.0000
  C   C833      1.0  0.28834  0.33043  0.12040  1.0000
  C   C834      1.0  0.43143  0.24843  0.12816  1.0000
  H   H673      1.0  0.03446  0.46051  0.12575  1.0000
  H   H674      1.0  0.23124  0.40355  0.03342  1.0000
  C   C835      1.0  0.22487  0.39832  0.04320  1.0000
  C   C836      1.0  0.36568  0.30662  0.02802  1.0000
  C   C837      1.0  0.08875  0.47889  0.20315  1.0000
  C   C838      1.0  0.07740  0.47727  0.19830  1.0000
  C   C839      1.0  0.07439  0.46374  0.20108  1.0000
  C   C840      1.0  0.08237  0.45196  0.20919  1.0000
  C   C841      1.0  0.09405  0.45351  0.21361  1.0000
  C   C842      1.0  0.36870  0.43895  0.00968  1.0000
  H   H675      1.0  0.45209  0.34023  0.99265  1.0000
  H   H676      1.0  0.07983  0.44158  0.21165  1.0000
  C   C843      1.0  0.20437  0.41065  0.17586  1.0000
  C   C844      1.0  0.19999  0.41508  0.18886  1.0000
  C   C845      1.0  0.18616  0.41425  0.19762  1.0000
  C   C846      1.0  0.17694  0.40836  0.19371  1.0000
  C   C847      1.0  0.18154  0.40344  0.18103  1.0000
  C   C848      1.0  0.19509  0.40485  0.17194  1.0000
  H   H677      1.0  0.20709  0.41962  0.19194  1.0000
  H   H678      1.0  0.17448  0.39866  0.17818  1.0000
  H   H679      1.0  0.19840  0.40136  0.16199  1.0000
  C   C849      1.0  0.23849  0.46016  0.10248  1.0000
  C   C850      1.0  0.23624  0.45740  0.11734  1.0000
  C   C851      1.0  0.23770  0.46750  0.12386  1.0000
  H   H680      1.0  0.37279  0.49024  0.08915  1.0000
  H   H681      1.0  0.38188  0.27121  0.03165  1.0000
  C   C852      1.0  0.33527  0.48492  0.03350  1.0000
  H   H682      1.0  0.23323  0.44755  0.12377  1.0000
  H   H683      1.0  0.23586  0.46548  0.13534  1.0000
  H   H684      1.0  0.46720  0.24261  0.05051  1.0000
  H   H685      1.0  0.30090  0.29795  0.99551  1.0000
  C   C853      1.0  0.18533  0.41283  0.10101  1.0000
  C   C854      1.0  0.17470  0.40845  0.09757  1.0000
  C   C855      1.0  0.16736  0.41730  0.08706  1.0000
  C   C856      1.0  0.17040  0.43072  0.08000  1.0000
  C   C857      1.0  0.18108  0.43522  0.08335  1.0000
  C   C858      1.0  0.18868  0.42618  0.09380  1.0000
  H   H686      1.0  0.17203  0.39821  0.10315  1.0000
  H   H687      1.0  0.15912  0.41380  0.08452  1.0000
  H   H688      1.0  0.18330  0.44568  0.07805  1.0000
  H   H689      1.0  0.19678  0.42967  0.09655  1.0000
  H   H690      1.0  0.20994  0.41810  0.04728  1.0000
  C   C859      1.0  0.25972  0.38117  0.03291  1.0000
  C   C860      1.0  0.27136  0.37772  0.02158  1.0000
  H   H691      1.0  0.21836  0.34291  0.16990  1.0000
  C   C861      1.0  0.26314  0.33827  0.06551  1.0000
  C   C862      1.0  0.05662  0.45555  0.08431  1.0000
  H   H692      1.0  0.29271  0.38052  0.00959  1.0000
  H   H693      1.0  0.23259  0.34722  0.04495  1.0000
  H   H694      1.0  0.27395  0.40274  0.04373  1.0000
  C   C863      1.0  0.22865  0.38339  0.04806  1.0000
  H   H695      1.0  0.49719  0.37143  0.00510  1.0000
  H   H696      1.0  0.37247  0.27787  0.06143  1.0000
  C   C864      1.0  0.29147  0.38102  0.07165  1.0000
  C   C865      1.0  0.28116  0.39313  0.07532  1.0000
  C   C866      1.0  0.27251  0.39233  0.08923  1.0000
  C   C867      1.0  0.27435  0.37949  0.09949  1.0000
  C   C868      1.0  0.28506  0.36763  0.09592  1.0000
  C   C869      1.0  0.29350  0.36833  0.08200  1.0000
  H   H697      1.0  0.27971  0.40302  0.06737  1.0000
  H   H698      1.0  0.26443  0.40161  0.09200  1.0000
  H   H699      1.0  0.28672  0.35782  0.10387  1.0000
  H   H700      1.0  0.30168  0.35906  0.07933  1.0000
  C   C870      1.0  0.35654  0.36262  0.00740  1.0000
  C   C871      1.0  0.40463  0.24459  0.99465  1.0000
  H   H701      1.0  0.22729  0.42291  0.99471  1.0000
  C   C872      1.0  0.36299  0.38971  0.00061  1.0000
  C   C873      1.0  0.35878  0.38285  0.01490  1.0000
  C   C874      1.0  0.35554  0.36930  0.01830  1.0000
  C   C875      1.0  0.29662  0.46439  0.04487  1.0000
  H   H702      1.0  0.29205  0.29135  0.02178  1.0000
  H   H703      1.0  0.35850  0.38777  0.02334  1.0000
  H   H704      1.0  0.35278  0.36384  0.02933  1.0000
  H   H705      1.0  0.22389  0.39032  0.01967  1.0000
  C   C876      1.0  0.04264  0.48433  0.09681  1.0000
  C   C877      1.0  0.27666  0.32380  0.01544  1.0000
  C   C878      1.0  0.28635  0.33055  0.01748  1.0000
  C   C879      1.0  0.29612  0.33656  0.00570  1.0000
  H   H706      1.0  0.00832  0.43882  0.14631  1.0000
  H   H707      1.0  0.43820  0.24497  0.13590  1.0000
  H   H708      1.0  0.26902  0.31926  0.02452  1.0000
  H   H709      1.0  0.30342  0.34201  0.00726  1.0000
  C   C880      1.0  0.24913  0.35937  0.01575  1.0000
  C   C881      1.0  0.46838  0.27806  0.01244  1.0000
  C   C882      1.0  0.47539  0.27688  0.99836  1.0000
  H   H710      1.0  0.31297  0.47220  0.00943  1.0000
  C   C883      1.0  0.45884  0.26288  0.99864  1.0000
  H   H711      1.0  0.47218  0.28381  0.01783  1.0000
  C   C884      1.0  0.44942  0.35144  0.99294  1.0000
  C   C885      1.0  0.34811  0.29213  0.09457  1.0000
  C   C886      1.0  0.34452  0.29838  0.08128  1.0000
  C   C887      1.0  0.35333  0.29329  0.06921  1.0000
  C   C888      1.0  0.36577  0.28206  0.07056  1.0000
  H   H712      1.0  0.34131  0.29591  0.10394  1.0000
  H   H713      1.0  0.35045  0.29788  0.05896  1.0000
  C   C889      1.0  0.23053  0.30778  0.09830  1.0000
  C   C890      1.0  0.24076  0.37090  0.02205  1.0000
  C   C891      1.0  0.11636  0.44229  0.13293  1.0000
  C   C892      1.0  0.10599  0.43496  0.13346  1.0000
  C   C893      1.0  0.10263  0.42403  0.14529  1.0000
  C   C894      1.0  0.10947  0.42061  0.15671  1.0000
  C   C895      1.0  0.11939  0.42844  0.15648  1.0000
  C   C896      1.0  0.12306  0.43906  0.14436  1.0000
  P   P28       1.0  0.12884  0.42388  0.17069  1.0000
  C   C897      1.0  0.11854  0.41573  0.18754  1.0000
  C   C898      1.0  0.14584  0.41218  0.16446  1.0000
  C   C899      1.0  0.14678  0.39740  0.16688  1.0000
  C   C900      1.0  0.15947  0.38850  0.16083  1.0000
  C   C901      1.0  0.17122  0.39432  0.15216  1.0000
  C   C902      1.0  0.17032  0.40901  0.14959  1.0000
  C   C903      1.0  0.15763  0.41794  0.15560  1.0000
  C   C904      1.0  0.12573  0.40548  0.19758  1.0000
  C   C905      1.0  0.11786  0.39978  0.21100  1.0000
  C   C906      1.0  0.29871  0.47140  0.03037  1.0000
  C   C907      1.0  0.09549  0.41455  0.20460  1.0000
  C   C908      1.0  0.10337  0.42050  0.19127  1.0000
  C   C909      1.0  0.13084  0.44016  0.17367  1.0000
  C   C910      1.0  0.11941  0.45239  0.17290  1.0000
  C   C911      1.0  0.12045  0.46480  0.17604  1.0000
  C   C912      1.0  0.13286  0.46512  0.17998  1.0000
  C   C913      1.0  0.14430  0.45302  0.18070  1.0000
  C   C914      1.0  0.14318  0.44046  0.17786  1.0000
  H   H714      1.0  0.11898  0.45076  0.12378  1.0000
  H   H715      1.0  0.10050  0.43789  0.12472  1.0000
  H   H716      1.0  0.09472  0.41823  0.14561  1.0000
  H   H717      1.0  0.10699  0.41192  0.16567  1.0000
  H   H718      1.0  0.13105  0.44491  0.14372  1.0000
  H   H719      1.0  0.13763  0.39278  0.17323  1.0000
  H   H720      1.0  0.16016  0.37711  0.16276  1.0000
  H   H721      1.0  0.18103  0.38750  0.14734  1.0000
  H   H722      1.0  0.17948  0.41342  0.14283  1.0000
  H   H723      1.0  0.15693  0.42934  0.15312  1.0000
  H   H724      1.0  0.13745  0.40211  0.19520  1.0000
  H   H725      1.0  0.48810  0.34083  0.98993  1.0000
  H   H726      1.0  0.19563  0.40652  0.06982  1.0000
  H   H727      1.0  0.08379  0.41819  0.20739  1.0000
  H   H728      1.0  0.09763  0.42896  0.18402  1.0000
  H   H729      1.0  0.10949  0.45223  0.17032  1.0000
  H   H730      1.0  0.11135  0.47398  0.17597  1.0000
  H   H731      1.0  0.13336  0.47454  0.18303  1.0000
  H   H732      1.0  0.15378  0.45320  0.18401  1.0000
  H   H733      1.0  0.15175  0.43092  0.17933  1.0000
  C   C915      1.0  0.23820  0.34006  0.13084  1.0000
  C   C916      1.0  0.15137  0.44382  0.11034  1.0000
  C   C917      1.0  0.16090  0.43667  0.11940  1.0000
  C   C918      1.0  0.16828  0.44435  0.12358  1.0000
  C   C919      1.0  0.16559  0.45935  0.11928  1.0000
  H   H734      1.0  0.46813  0.26574  0.05432  1.0000
  P   P29       1.0  0.17540  0.46956  0.12387  1.0000
  C   C920      1.0  0.18425  0.45941  0.13836  1.0000
  H   H735      1.0  0.38176  0.46560  0.08041  1.0000
  C   C921      1.0  0.19353  0.46773  0.09703  1.0000
  H   H736      1.0  0.20061  0.48009  0.20044  1.0000
  C   C922      1.0  0.00921  0.42350  0.13467  1.0000
  C   C923      1.0  0.36753  0.28287  0.01746  1.0000
  C   C924      1.0  0.30321  0.29232  0.01731  1.0000
  C   C925      1.0  0.19829  0.46050  0.13803  1.0000
  C   C926      1.0  0.20463  0.45357  0.14969  1.0000
  C   C927      1.0  0.19706  0.44555  0.16178  1.0000
  C   C928      1.0  0.18329  0.44404  0.16213  1.0000
  C   C929      1.0  0.17690  0.45092  0.15046  1.0000
  H   H737      1.0  0.07274  0.45921  0.06454  1.0000
  S   S135      1.0  0.12545  0.42662  0.22716  1.0000
  C   C930      1.0  0.39450  0.36861  0.01075  1.0000
  H   H738      1.0  0.06259  0.42139  0.14932  1.0000
  H   H739      1.0  0.22304  0.36549  0.06522  1.0000
  H   H740      1.0  0.35119  0.31822  0.01418  1.0000
  H   H741      1.0  0.06598  0.44581  0.14648  1.0000
  P   P30       1.0  0.24758  0.33882  0.11271  1.0000
  H   H742      1.0  0.16303  0.42508  0.12266  1.0000
  H   H743      1.0  0.17634  0.43850  0.12978  1.0000
  C   C931      1.0  0.23065  0.39442  0.21763  1.0000
  H   H744      1.0  0.18886  0.45899  0.09738  1.0000
  H   H745      1.0  0.40065  0.28321  0.99592  1.0000
  H   H746      1.0  0.23964  0.41381  0.18400  1.0000
  C   C932      1.0  0.35799  0.30798  0.01777  1.0000
  C   C933      1.0  0.23513  0.39770  0.20277  1.0000
  H   H747      1.0  0.20449  0.46659  0.12884  1.0000
  H   H748      1.0  0.21546  0.45437  0.14934  1.0000
  H   H749      1.0  0.20195  0.44040  0.17085  1.0000
  H   H750      1.0  0.17766  0.43745  0.17145  1.0000
  H   H751      1.0  0.16618  0.44973  0.15097  1.0000
  C   C934      1.0  0.24243  0.47194  0.20687  1.0000
  C   C935      1.0  0.02394  0.45034  0.17517  1.0000
  H   H752      1.0  0.22980  0.36249  0.15360  1.0000
  C   C936      1.0  0.46659  0.25685  0.06339  1.0000
  H   H753      1.0  0.37320  0.48571  0.98968  1.0000
  H   H754      1.0  0.36833  0.27351  0.01360  1.0000
  C   C937      1.0  0.09748  0.46692  0.21029  1.0000
  H   H755      1.0  0.01248  0.45664  0.21283  1.0000
  P   P31       1.0  0.45699  0.25020  0.10705  1.0000
  H   H756      1.0  0.30868  0.31955  0.10893  1.0000
  C   C938      1.0  0.22846  0.38005  0.00229  1.0000
  H   H757      1.0  0.06694  0.46282  0.12321  1.0000
  H   H758      1.0  0.27101  0.32234  0.09415  1.0000
  C   C939      1.0  0.01432  0.40285  0.18686  1.0000
  H   H759      1.0  0.36484  0.31587  0.03210  1.0000
  C   C940      1.0  0.30817  0.29609  0.00252  1.0000
  H   H760      1.0  0.49768  0.24794  0.01482  1.0000
  C   C941      1.0  0.24105  0.30243  0.10652  1.0000
  C   C942      1.0  0.06315  0.43396  0.11386  1.0000
  H   H761      1.0  0.14609  0.43780  0.10666  1.0000
  C   C943      1.0  0.23334  0.48786  0.98857  1.0000
  H   H762      1.0  0.23427  0.45876  0.06072  1.0000
  C   C944      1.0  0.22387  0.34209  0.15903  1.0000
  H   H763      1.0  0.25588  0.46962  0.22137  1.0000
  S   S136      1.0  0.15154  0.44453  0.21455  1.0000
  H   H764      1.0  0.12585  0.45598  0.06796  1.0000
  C   C945      1.0  0.36018  0.36974  0.99314  1.0000
  C   C946      1.0  0.29699  0.32292  0.10997  1.0000
  C   C947      1.0  0.26180  0.44331  0.14799  1.0000
  C   C948      1.0  0.35915  0.29628  0.01212  1.0000
  C   C949      1.0  0.28357  0.38360  0.01804  1.0000
  C   C950      1.0  0.24090  0.32673  0.10698  1.0000
  C   C951      1.0  0.37456  0.29346  0.03278  1.0000
  C   C952      1.0  0.37142  0.46158  0.05222  1.0000
  H   H765      1.0  0.48907  0.28434  0.09445  1.0000
  P   P32       1.0  0.06580  0.46029  0.09502  1.0000
  C   C953      1.0  0.23998  0.44981  0.20306  1.0000
  C   C954      1.0  0.04131  0.44961  0.06765  1.0000
  H   H766      1.0  0.25852  0.31725  0.07318  1.0000
  C   C955      1.0  0.18586  0.46390  0.19115  1.0000
  C   C956      1.0  0.49328  0.37996  0.99668  1.0000
  C   C957      1.0  0.41346  0.25760  0.10865  1.0000
  C   C958      1.0  0.42844  0.25648  0.10375  1.0000
  C   C959      1.0  0.23683  0.36852  0.99614  1.0000
  C   C960      1.0  0.40746  0.25401  0.12326  1.0000
  C   C961      1.0  0.46411  0.25878  0.07723  1.0000
  C   C962      1.0  0.06518  0.48644  0.10041  1.0000
  H   H767      1.0  0.20493  0.43915  0.21393  1.0000
  C   C963      1.0  0.21103  0.48244  0.08465  1.0000
  C   C964      1.0  0.09524  0.44645  0.09037  1.0000
  S   S137      1.0  0.09168  0.47219  0.12469  1.0000
  C   C965      1.0  0.40614  0.46361  0.99273  1.0000
  C   C966      1.0  0.01082  0.38931  0.21135  1.0000
  Fe  Fe69      1.0  0.12753  0.44914  0.22395  1.0000
  C   C967      1.0  0.15632  0.46640  0.10986  1.0000
  H   H768      1.0  0.22034  0.46334  0.17165  1.0000
  P   P33       1.0  0.35002  0.29866  0.99804  1.0000
  H   H769      1.0  0.27841  0.41537  0.99794  1.0000
  C   C968      1.0  0.46153  0.26639  0.10758  1.0000
  C   C969      1.0  0.45161  0.27601  0.11558  1.0000
  C   C970      1.0  0.45518  0.28850  0.11593  1.0000
  C   C971      1.0  0.47507  0.26950  0.09999  1.0000
  H   H770      1.0  0.44187  0.26044  0.01744  1.0000
  C   C972      1.0  0.23644  0.41163  0.19551  1.0000
  H   H771      1.0  0.40649  0.26118  0.10109  1.0000
  C   C973      1.0  0.08486  0.45895  0.08649  1.0000
  H   H772      1.0  0.10770  0.47818  0.06099  1.0000
  C   C974      1.0  0.32196  0.45493  0.02518  1.0000
  H   H773      1.0  0.25379  0.34927  0.99811  1.0000
  H   H774      1.0  0.46348  0.26933  0.07858  1.0000
  C   C975      1.0  0.08945  0.47034  0.07577  1.0000
  H   H775      1.0  0.12356  0.39210  0.21878  1.0000
  H   H776      1.0  0.09098  0.48937  0.20113  1.0000
  C   C976      1.0  0.27720  0.32240  0.00177  1.0000
  H   H777      1.0  0.44109  0.27397  0.12156  1.0000
  H   H778      1.0  0.44745  0.29589  0.12210  1.0000
  C   C977      1.0  0.22820  0.37916  0.09389  1.0000
  C   C978      1.0  0.23928  0.38332  0.08246  1.0000
  C   C979      1.0  0.25294  0.37405  0.08028  1.0000
  C   C980      1.0  0.25554  0.36062  0.08950  1.0000
  C   C981      1.0  0.24451  0.35641  0.10109  1.0000
  C   C982      1.0  0.23078  0.36577  0.10317  1.0000
  C   C983      1.0  0.23179  0.32895  0.14017  1.0000
  C   C984      1.0  0.22463  0.32999  0.15420  1.0000
  H   H779      1.0  0.21767  0.38645  0.09573  1.0000
  H   H780      1.0  0.23733  0.39385  0.07551  1.0000
  H   H781      1.0  0.26172  0.37736  0.07169  1.0000
  H   H782      1.0  0.26628  0.35374  0.08768  1.0000
  H   H783      1.0  0.22206  0.36279  0.11203  1.0000
  H   H784      1.0  0.23229  0.31947  0.13671  1.0000
  H   H785      1.0  0.21969  0.32141  0.16134  1.0000
  C   C985      1.0  0.29655  0.33530  0.99192  1.0000
  C   C986      1.0  0.21473  0.45010  0.19279  1.0000
  C   C987      1.0  0.34751  0.48139  0.03941  1.0000
  H   H786      1.0  0.15502  0.47783  0.10551  1.0000
  C   C988      1.0  0.24178  0.42917  0.00350  1.0000
  C   C989      1.0  0.25642  0.42738  0.00369  1.0000
  P   P34       1.0  0.22790  0.44214  0.01238  1.0000
  C   C990      1.0  0.22755  0.43901  0.03123  1.0000
  C   C991      1.0  0.23105  0.45973  0.00300  1.0000
  S   S138      1.0  0.41074  0.46440  0.00813  1.0000
  H   H787      1.0  0.20792  0.46599  0.07660  1.0000
  H   H788      1.0  0.39085  0.38013  0.00753  1.0000
  C   C992      1.0  0.01690  0.47595  0.19779  1.0000
  C   C993      1.0  0.23225  0.46932  0.01031  1.0000
  C   C994      1.0  0.21598  0.44694  0.03978  1.0000
  C   C995      1.0  0.21500  0.44451  0.05443  1.0000
  C   C996      1.0  0.22562  0.43415  0.06074  1.0000
  C   C997      1.0  0.23725  0.42625  0.05235  1.0000
  C   C998      1.0  0.23819  0.42858  0.03768  1.0000
  C   C999      1.0  0.20983  0.44159  0.01181  1.0000
  C   C1000     1.0  0.20525  0.42859  0.01678  1.0000
  C   C1001     1.0  0.19107  0.42819  0.01705  1.0000
  C   C1002     1.0  0.18131  0.44080  0.01248  1.0000
  C   C1003     1.0  0.18571  0.45380  0.00776  1.0000
  C   C1004     1.0  0.19985  0.45425  0.00747  1.0000
  Fe  Fe70      1.0  0.40254  0.25588  0.06750  1.0000
  H   H789      1.0  0.49831  0.31709  0.01566  1.0000
  H   H790      1.0  0.27672  0.45000  0.15551  1.0000
  H   H791      1.0  0.17469  0.46902  0.19052  1.0000
  H   H792      1.0  0.17805  0.46361  0.00452  1.0000
  C   C1005     1.0  0.28730  0.32792  0.99002  1.0000
  H   H793      1.0  0.35994  0.46470  0.07344  1.0000
  C   C1006     1.0  0.33189  0.29562  0.00569  1.0000
  H   H794      1.0  0.46322  0.31049  0.99928  1.0000
  H   H795      1.0  0.23205  0.46618  0.02161  1.0000
  H   H796      1.0  0.20765  0.45503  0.03510  1.0000
  H   H797      1.0  0.20598  0.45069  0.06089  1.0000
  H   H798      1.0  0.22487  0.43234  0.07213  1.0000
  H   H799      1.0  0.24550  0.41828  0.05731  1.0000
  H   H800      1.0  0.24709  0.42201  0.03162  1.0000
  H   H801      1.0  0.21259  0.41877  0.02050  1.0000
  H   H802      1.0  0.18751  0.41817  0.02100  1.0000
  C   C1007     1.0  0.43760  0.25159  0.11344  1.0000
  H   H803      1.0  0.39585  0.25477  0.12698  1.0000
  H   H804      1.0  0.20270  0.46457  0.00416  1.0000
  C   C1008     1.0  0.39411  0.36209  0.02511  1.0000
  H   H805      1.0  0.37463  0.45837  0.99639  1.0000
  H   H806      1.0  0.02803  0.47098  0.19342  1.0000
  C   C1009     1.0  0.40458  0.34545  0.00450  1.0000
  C   C1010     1.0  0.40388  0.33875  0.01897  1.0000
  C   C1011     1.0  0.39894  0.34724  0.02920  1.0000
  P   P35       1.0  0.41148  0.31982  0.02419  1.0000
  C   C1012     1.0  0.40858  0.30890  0.01415  1.0000
  C   C1013     1.0  0.43061  0.31818  0.02230  1.0000
  C   C1014     1.0  0.44072  0.31443  0.01013  1.0000
  C   C1015     1.0  0.45550  0.31345  0.00867  1.0000
  C   C1016     1.0  0.46025  0.31658  0.01910  1.0000
  C   C1017     1.0  0.45021  0.32065  0.03107  1.0000
  C   C1018     1.0  0.43543  0.32147  0.03267  1.0000
  C   C1019     1.0  0.41678  0.29477  0.01494  1.0000
  C   C1020     1.0  0.41385  0.28561  0.00837  1.0000
  C   C1021     1.0  0.40282  0.29051  0.00085  1.0000
  C   C1022     1.0  0.39452  0.30455  0.00008  1.0000
  C   C1023     1.0  0.39726  0.31369  0.00685  1.0000
  C   C1024     1.0  0.40300  0.31269  0.04233  1.0000
  C   C1025     1.0  0.38809  0.31772  0.04759  1.0000
  C   C1026     1.0  0.38149  0.31212  0.06164  1.0000
  C   C1027     1.0  0.38964  0.30127  0.07039  1.0000
  C   C1028     1.0  0.40431  0.29576  0.06502  1.0000
  C   C1029     1.0  0.41099  0.30141  0.05102  1.0000
  H   H807      1.0  0.39006  0.36857  0.03304  1.0000
  H   H808      1.0  0.25949  0.43382  0.00896  1.0000
  C   C1030     1.0  0.11939  0.49069  0.13280  1.0000
  H   H809      1.0  0.25292  0.43044  0.21371  1.0000
  H   H810      1.0  0.39891  0.34246  0.04034  1.0000
  H   H811      1.0  0.43725  0.31244  0.00166  1.0000
  H   H812      1.0  0.01465  0.38043  0.21956  1.0000
  H   H813      1.0  0.47168  0.31602  0.01784  1.0000
  H   H814      1.0  0.45389  0.32323  0.03907  1.0000
  H   H815      1.0  0.42774  0.32472  0.04194  1.0000
  H   H816      1.0  0.42525  0.29073  0.02093  1.0000
  H   H817      1.0  0.42006  0.27466  0.00917  1.0000
  C   C1031     1.0  0.05730  0.47837  0.09737  1.0000
  H   H818      1.0  0.38557  0.30828  0.99476  1.0000
  H   H819      1.0  0.39019  0.32423  0.00678  1.0000
  H   H820      1.0  0.38155  0.32593  0.04085  1.0000
  H   H821      1.0  0.36997  0.31602  0.06569  1.0000
  H   H822      1.0  0.38449  0.29689  0.08124  1.0000
  H   H823      1.0  0.41043  0.28692  0.07165  1.0000
  H   H824      1.0  0.42231  0.29683  0.04694  1.0000
  C   C1032     1.0  0.41644  0.24946  0.13302  1.0000
  H   H825      1.0  0.08167  0.48009  0.07258  1.0000
  C   C1033     1.0  0.05481  0.45319  0.06139  1.0000
  Fe  Fe71      1.0  0.41045  0.24622  0.03969  1.0000
  C   C1034     1.0  0.49891  0.39229  0.99182  1.0000
  H   H826      1.0  0.06267  0.43035  0.10481  1.0000
  C   C1035     1.0  0.26686  0.33227  0.11198  1.0000
  H   H827      1.0  0.03432  0.44836  0.17796  1.0000
  C   C1036     1.0  0.20846  0.38523  0.06873  1.0000
  H   H828      1.0  0.20216  0.38024  0.07873  1.0000
  C   C1037     1.0  0.10418  0.46927  0.06911  1.0000
  C   C1038     1.0  0.33703  0.43538  0.08166  1.0000
  C   C1039     1.0  0.32297  0.44333  0.08579  1.0000
  C   C1040     1.0  0.31876  0.45738  0.07829  1.0000
  H   H829      1.0  0.38092  0.29258  0.04033  1.0000
  C   C1041     1.0  0.19730  0.46740  0.17981  1.0000
  H   H830      1.0  0.30857  0.28769  0.03779  1.0000
  C   C1042     1.0  0.24717  0.35819  0.00288  1.0000
  C   C1043     1.0  0.22514  0.32255  0.09446  1.0000
  C   C1044     1.0  0.36085  0.28618  0.98692  1.0000
  C   C1045     1.0  0.24861  0.43911  0.15158  1.0000
  H   H831      1.0  0.23884  0.32308  0.06014  1.0000
  C   C1046     1.0  0.06233  0.42444  0.12720  1.0000
  C   C1047     1.0  0.39725  0.46106  0.04662  1.0000
  S   S139      1.0  0.14234  0.47838  0.04868  1.0000
  C   C1048     1.0  0.23044  0.38129  0.01516  1.0000
  Fe  Fe72      1.0  0.43087  0.25983  0.04599  1.0000
  H   H832      1.0  0.34040  0.42457  0.08764  1.0000
  H   H833      1.0  0.31539  0.43866  0.09491  1.0000
  H   H834      1.0  0.30798  0.46367  0.08168  1.0000
  H   H835      1.0  0.02240  0.42835  0.18230  1.0000
  C   C1049     1.0  0.29063  0.32001  0.10060  1.0000
  H   H836      1.0  0.47138  0.30121  0.10859  1.0000
  C   C1050     1.0  0.23031  0.33201  0.09874  1.0000
  C   C1051     1.0  0.24167  0.46571  0.05478  1.0000
  C   C1052     1.0  0.11900  0.48392  0.08719  1.0000
  H   H837      1.0  0.29072  0.48062  0.02661  1.0000
  H   H838      1.0  0.48460  0.28171  0.99289  1.0000
  H   H839      1.0  0.22941  0.38367  0.22320  1.0000
  C   C1053     1.0  0.25499  0.46330  0.05842  1.0000
  C   C1054     1.0  0.01742  0.46426  0.16902  1.0000
  C   C1055     1.0  0.27979  0.45947  0.07526  1.0000
  H   H840      1.0  0.15428  0.47291  0.15106  1.0000
  C   C1056     1.0  0.30753  0.45273  0.04939  1.0000
  C   C1057     1.0  0.32001  0.44794  0.03956  1.0000
  H   H841      1.0  0.27003  0.31671  0.00034  1.0000
  C   C1058     1.0  0.45149  0.26458  0.01242  1.0000
  C   C1059     1.0  0.28439  0.39276  0.02592  1.0000
  C   C1060     1.0  0.27743  0.46516  0.08727  1.0000
  C   C1061     1.0  0.27588  0.45631  0.10097  1.0000
  C   C1062     1.0  0.27668  0.44170  0.10281  1.0000
  C   C1063     1.0  0.27926  0.43589  0.09093  1.0000
  C   C1064     1.0  0.28085  0.44471  0.07722  1.0000
  H   H842      1.0  0.40551  0.46392  0.06312  1.0000
  H   H843      1.0  0.07643  0.48205  0.10097  1.0000
  C   C1065     1.0  0.35860  0.43914  0.03471  1.0000
  C   C1066     1.0  0.37034  0.46335  0.06595  1.0000
  C   C1067     1.0  0.24884  0.35524  0.04925  1.0000
  H   H844      1.0  0.29423  0.39662  0.02371  1.0000
  C   C1068     1.0  0.10273  0.40426  0.21449  1.0000
  C   C1069     1.0  0.18894  0.47501  0.10823  1.0000
  C   C1070     1.0  0.36991  0.45310  0.00705  1.0000
  H   H845      1.0  0.37244  0.43329  0.00104  1.0000
  H   H846      1.0  0.25744  0.45439  0.06709  1.0000
  H   H847      1.0  0.30661  0.44729  0.06048  1.0000
  H   H848      1.0  0.32818  0.43875  0.04312  1.0000
  H   H849      1.0  0.35443  0.43337  0.04526  1.0000
  C   C1071     1.0  0.06324  0.42873  0.13898  1.0000
  H   H850      1.0  0.29333  0.33298  0.12746  1.0000
  C   C1072     1.0  0.47061  0.26924  0.99149  1.0000
  H   H851      1.0  0.27336  0.46093  0.11021  1.0000
  H   H852      1.0  0.27489  0.43493  0.11344  1.0000
  H   H853      1.0  0.27955  0.42461  0.09239  1.0000
  H   H854      1.0  0.28241  0.44006  0.06819  1.0000
  C   C1073     1.0  0.32235  0.29804  0.99673  1.0000
  C   C1074     1.0  0.23737  0.35216  0.13581  1.0000
  H   H855      1.0  0.26837  0.44388  0.13723  1.0000
  S   S140      1.0  0.16241  0.47999  0.06954  1.0000
  H   H856      1.0  0.17997  0.45123  0.21231  1.0000
  C   C1075     1.0  0.23028  0.35314  0.14985  1.0000
  H   H857      1.0  0.27138  0.37010  0.01575  1.0000
  C   C1076     1.0  0.47861  0.28199  0.10036  1.0000
  C   C1077     1.0  0.43700  0.35700  0.00235  1.0000
  C   C1078     1.0  0.25985  0.35187  0.05676  1.0000
  S   S141      1.0  0.40747  0.26761  0.04465  1.0000
  H   H858      1.0  0.09206  0.43747  0.09854  1.0000
  H   H859      1.0  0.25424  0.30753  0.11737  1.0000
  H   H860      1.0  0.22592  0.42725  0.22413  1.0000
  H   H861      1.0  0.26191  0.44849  0.18004  1.0000
  S   S142      1.0  0.00940  0.46015  0.11719  1.0000
  C   C1079     1.0  0.36292  0.43200  0.02348  1.0000
  C   C1080     1.0  0.36951  0.27620  0.08384  1.0000
  S   S143      1.0  0.15964  0.40696  0.20442  1.0000
  H   H862      1.0  0.06097  0.41373  0.12838  1.0000
  H   H863      1.0  0.15426  0.47062  0.22430  1.0000
  C   C1081     1.0  0.15965  0.47517  0.22940  1.0000
  H   H864      1.0  0.24501  0.43622  0.14371  1.0000
  C   C1082     1.0  0.37523  0.28151  0.02775  1.0000
  H   H865      1.0  0.29743  0.31435  0.09239  1.0000
  C   C1083     1.0  0.24617  0.31185  0.11090  1.0000
  H   H866      1.0  0.33381  0.29027  0.02776  1.0000
  H   H867      1.0  0.03827  0.45156  0.10171  1.0000
  H   H868      1.0  0.40917  0.33929  0.99629  1.0000
  C   C1084     1.0  0.24962  0.44200  0.21198  1.0000
  C   C1085     1.0  0.22877  0.41906  0.21803  1.0000
  C   C1086     1.0  0.44181  0.38076  0.99236  1.0000
  C   C1087     1.0  0.10996  0.44542  0.08368  1.0000
  C   C1088     1.0  0.06504  0.44253  0.13741  1.0000
  C   C1089     1.0  0.06565  0.45215  0.12414  1.0000
  C   C1090     1.0  0.27565  0.32462  0.10160  1.0000
  C   C1091     1.0  0.36055  0.28118  0.09583  1.0000
  H   H869      1.0  0.35779  0.43519  0.06702  1.0000
  H   H870      1.0  0.12785  0.47857  0.07994  1.0000
  H   H871      1.0  0.26700  0.34154  0.12910  1.0000
  H   H872      1.0  0.26625  0.35951  0.05561  1.0000
  H   H873      1.0  0.18270  0.41800  0.20745  1.0000
  H   H874      1.0  0.42339  0.37603  0.00916  1.0000
  P   P36       1.0  0.28061  0.47106  0.05758  1.0000
  S   S144      1.0  0.44735  0.27358  0.03693  1.0000
  H   H875      1.0  0.36332  0.27667  0.10614  1.0000
  C   C1092     1.0  0.14922  0.45866  0.10545  1.0000
  C   C1093     1.0  0.23314  0.42250  0.20305  1.0000
  C   C1094     1.0  0.45631  0.27201  0.01943  1.0000
  C   C1095     1.0  0.25155  0.46410  0.21618  1.0000
  H   H876      1.0  0.22655  0.30046  0.09494  1.0000
  H   H877      1.0  0.02099  0.40434  0.17611  1.0000
  C   C1096     1.0  0.26017  0.48448  0.04066  1.0000
  C   C1097     1.0  0.43317  0.37167  0.00204  1.0000
  C   C1098     1.0  0.26064  0.39041  0.04076  1.0000
  C   C1099     1.0  0.27335  0.33521  0.12134  1.0000
  P   P37       1.0  0.23331  0.44091  0.19367  1.0000
  C   C1100     1.0  0.00590  0.41061  0.13519  1.0000
  C   C1101     1.0  0.46866  0.29150  0.10832  1.0000
  H   H878      1.0  0.24228  0.36084  0.12886  1.0000
  C   C1102     1.0  0.27291  0.39620  0.03724  1.0000
  S   S145      1.0  0.38559  0.26317  0.08606  1.0000
  Fe  Fe73      1.0  0.14975  0.42161  0.21980  1.0000
  H   H879      1.0  0.48285  0.26228  0.09373  1.0000
  C   C1103     1.0  0.06458  0.44800  0.11228  1.0000
  C   C1104     1.0  0.25523  0.44914  0.21866  1.0000
  H   H880      1.0  0.24396  0.47516  0.08269  1.0000
  H   H881      1.0  0.20229  0.46575  0.22457  1.0000
  C   C1105     1.0  0.41106  0.24466  0.00544  1.0000
  C   C1106     1.0  0.23829  0.42122  0.99585  1.0000
  C   C1107     1.0  0.11144  0.47584  0.09939  1.0000
  H   H882      1.0  0.43857  0.39208  0.99223  1.0000
  H   H883      1.0  0.26251  0.44306  0.22569  1.0000
  H   H884      1.0  0.03609  0.47840  0.09478  1.0000
  H   H885      1.0  0.36712  0.47111  0.01597  1.0000
  C   C1108     1.0  0.34680  0.44138  0.06987  1.0000
  C   C1109     1.0  0.21168  0.46057  0.18062  1.0000
  H   H886      1.0  0.41181  0.24660  0.14435  1.0000
  S   S146      1.0  0.36891  0.40569  0.99652  1.0000
  C   C1110     1.0  0.23995  0.43864  0.16534  1.0000
  C   C1111     1.0  0.20314  0.44693  0.20426  1.0000
  C   C1112     1.0  0.34245  0.45525  0.06185  1.0000
  C   C1113     1.0  0.00598  0.42861  0.14711  1.0000
  C   C1114     1.0  0.26719  0.41704  0.99735  1.0000
  C   C1115     1.0  0.04308  0.45188  0.09049  1.0000
  C   C1116     1.0  0.33960  0.44009  0.99198  1.0000
  H   H887      1.0  0.01388  0.42976  0.12452  1.0000
  Fe  Fe74      1.0  0.17748  0.48827  0.04920  1.0000
  C   C1117     1.0  0.38500  0.46043  0.04259  1.0000
  S   S147      1.0  0.42582  0.25030  0.06938  1.0000
  C   C1118     1.0  0.26430  0.47279  0.05157  1.0000
  C   C1119     1.0  0.22753  0.40509  0.22526  1.0000
  S   S148      1.0  0.11261  0.46914  0.21476  1.0000
  H   H888      1.0  0.14238  0.46409  0.09789  1.0000
  H   H889      1.0  0.05932  0.45377  0.05009  1.0000
  C   C1120     1.0  0.23334  0.48334  0.00311  1.0000
  C   C1121     1.0  0.31253  0.29024  0.02632  1.0000
  H   H890      1.0  0.33176  0.45128  0.01764  1.0000
  C   C1122     1.0  0.01713  0.43903  0.17759  1.0000
  H   H891      1.0  0.02482  0.44651  0.08708  1.0000
  H   H892      1.0  0.34303  0.27775  0.98623  1.0000
  H   H893      1.0  0.00784  0.40700  0.12544  1.0000
  C   C1123     1.0  0.03544  0.44899  0.08220  1.0000
  H   H894      1.0  0.03531  0.44746  0.06122  1.0000
  H   H895      1.0  0.22997  0.47104  0.19284  1.0000
  H   H896      1.0  0.10039  0.44431  0.21950  1.0000
  H   H897      1.0  0.11796  0.43582  0.08673  1.0000
  C   C1124     1.0  0.20443  0.47156  0.08524  1.0000
  C   C1125     1.0  0.32686  0.29177  0.02055  1.0000
  Fe  Fe75      1.0  0.40936  0.48628  0.01109  1.0000
  H   H898      1.0  0.34648  0.43282  0.99896  1.0000
  C   C1126     1.0  0.35991  0.45338  0.03218  1.0000
  H   H899      1.0  0.07102  0.48649  0.19235  1.0000
  C   C1127     1.0  0.39607  0.46292  0.06023  1.0000
  H   H900      1.0  0.22962  0.43567  0.16788  1.0000
  P   P38       1.0  0.35517  0.46281  0.04650  1.0000
  C   C1128     1.0  0.31135  0.46670  0.02058  1.0000
  C   C1129     1.0  0.34850  0.31720  0.98841  1.0000
  H   H901      1.0  0.09665  0.39994  0.22495  1.0000
  C   C1130     1.0  0.18881  0.45379  0.20340  1.0000
  H   H902      1.0  0.45509  0.25705  0.99334  1.0000
  C   C1131     1.0  0.00413  0.46687  0.16528  1.0000
  C   C1132     1.0  0.48295  0.37840  0.99042  1.0000
  C   C1133     1.0  0.24911  0.41095  0.98944  1.0000
  C   C1134     1.0  0.33567  0.32746  0.99186  1.0000
  H   H903      1.0  0.32500  0.47433  0.06106  1.0000
  C   C1135     1.0  0.25799  0.44592  0.17221  1.0000
  C   C1136     1.0  0.06242  0.45624  0.06966  1.0000
  H   H904      1.0  0.48608  0.24304  0.11378  1.0000
  H   H905      1.0  0.23727  0.38953  0.19677  1.0000
  C   C1137     1.0  0.38265  0.46392  0.06995  1.0000
  H   H906      1.0  0.32648  0.32438  0.99994  1.0000
  H   H907      1.0  0.38622  0.45937  0.03184  1.0000
  C   C1138     1.0  0.40603  0.45026  0.99091  1.0000
  C   C1139     1.0  0.24462  0.44183  0.17584  1.0000
  C   C1140     1.0  0.26648  0.44676  0.15829  1.0000
  H   H908      1.0  0.40764  0.46045  0.03901  1.0000
  C   C1141     1.0  0.32846  0.46335  0.06642  1.0000
  H   H909      1.0  0.43279  0.25937  0.09238  1.0000
  C   C1142     1.0  0.23678  0.46483  0.20023  1.0000
  H   H910      1.0  0.40899  0.44067  0.99881  1.0000
  H   H911      1.0  0.02272  0.47304  0.16695  1.0000
  H   H912      1.0  0.22706  0.47948  0.04162  1.0000
  H   H913      1.0  0.39996  0.36553  0.98940  1.0000
  C   C1143     1.0  0.10030  0.48268  0.10911  1.0000
  C   C1144     1.0  0.42607  0.24359  0.00249  1.0000
  C   C1145     1.0  0.00374  0.44162  0.17384  1.0000
  C   C1146     1.0  0.43463  0.24198  0.98895  1.0000
  H   H914      1.0  0.27620  0.47650  0.08619  1.0000
  H   H915      1.0  0.24336  0.47932  0.15357  1.0000
  H   H916      1.0  0.02963  0.38408  0.19482  1.0000
  H   H917      1.0  0.29818  0.48192  0.09930  1.0000
  C   C1147     1.0  0.24343  0.48317  0.10069  1.0000
  C   C1148     1.0  0.16246  0.48485  0.12984  1.0000
  C   C1149     1.0  0.20457  0.47637  0.22124  1.0000
  C   C1150     1.0  0.01925  0.39137  0.19743  1.0000
  H   H918      1.0  0.36342  0.49001  0.04362  1.0000
  H   H919      1.0  0.32869  0.42398  0.99260  1.0000
  C   C1151     1.0  0.00814  0.46788  0.20874  1.0000
  Fe  Fe76      1.0  0.07562  0.48346  0.14116  1.0000
  Fe  Fe77      1.0  0.15908  0.48658  0.03017  1.0000
  H   H920      1.0  0.21959  0.48526  0.07557  1.0000
  S   S149      1.0  0.08198  0.48510  0.16027  1.0000
  C   C1152     1.0  0.20826  0.48195  0.23071  1.0000
  H   H921      1.0  0.23968  0.48354  0.20480  1.0000
  H   H922      1.0  0.13021  0.48713  0.11184  1.0000
  C   C1153     1.0  0.20338  0.48462  0.20763  1.0000
  C   C1154     1.0  0.14179  0.46154  0.99130  1.0000
  C   C1155     1.0  0.32957  0.43506  0.98834  1.0000
  C   C1156     1.0  0.26352  0.40872  0.99036  1.0000
  H   H923      1.0  0.34958  0.45758  0.98860  1.0000
  C   C1157     1.0  0.19553  0.48608  0.10746  1.0000
  H   H924      1.0  0.21833  0.48865  0.16554  1.0000
  S   S150      1.0  0.42265  0.48817  0.02508  1.0000
  C   C1158     1.0  0.24129  0.48675  0.16037  1.0000
  C   C1159     1.0  0.24686  0.48680  0.03699  1.0000
  H   H925      1.0  0.00761  0.49021  0.22447  1.0000
  H   H926      1.0  0.26382  0.48721  0.15652  1.0000
  H   H927      1.0  0.30406  0.48664  0.05021  1.0000
  C   C1160     1.0  0.00214  0.48469  0.12761  1.0000
  C   C1161     1.0  0.36204  0.48922  0.98864  1.0000
  C   C1162     1.0  0.15878  0.49005  0.22583  1.0000
  C   C1163     1.0  0.23131  0.46428  0.98832  1.0000
  C   C1164     1.0  0.01128  0.49039  0.19230  1.0000
  H   H928      1.0  0.19085  0.48994  0.99488  1.0000
  C   C1165     1.0  0.14987  0.48343  0.98736  1.0000
  C   C1166     1.0  0.20662  0.48967  0.09577  1.0000
  C   C1167     1.0  0.28081  0.48897  0.05813  1.0000
  H   H929      1.0  0.23378  0.49082  0.00892  1.0000
  C   C1168     1.0  0.34131  0.45417  0.98606  1.0000
  H   H930      1.0  0.23531  0.36756  0.98617  1.0000
  C   C1169     1.0  0.50180  0.30465  0.00007  1.0000
  C   C1170     1.0  0.25284  0.49117  0.16207  1.0000
  C   C1171     1.0  0.03634  0.42997  0.34099  1.0000
  C   C1172     1.0  0.12247  0.33151  0.28882  1.0000
  C   C1173     1.0  0.03580  0.26986  0.35730  1.0000
  C   C1174     1.0  0.00918  0.33720  0.33107  1.0000
  C   C1175     1.0  0.01246  0.38164  0.48093  1.0000
  H   H931      1.0  0.05073  0.45384  0.25502  1.0000
  H   H932      1.0  0.02222  0.46736  0.36486  1.0000
  C   C1176     1.0  0.01022  0.34627  0.37925  1.0000
  H   H933      1.0  0.05493  0.42221  0.32545  1.0000
  H   H934      1.0  0.12146  0.31795  0.31010  1.0000
  S   S151      1.0  0.11627  0.41294  0.26922  1.0000
  S   S152      1.0  0.00718  0.41131  0.34887  1.0000
  C   C1177     1.0  0.12797  0.29070  0.37227  1.0000
  Fe  Fe78      1.0  0.06284  0.33088  0.30124  1.0000
  S   S153      1.0  0.05905  0.34481  0.28006  1.0000
  S   S154      1.0  0.06820  0.30674  0.30571  1.0000
  Fe  Fe79      1.0  0.05989  0.35596  0.31381  1.0000
  S   S155      1.0  0.05617  0.37222  0.29379  1.0000
  S   S156      1.0  0.06047  0.36096  0.33410  1.0000
  Fe  Fe80      1.0  0.04154  0.35894  0.29301  1.0000
  S   S157      1.0  0.02001  0.37167  0.28799  1.0000
  Fe  Fe81      1.0  0.07391  0.35693  0.28246  1.0000
  S   S158      1.0  0.09078  0.36404  0.26325  1.0000
  S   S159      1.0  0.04381  0.34385  0.31407  1.0000
  S   S160      1.0  0.07915  0.34189  0.30259  1.0000
  C   C1178     1.0  0.07945  0.26043  0.45884  1.0000
  S   S161      1.0  0.04128  0.28285  0.45684  1.0000
  C   C1179     1.0  0.12743  0.36869  0.29774  1.0000
  C   C1180     1.0  0.07911  0.28868  0.41589  1.0000
  C   C1181     1.0  0.00819  0.26138  0.41442  1.0000
  C   C1182     1.0  0.05571  0.26456  0.43880  1.0000
  C   C1183     1.0  0.04314  0.26871  0.44885  1.0000
  C   C1184     1.0  0.03154  0.26206  0.45195  1.0000
  C   C1185     1.0  0.05499  0.46347  0.25137  1.0000
  C   C1186     1.0  0.14371  0.34956  0.27331  1.0000
  H   H935      1.0  0.06482  0.26941  0.43656  1.0000
  H   H936      1.0  0.02197  0.26474  0.45995  1.0000
  C   C1187     1.0  0.04517  0.37430  0.33877  1.0000
  C   C1188     1.0  0.03515  0.38017  0.33003  1.0000
  C   C1189     1.0  0.02337  0.39138  0.33329  1.0000
  C   C1190     1.0  0.02146  0.39668  0.34536  1.0000
  C   C1191     1.0  0.03105  0.39034  0.35453  1.0000
  C   C1192     1.0  0.04300  0.37922  0.35116  1.0000
  H   H937      1.0  0.03647  0.37616  0.32068  1.0000
  H   H938      1.0  0.01569  0.39580  0.32649  1.0000
  C   C1193     1.0  0.03911  0.26283  0.32667  1.0000
  H   H939      1.0  0.05061  0.37457  0.35806  1.0000
  C   C1194     1.0  0.07252  0.29918  0.32253  1.0000
  C   C1195     1.0  0.07826  0.28442  0.32643  1.0000
  C   C1196     1.0  0.08078  0.27817  0.34024  1.0000
  C   C1197     1.0  0.07731  0.28669  0.35024  1.0000
  C   C1198     1.0  0.07216  0.30153  0.34609  1.0000
  C   C1199     1.0  0.06980  0.30776  0.33229  1.0000
  H   H940      1.0  0.08040  0.27775  0.31889  1.0000
  H   H941      1.0  0.06932  0.30820  0.35370  1.0000
  H   H942      1.0  0.06542  0.31916  0.32936  1.0000
  H   H943      1.0  0.00420  0.40268  0.29219  1.0000
  C   C1200     1.0  0.02006  0.29531  0.36578  1.0000
  C   C1201     1.0  0.04319  0.28771  0.39510  1.0000
  H   H944      1.0  0.07544  0.30343  0.38316  1.0000
  H   H945      1.0  0.07283  0.46180  0.46681  1.0000
  C   C1202     1.0  0.01290  0.34963  0.28169  1.0000
  H   H946      1.0  0.17328  0.26453  0.39370  1.0000
  H   H947      1.0  0.02936  0.34842  0.34487  1.0000
  C   C1203     1.0  0.08476  0.47591  0.27180  1.0000
  C   C1204     1.0  0.10849  0.40002  0.26717  1.0000
  C   C1205     1.0  0.09883  0.39363  0.27879  1.0000
  C   C1206     1.0  0.09324  0.38262  0.27765  1.0000
  C   C1207     1.0  0.09714  0.37814  0.26478  1.0000
  C   C1208     1.0  0.10656  0.38472  0.25307  1.0000
  C   C1209     1.0  0.11220  0.39568  0.25424  1.0000
  H   H948      1.0  0.09576  0.39712  0.28872  1.0000
  H   H949      1.0  0.08609  0.37749  0.28678  1.0000
  C   C1210     1.0  0.02510  0.47685  0.35729  1.0000
  C   C1211     1.0  0.09867  0.45158  0.27768  1.0000
  C   C1212     1.0  0.04652  0.44496  0.31890  1.0000
  C   C1213     1.0  0.02120  0.27119  0.36412  1.0000
  C   C1214     1.0  0.02948  0.25409  0.33485  1.0000
  C   C1215     1.0  0.00332  0.48088  0.32446  1.0000
  H   H950      1.0  0.00660  0.33299  0.27640  1.0000
  C   C1216     1.0  0.10867  0.47159  0.27647  1.0000
  C   C1217     1.0  0.11869  0.37971  0.30448  1.0000
  C   C1218     1.0  0.12257  0.35616  0.29967  1.0000
  H   H951      1.0  0.03181  0.45841  0.46842  1.0000
  H   H952      1.0  0.03732  0.37011  0.40893  1.0000
  H   H953      1.0  0.11328  0.24623  0.44127  1.0000
  P   P39       1.0  0.01218  0.29996  0.31092  1.0000
  S   S162      1.0  0.07805  0.27903  0.36823  1.0000
  C   C1219     1.0  0.05064  0.33742  0.40037  1.0000
  H   H954      1.0  0.05154  0.30309  0.37711  1.0000
  H   H955      1.0  0.00886  0.38663  0.47113  1.0000
  H   H956      1.0  0.04397  0.28381  0.26786  1.0000
  C   C1220     1.0  0.04731  0.30073  0.38855  1.0000
  H   H957      1.0  0.00217  0.32001  0.44612  1.0000
  C   C1221     1.0  0.04462  0.24784  0.43446  1.0000
  H   H958      1.0  0.04146  0.28363  0.31388  1.0000
  H   H959      1.0  0.02633  0.32314  0.34101  1.0000
  C   C1222     1.0  0.17447  0.47223  0.24606  1.0000
  H   H960      1.0  0.05577  0.30457  0.25937  1.0000
  C   C1223     1.0  0.03306  0.41227  0.29616  1.0000
  H   H961      1.0  0.09771  0.26955  0.44619  1.0000
  P   P40       1.0  0.01145  0.47091  0.33945  1.0000
  C   C1224     1.0  0.05649  0.25409  0.43161  1.0000
  H   H962      1.0  0.01951  0.33826  0.39773  1.0000
  H   H963      1.0  0.02943  0.39422  0.36405  1.0000
  C   C1225     1.0  0.02518  0.40583  0.29116  1.0000
  C   C1226     1.0  0.09600  0.48127  0.27303  1.0000
  H   H964      1.0  0.02806  0.32418  0.44658  1.0000
  H   H965      1.0  0.04946  0.31278  0.45731  1.0000
  C   C1227     1.0  0.06613  0.48821  0.24180  1.0000
  H   H966      1.0  0.10787  0.25821  0.35203  1.0000
  C   C1228     1.0  0.02933  0.32801  0.45516  1.0000
  H   H967      1.0  0.03752  0.35751  0.39106  1.0000
  C   C1229     1.0  0.01977  0.31268  0.32853  1.0000
  C   C1230     1.0  0.03466  0.29397  0.35872  1.0000
  H   H968      1.0  0.07255  0.27058  0.46091  1.0000
  H   H969      1.0  0.04855  0.32335  0.27331  1.0000
  C   C1231     1.0  0.09096  0.31192  0.36531  1.0000
  C   C1232     1.0  0.04551  0.47695  0.25114  1.0000
  C   C1233     1.0  0.02570  0.44186  0.34458  1.0000
  H   H970      1.0  0.03081  0.39854  0.28409  1.0000
  C   C1234     1.0  0.05848  0.33788  0.42116  1.0000
  C   C1235     1.0  0.02509  0.45534  0.33512  1.0000
  C   C1236     1.0  0.16772  0.46623  0.23937  1.0000
  H   H971      1.0  0.04482  0.40999  0.29294  1.0000
  H   H972      1.0  0.12292  0.32700  0.36663  1.0000
  H   H973      1.0  0.10483  0.34535  0.31027  1.0000
  H   H974      1.0  0.00408  0.35445  0.35897  1.0000
  C   C1237     1.0  0.05077  0.35209  0.42046  1.0000
  H   H975      1.0  0.05346  0.28029  0.34858  1.0000
  H   H976      1.0  0.09986  0.44013  0.27918  1.0000
  P   P41       1.0  0.05043  0.32774  0.38774  1.0000
  C   C1238     1.0  0.05153  0.46261  0.48074  1.0000
  C   C1239     1.0  0.03243  0.31349  0.28948  1.0000
  C   C1240     1.0  0.02986  0.29116  0.28641  1.0000
  C   C1241     1.0  0.15760  0.34222  0.26736  1.0000
  S   S163      1.0  0.17016  0.44749  0.24325  1.0000
  C   C1242     1.0  0.04730  0.30383  0.26904  1.0000
  H   H977      1.0  0.02974  0.32168  0.29553  1.0000
  C   C1243     1.0  0.06998  0.46238  0.24657  1.0000
  H   H978      1.0  0.04213  0.25982  0.35454  1.0000
  H   H979      1.0  0.16257  0.33184  0.27298  1.0000
  H   H980      1.0  0.07341  0.48655  0.46674  1.0000
  C   C1244     1.0  0.03579  0.45685  0.32240  1.0000
  H   H981      1.0  0.09814  0.30151  0.36490  1.0000
  C   C1245     1.0  0.12334  0.30451  0.37509  1.0000
  H   H982      1.0  0.16778  0.29664  0.30640  1.0000
  H   H983      1.0  0.03583  0.46726  0.31521  1.0000
  C   C1246     1.0  0.01068  0.42357  0.31043  1.0000
  H   H984      1.0  0.04940  0.33635  0.35695  1.0000
  C   C1247     1.0  0.02113  0.48131  0.34403  1.0000
  H   H985      1.0  0.09053  0.29854  0.42450  1.0000
  H   H986      1.0  0.07082  0.27731  0.40569  1.0000
  C   C1248     1.0  0.05239  0.49031  0.48094  1.0000
  H   H987      1.0  0.10925  0.27651  0.36340  1.0000
  C   C1249     1.0  0.03215  0.33726  0.47792  1.0000
  C   C1250     1.0  0.14685  0.33062  0.30110  1.0000
  C   C1251     1.0  0.00800  0.27027  0.40083  1.0000
  C   C1252     1.0  0.10894  0.35478  0.30862  1.0000
  C   C1253     1.0  0.07178  0.33856  0.36583  1.0000
  S   S164      1.0  0.01411  0.48912  0.42521  1.0000
  C   C1254     1.0  0.01897  0.32415  0.33438  1.0000
  C   C1255     1.0  0.02713  0.34579  0.35643  1.0000
  H   H988      1.0  0.05471  0.44617  0.30905  1.0000
  C   C1256     1.0  0.00915  0.27364  0.32980  1.0000
  C   C1257     1.0  0.00799  0.36250  0.28633  1.0000
  H   H989      1.0  0.10971  0.38113  0.24318  1.0000
  H   H990      1.0  0.14056  0.37934  0.24627  1.0000
  S   S165      1.0  0.15391  0.41649  0.24179  1.0000
  C   C1258     1.0  0.08603  0.46112  0.27431  1.0000
  C   C1259     1.0  0.03601  0.33667  0.37833  1.0000
  C   C1260     1.0  0.07794  0.31304  0.37563  1.0000
  C   C1261     1.0  0.13466  0.31457  0.35082  1.0000
  H   H991      1.0  0.05049  0.35768  0.42841  1.0000
  H   H992      1.0  0.06427  0.33247  0.42961  1.0000
  H   H993      1.0  0.09431  0.26978  0.39001  1.0000
  C   C1262     1.0  0.04064  0.29216  0.27382  1.0000
  C   C1263     1.0  0.10025  0.36582  0.31534  1.0000
  H   H994      1.0  0.03786  0.31517  0.41786  1.0000
  C   C1264     1.0  0.01858  0.33894  0.46057  1.0000
  H   H995      1.0  0.03386  0.41693  0.44178  1.0000
  H   H996      1.0  0.03456  0.27425  0.41491  1.0000
  C   C1265     1.0  0.04143  0.32161  0.46119  1.0000
  C   C1266     1.0  0.06801  0.32629  0.37562  1.0000
  C   C1267     1.0  0.04342  0.35186  0.39940  1.0000
  C   C1268     1.0  0.16236  0.32747  0.31733  1.0000
  C   C1269     1.0  0.03987  0.30747  0.41140  1.0000
  H   H997      1.0  0.02781  0.30285  0.33071  1.0000
  H   H998      1.0  0.14207  0.24591  0.42833  1.0000
  C   C1270     1.0  0.13940  0.30088  0.34793  1.0000
  C   C1271     1.0  0.10791  0.32726  0.27510  1.0000
  H   H999      1.0  0.10406  0.32310  0.34675  1.0000
  C   C1272     1.0  0.10609  0.28022  0.39782  1.0000
  C   C1273     1.0  0.03217  0.25184  0.44463  1.0000
  Fe  Fe82      1.0  0.07491  0.25628  0.37705  1.0000
  C   C1274     1.0  0.11519  0.26560  0.36644  1.0000
  C   C1275     1.0  0.01821  0.42842  0.45692  1.0000
  S   S166      1.0  0.12997  0.44653  0.24614  1.0000
  H   H1000     1.0  0.01581  0.36977  0.44959  1.0000
  P   P42       1.0  0.13378  0.34200  0.29078  1.0000
  C   C1276     1.0  0.09428  0.32406  0.35511  1.0000
  H   H1001     1.0  0.14766  0.34720  0.31075  1.0000
  Fe  Fe83      1.0  0.01797  0.28671  0.46876  1.0000
  C   C1277     1.0  0.04321  0.31445  0.27688  1.0000
  C   C1278     1.0  0.00407  0.47449  0.31335  1.0000
  H   H1002     1.0  0.03119  0.29199  0.42930  1.0000
  H   H1003     1.0  0.05072  0.25864  0.32559  1.0000
  H   H1004     1.0  0.09818  0.38696  0.31821  1.0000
  H   H1005     1.0  0.01643  0.26201  0.36653  1.0000
  C   C1279     1.0  0.10997  0.45682  0.27877  1.0000
  H   H1006     1.0  0.08720  0.34685  0.34752  1.0000
  H   H1007     1.0  0.11990  0.44940  0.28106  1.0000
  H   H1008     1.0  0.04437  0.28022  0.38867  1.0000
  H   H1009     1.0  0.08466  0.26671  0.34334  1.0000
  H   H1010     1.0  0.02498  0.28192  0.29016  1.0000
  H   H1011     1.0  0.20883  0.47564  0.24138  1.0000
  C   C1280     1.0  0.10227  0.24682  0.44759  1.0000
  H   H1012     1.0  0.03645  0.41953  0.34818  1.0000
  H   H1013     1.0  0.11773  0.47532  0.27711  1.0000
  C   C1281     1.0  0.10490  0.28805  0.40793  1.0000
  H   H1014     1.0  0.16720  0.24930  0.41796  1.0000
  C   C1282     1.0  0.02172  0.34014  0.38620  1.0000
  H   H1015     1.0  0.02553  0.43466  0.45704  1.0000
  S   S167      1.0  0.00301  0.45282  0.42927  1.0000
  H   H1016     1.0  0.12224  0.38960  0.30244  1.0000
  C   C1283     1.0  0.07396  0.24799  0.46419  1.0000
  C   C1284     1.0  0.04340  0.35911  0.40949  1.0000
  H   H1017     1.0  0.04007  0.30264  0.35671  1.0000
  H   H1018     1.0  0.01553  0.33537  0.42535  1.0000
  C   C1285     1.0  0.15179  0.33615  0.30984  1.0000
  C   C1286     1.0  0.04673  0.43149  0.32816  1.0000
  H   H1019     1.0  0.06462  0.31964  0.41162  1.0000
  C   C1287     1.0  0.13065  0.24751  0.38085  1.0000
  C   C1288     1.0  0.10385  0.31604  0.28626  1.0000
  H   H1020     1.0  0.06625  0.25084  0.42395  1.0000
  C   C1289     1.0  0.10512  0.37827  0.31329  1.0000
  H   H1021     1.0  0.01836  0.25680  0.41785  1.0000
  S   S168      1.0  0.00647  0.30491  0.47954  1.0000
  H   H1022     1.0  0.06864  0.29205  0.42274  1.0000
  H   H1023     1.0  0.18058  0.46538  0.25387  1.0000
  H   H1024     1.0  0.01806  0.44038  0.35477  1.0000
  C   C1290     1.0  0.03591  0.29434  0.41795  1.0000
  C   C1291     1.0  0.01294  0.34925  0.36436  1.0000
  H   H1025     1.0  0.03194  0.42565  0.31014  1.0000
  H   H1026     1.0  0.08955  0.36488  0.32187  1.0000
  C   C1292     1.0  0.08480  0.33742  0.35551  1.0000
  C   C1293     1.0  0.03379  0.27701  0.32012  1.0000
  C   C1294     1.0  0.05859  0.33063  0.41103  1.0000
  H   H1027     1.0  0.01838  0.46259  0.44974  1.0000
  C   C1295     1.0  0.01311  0.28407  0.36806  1.0000
  H   H1028     1.0  0.13783  0.37013  0.29082  1.0000
  H   H1029     1.0  0.07735  0.45702  0.27338  1.0000
  C   C1296     1.0  0.03765  0.28442  0.40982  1.0000
  H   H1030     1.0  0.05138  0.45189  0.48042  1.0000
  S   S169      1.0  0.05245  0.25215  0.38481  1.0000
  C   C1297     1.0  0.04236  0.28134  0.35426  1.0000
  C   C1298     1.0  0.01875  0.28244  0.32136  1.0000
  H   H1031     1.0  0.01701  0.40290  0.44109  1.0000
  C   C1299     1.0  0.15146  0.26982  0.39043  1.0000
  C   C1300     1.0  0.02552  0.30192  0.29424  1.0000
  C   C1301     1.0  0.04599  0.31059  0.39667  1.0000
  H   H1032     1.0  0.02442  0.34504  0.27915  1.0000
  H   H1033     1.0  0.00559  0.42568  0.42293  1.0000
  C   C1302     1.0  0.02293  0.41840  0.44832  1.0000
  C   C1303     1.0  0.13716  0.26802  0.39630  1.0000
  C   C1304     1.0  0.03860  0.33923  0.36338  1.0000
  H   H1034     1.0  0.06431  0.34893  0.36570  1.0000
  C   C1305     1.0  0.00411  0.37347  0.45221  1.0000
  Fe  Fe84      1.0  0.12970  0.42352  0.24879  1.0000
  H   H1035     1.0  0.22384  0.40260  0.23678  1.0000
  H   H1036     1.0  0.06291  0.24881  0.47036  1.0000
  H   H1037     1.0  0.09636  0.31033  0.28540  1.0000
  H   H1038     1.0  0.11696  0.30627  0.38540  1.0000
  C   C1306     1.0  0.06374  0.46818  0.47299  1.0000
  C   C1307     1.0  0.13380  0.25957  0.41011  1.0000
  H   H1039     1.0  0.17599  0.34262  0.24942  1.0000
  C   C1308     1.0  0.14461  0.25285  0.41787  1.0000
  C   C1309     1.0  0.00284  0.34295  0.27998  1.0000
  H   H1040     1.0  0.17639  0.30656  0.32183  1.0000
  C   C1310     1.0  0.12314  0.26180  0.37710  1.0000
  C   C1311     1.0  0.11713  0.33500  0.27638  1.0000
  S   S170      1.0  0.00718  0.48443  0.39660  1.0000
  C   C1312     1.0  0.02035  0.46330  0.47048  1.0000
  S   S171      1.0  0.08157  0.24359  0.39751  1.0000
  H   H1041     1.0  0.11438  0.29087  0.40888  1.0000
  C   C1313     1.0  0.01985  0.34367  0.47203  1.0000
  C   C1314     1.0  0.12671  0.31636  0.36441  1.0000
  C   C1315     1.0  0.14528  0.36895  0.25216  1.0000
  C   C1316     1.0  0.02581  0.42116  0.30577  1.0000
  C   C1317     1.0  0.08031  0.28041  0.40628  1.0000
  C   C1318     1.0  0.09355  0.25987  0.45047  1.0000
  C   C1319     1.0  0.13620  0.28898  0.35862  1.0000
  H   H1042     1.0  0.00332  0.38599  0.43086  1.0000
  C   C1320     1.0  0.15269  0.31629  0.29993  1.0000
  S   S172      1.0  0.00718  0.36461  0.41073  1.0000
  H   H1043     1.0  0.14548  0.29948  0.33737  1.0000
  C   C1321     1.0  0.16527  0.34828  0.25396  1.0000
  C   C1322     1.0  0.16324  0.30764  0.30745  1.0000
  H   H1044     1.0  0.00892  0.34627  0.33512  1.0000
  C   C1323     1.0  0.09373  0.27619  0.39730  1.0000
  P   P43       1.0  0.12343  0.27526  0.38587  1.0000
  H   H1045     1.0  0.15438  0.27609  0.37972  1.0000
  H   H1046     1.0  0.10349  0.33034  0.26564  1.0000
  H   H1047     1.0  0.14008  0.27846  0.35617  1.0000
  H   H1048     1.0  0.13704  0.32381  0.34250  1.0000
  H   H1049     1.0  0.14927  0.31188  0.29301  1.0000
  H   H1050     1.0  0.01819  0.27239  0.39396  1.0000
  C   C1324     1.0  0.09143  0.29236  0.41684  1.0000
  C   C1325     1.0  0.01315  0.46735  0.48351  1.0000
  H   H1051     1.0  0.12677  0.36864  0.26975  1.0000
  H   H1052     1.0  0.16623  0.33186  0.32393  1.0000
  C   C1326     1.0  0.01451  0.25956  0.33661  1.0000
  C   C1327     1.0  0.01340  0.41055  0.44789  1.0000
  C   C1328     1.0  0.15914  0.36168  0.24639  1.0000
  C   C1329     1.0  0.01278  0.46557  0.45986  1.0000
  H   H1053     1.0  0.01431  0.30504  0.36947  1.0000
  C   C1330     1.0  0.16810  0.31323  0.31612  1.0000
  H   H1054     1.0  0.00907  0.34345  0.45604  1.0000
  H   H1055     1.0  0.10517  0.30434  0.30763  1.0000
  H   H1056     1.0  0.11971  0.40046  0.24527  1.0000
  C   C1331     1.0  0.04290  0.32633  0.47247  1.0000
  C   C1332     1.0  0.10886  0.31266  0.29880  1.0000
  C   C1333     1.0  0.11807  0.32042  0.30014  1.0000
  C   C1334     1.0  0.00391  0.43074  0.46494  1.0000
  H   H1057     1.0  0.11970  0.34395  0.26777  1.0000
  H   H1058     1.0  0.12290  0.25785  0.41474  1.0000
  H   H1059     1.0  0.07735  0.45198  0.24640  1.0000
  H   H1060     1.0  0.07508  0.48320  0.26879  1.0000
  C   C1335     1.0  0.13755  0.36289  0.26550  1.0000
  C   C1336     1.0  0.01006  0.40823  0.29576  1.0000
  C   C1337     1.0  0.07554  0.47474  0.24202  1.0000
  C   C1338     1.0  0.11444  0.25525  0.35990  1.0000
  C   C1339     1.0  0.16222  0.26322  0.39829  1.0000
  H   H1061     1.0  0.01761  0.40088  0.48203  1.0000
  H   H1062     1.0  0.00960  0.46341  0.31352  1.0000
  C   C1340     1.0  0.15882  0.25468  0.41197  1.0000
  H   H1063     1.0  0.00835  0.30201  0.41358  1.0000
  H   H1064     1.0  0.00546  0.42967  0.31860  1.0000
  H   H1065     1.0  0.08719  0.47387  0.23848  1.0000
  C   C1341     1.0  0.00448  0.33964  0.43044  1.0000
  C   C1342     1.0  0.01056  0.31415  0.31953  1.0000
  H   H1066     1.0  0.02294  0.24707  0.44683  1.0000
  H   H1067     1.0  0.03393  0.47760  0.25478  1.0000
  P   P44       1.0  0.00512  0.35688  0.47973  1.0000
  H   H1068     1.0  0.10612  0.48803  0.24353  1.0000
  H   H1069     1.0  0.13674  0.24410  0.38913  1.0000
  H   H1070     1.0  0.00707  0.25283  0.34318  1.0000
  H   H1071     1.0  0.03363  0.24315  0.34004  1.0000
  C   C1343     1.0  0.03256  0.48479  0.36103  1.0000
  C   C1344     1.0  0.06410  0.48210  0.47297  1.0000
  H   H1072     1.0  0.05217  0.32125  0.47732  1.0000
  H   H1073     1.0  0.03528  0.48156  0.37142  1.0000
  C   C1345     1.0  0.17349  0.48705  0.24260  1.0000
  C   C1346     1.0  0.05102  0.48944  0.24581  1.0000
  H   H1074     1.0  0.06971  0.49100  0.29140  1.0000
  Fe  Fe85      1.0  0.15378  0.43994  0.23713  1.0000
  C   C1347     1.0  0.00267  0.41723  0.30533  1.0000
  H   H1075     1.0  0.16507  0.36647  0.23605  1.0000
  C   C1348     1.0  0.10574  0.24812  0.57021  1.0000
  Fe  Fe86      1.0  0.01658  0.36825  0.54892  1.0000
  S   S173      1.0  0.03868  0.35485  0.54178  1.0000
  C   C1349     1.0  0.12235  0.35164  0.64301  1.0000
  H   H1076     1.0  0.12596  0.26879  0.54323  1.0000
  S   S174      1.0  0.03542  0.32949  0.52032  1.0000
  Fe  Fe87      1.0  0.03552  0.34272  0.56450  1.0000
  S   S175      1.0  0.05410  0.33429  0.57565  1.0000
  H   H1077     1.0  0.04102  0.38651  0.72404  1.0000
  S   S176      1.0  0.04470  0.45498  0.68006  1.0000
  Fe  Fe88      1.0  0.03663  0.40944  0.61945  1.0000
  S   S177      1.0  0.02523  0.42058  0.63739  1.0000
  S   S178      1.0  0.05783  0.39304  0.61869  1.0000
  Fe  Fe89      1.0  0.01574  0.42731  0.60060  1.0000
  H   H1078     1.0  0.16364  0.41879  0.73178  1.0000
  S   S179      1.0  0.00989  0.43408  0.57904  1.0000
  Fe  Fe90      1.0  0.02407  0.44072  0.62028  1.0000
  S   S180      1.0  0.02775  0.46139  0.62209  1.0000
  S   S181      1.0  0.09667  0.24405  0.62041  1.0000
  S   S182      1.0  0.03704  0.42974  0.60254  1.0000
  S   S183      1.0  0.01619  0.40607  0.61617  1.0000
  Fe  Fe91      1.0  0.08695  0.36541  0.68539  1.0000
  S   S184      1.0  0.09559  0.37936  0.66457  1.0000
  S   S185      1.0  0.09672  0.31156  0.69744  1.0000
  H   H1079     1.0  0.01275  0.38601  0.70899  1.0000
  S   S186      1.0  0.10268  0.34956  0.69785  1.0000
  S   S187      1.0  0.03082  0.28767  0.62762  1.0000
  H   H1080     1.0  0.14917  0.45992  0.67530  1.0000
  C   C1350     1.0  0.10598  0.31795  0.61267  1.0000
  C   C1351     1.0  0.01669  0.40332  0.71535  1.0000
  H   H1081     1.0  0.03878  0.31034  0.50234  1.0000
  C   C1352     1.0  0.08770  0.30190  0.69144  1.0000
  C   C1353     1.0  0.09383  0.28734  0.69150  1.0000
  C   C1354     1.0  0.08684  0.27900  0.68752  1.0000
  H   H1082     1.0  0.10395  0.28237  0.69490  1.0000
  C   C1355     1.0  0.02210  0.36920  0.50624  1.0000
  H   H1083     1.0  0.07369  0.31832  0.55041  1.0000
  C   C1356     1.0  0.08468  0.38283  0.65225  1.0000
  C   C1357     1.0  0.06955  0.38758  0.65608  1.0000
  C   C1358     1.0  0.06117  0.39134  0.64574  1.0000
  C   C1359     1.0  0.06781  0.38940  0.63185  1.0000
  C   C1360     1.0  0.08287  0.38426  0.62822  1.0000
  C   C1361     1.0  0.09131  0.38145  0.63824  1.0000
  H   H1084     1.0  0.06437  0.38877  0.66689  1.0000
  H   H1085     1.0  0.04963  0.39552  0.64857  1.0000
  H   H1086     1.0  0.08806  0.38283  0.61748  1.0000
  H   H1087     1.0  0.10298  0.37803  0.63517  1.0000
  C   C1362     1.0  0.04142  0.45710  0.66323  1.0000
  C   C1363     1.0  0.03719  0.47072  0.65481  1.0000
  C   C1364     1.0  0.03340  0.47206  0.64190  1.0000
  C   C1365     1.0  0.03407  0.45979  0.63734  1.0000
  C   C1366     1.0  0.03915  0.44627  0.64540  1.0000
  C   C1367     1.0  0.04267  0.44491  0.65838  1.0000
  H   H1088     1.0  0.01886  0.45705  0.58433  1.0000
  C   C1368     1.0  0.14643  0.25235  0.49949  1.0000
  H   H1089     1.0  0.04040  0.43683  0.64166  1.0000
  H   H1090     1.0  0.04644  0.43441  0.66464  1.0000
  C   C1369     1.0  0.01136  0.40315  0.55211  1.0000
  C   C1370     1.0  0.01567  0.39754  0.56519  1.0000
  C   C1371     1.0  0.01530  0.40682  0.57372  1.0000
  C   C1372     1.0  0.01062  0.42170  0.56913  1.0000
  H   H1091     1.0  0.01044  0.44029  0.49866  1.0000
  H   H1092     1.0  0.15109  0.25521  0.48815  1.0000
  H   H1093     1.0  0.01935  0.38611  0.56871  1.0000
  C   C1373     1.0  0.06891  0.48875  0.60348  1.0000
  H   H1094     1.0  0.02608  0.38974  0.50470  1.0000
  C   C1374     1.0  0.01690  0.39563  0.70550  1.0000
  C   C1375     1.0  0.04812  0.32120  0.59023  1.0000
  C   C1376     1.0  0.05798  0.30981  0.59666  1.0000
  C   C1377     1.0  0.05282  0.29902  0.60783  1.0000
  C   C1378     1.0  0.03783  0.30009  0.61296  1.0000
  C   C1379     1.0  0.02810  0.31156  0.60663  1.0000
  C   C1380     1.0  0.03323  0.32196  0.59516  1.0000
  H   H1095     1.0  0.06952  0.30920  0.59288  1.0000
  H   H1096     1.0  0.06038  0.29005  0.61261  1.0000
  H   H1097     1.0  0.01654  0.31248  0.61068  1.0000
  H   H1098     1.0  0.02556  0.33072  0.59030  1.0000
  C   C1381     1.0  0.02213  0.38239  0.65055  1.0000
  C   C1382     1.0  0.14624  0.42098  0.72166  1.0000
  C   C1383     1.0  0.10336  0.44489  0.72298  1.0000
  H   H1099     1.0  0.00266  0.43861  0.55252  1.0000
  S   S188      1.0  0.01126  0.26979  0.48778  1.0000
  Fe  Fe92      1.0  0.08812  0.33447  0.70070  1.0000
  C   C1384     1.0  0.01466  0.35425  0.70538  1.0000
  H   H1100     1.0  0.15014  0.47368  0.69785  1.0000
  C   C1385     1.0  0.09348  0.32521  0.62089  1.0000
  C   C1386     1.0  0.07437  0.48828  0.50322  1.0000
  C   C1387     1.0  0.04028  0.48470  0.48882  1.0000
  C   C1388     1.0  0.11836  0.48898  0.71282  1.0000
  C   C1389     1.0  0.09986  0.28106  0.64926  1.0000
  C   C1390     1.0  0.02860  0.41234  0.68613  1.0000
  H   H1101     1.0  0.11473  0.26564  0.66126  1.0000
  C   C1391     1.0  0.11511  0.44377  0.68579  1.0000
  C   C1392     1.0  0.11920  0.36812  0.73072  1.0000
  H   H1102     1.0  0.04726  0.37149  0.57426  1.0000
  C   C1393     1.0  0.16138  0.48767  0.70126  1.0000
  C   C1394     1.0  0.09685  0.39800  0.70998  1.0000
  H   H1103     1.0  0.00425  0.25505  0.53220  1.0000
  H   H1104     1.0  0.01207  0.45605  0.66254  1.0000
  C   C1395     1.0  0.10232  0.27146  0.57500  1.0000
  H   H1105     1.0  0.10390  0.45186  0.71252  1.0000
  C   C1396     1.0  0.12916  0.46079  0.67003  1.0000
  C   C1397     1.0  0.11519  0.41182  0.70487  1.0000
  H   H1106     1.0  0.02316  0.29485  0.50207  1.0000
  H   H1107     1.0  0.15175  0.47086  0.73239  1.0000
  H   H1108     1.0  0.00726  0.27402  0.64537  1.0000
  C   C1398     1.0  0.02711  0.26938  0.53484  1.0000
  C   C1399     1.0  0.01202  0.36728  0.48749  1.0000
  H   H1109     1.0  0.02958  0.48259  0.63571  1.0000
  C   C1400     1.0  0.06735  0.29958  0.68348  1.0000
  C   C1401     1.0  0.09505  0.45044  0.73487  1.0000
  Fe  Fe93      1.0  0.04750  0.27200  0.63874  1.0000
  H   H1110     1.0  0.02769  0.30109  0.70563  1.0000
  C   C1402     1.0  0.11422  0.34121  0.62835  1.0000
  C   C1403     1.0  0.04287  0.42483  0.51743  1.0000
  C   C1404     1.0  0.02350  0.28945  0.58711  1.0000
  C   C1405     1.0  0.01255  0.27259  0.72443  1.0000
  H   H1111     1.0  0.03334  0.42935  0.69207  1.0000
  H   H1112     1.0  0.13040  0.35399  0.62029  1.0000
  H   H1113     1.0  0.00805  0.32437  0.53831  1.0000
  C   C1406     1.0  0.11690  0.45497  0.67379  1.0000
  H   H1114     1.0  0.06191  0.47357  0.53811  1.0000
  H   H1115     1.0  0.04752  0.27958  0.72472  1.0000
  Fe  Fe94      1.0  0.04989  0.47459  0.68207  1.0000
  C   C1407     1.0  0.01828  0.33449  0.69415  1.0000
  C   C1408     1.0  0.00271  0.30875  0.53066  1.0000
  C   C1409     1.0  0.08136  0.33111  0.60123  1.0000
  C   C1410     1.0  0.04320  0.32863  0.62705  1.0000
  H   H1116     1.0  0.09606  0.27294  0.64699  1.0000
  C   C1411     1.0  0.02941  0.35068  0.70573  1.0000
  H   H1117     1.0  0.11394  0.28606  0.55871  1.0000
  C   C1412     1.0  0.03460  0.41584  0.51675  1.0000
  H   H1118     1.0  0.00857  0.25815  0.61496  1.0000
  S   S189      1.0  0.00457  0.35474  0.54394  1.0000
  P   P45       1.0  0.02312  0.46426  0.49719  1.0000
  C   C1413     1.0  0.02442  0.31835  0.52038  1.0000
  C   C1414     1.0  0.11273  0.34589  0.65505  1.0000
  H   H1119     1.0  0.09900  0.40879  0.72468  1.0000
  H   H1120     1.0  0.01588  0.45403  0.52869  1.0000
  H   H1121     1.0  0.11480  0.33973  0.61790  1.0000
  C   C1415     1.0  0.10461  0.33531  0.64044  1.0000
  C   C1416     1.0  0.10386  0.33780  0.65379  1.0000
  P   P46       1.0  0.09291  0.32486  0.63920  1.0000
  H   H1122     1.0  0.19677  0.42391  0.73263  1.0000
  C   C1417     1.0  0.09897  0.30617  0.64733  1.0000
  Fe  Fe95      1.0  0.02658  0.34023  0.53897  1.0000
  C   C1418     1.0  0.04725  0.28997  0.72633  1.0000
  C   C1419     1.0  0.03713  0.36484  0.59638  1.0000
  C   C1420     1.0  0.11532  0.28731  0.66039  1.0000
  C   C1421     1.0  0.10956  0.30186  0.65553  1.0000
  C   C1422     1.0  0.08116  0.33171  0.61508  1.0000
  H   H1123     1.0  0.07798  0.46679  0.51605  1.0000
  C   C1423     1.0  0.01282  0.26683  0.60720  1.0000
  C   C1424     1.0  0.02377  0.26918  0.55977  1.0000
  Fe  Fe96      1.0  0.06312  0.26508  0.66298  1.0000
  C   C1425     1.0  0.07463  0.33263  0.64765  1.0000
  C   C1426     1.0  0.07046  0.34743  0.64727  1.0000
  C   C1427     1.0  0.05627  0.35357  0.65357  1.0000
  C   C1428     1.0  0.04609  0.34508  0.66009  1.0000
  C   C1429     1.0  0.05010  0.33044  0.66034  1.0000
  C   C1430     1.0  0.06428  0.32422  0.65408  1.0000
  H   H1124     1.0  0.11194  0.34789  0.66536  1.0000
  H   H1125     1.0  0.02594  0.36428  0.51601  1.0000
  C   C1431     1.0  0.11427  0.39963  0.68737  1.0000
  C   C1432     1.0  0.02132  0.33008  0.64574  1.0000
  H   H1126     1.0  0.09639  0.33345  0.66326  1.0000
  C   C1433     1.0  0.03954  0.47093  0.48853  1.0000
  C   C1434     1.0  0.02608  0.31570  0.65209  1.0000
  H   H1127     1.0  0.00560  0.30320  0.59835  1.0000
  H   H1128     1.0  0.12330  0.28409  0.66690  1.0000
  H   H1129     1.0  0.11349  0.30957  0.65826  1.0000
  H   H1130     1.0  0.07131  0.33699  0.62133  1.0000
  H   H1131     1.0  0.07358  0.24806  0.49883  1.0000
  C   C1435     1.0  0.11155  0.27551  0.56183  1.0000
  C   C1436     1.0  0.06305  0.48170  0.52831  1.0000
  H   H1132     1.0  0.07810  0.35429  0.64212  1.0000
  H   H1133     1.0  0.05317  0.36492  0.65338  1.0000
  H   H1134     1.0  0.03508  0.34978  0.66503  1.0000
  H   H1135     1.0  0.04220  0.32388  0.66555  1.0000
  H   H1136     1.0  0.06710  0.31286  0.65438  1.0000
  H   H1137     1.0  0.01644  0.41447  0.50973  1.0000
  C   C1437     1.0  0.02500  0.26399  0.59628  1.0000
  H   H1138     1.0  0.11548  0.31254  0.61709  1.0000
  H   H1139     1.0  0.08034  0.49111  0.57355  1.0000
  C   C1438     1.0  0.15897  0.47429  0.70198  1.0000
  H   H1140     1.0  0.02825  0.38974  0.65069  1.0000
  H   H1141     1.0  0.01090  0.33575  0.65069  1.0000
  C   C1439     1.0  0.00881  0.35786  0.61766  1.0000
  C   C1440     1.0  0.03291  0.33072  0.69492  1.0000
  C   C1441     1.0  0.13975  0.45529  0.67816  1.0000
  C   C1442     1.0  0.02864  0.41998  0.69586  1.0000
  C   C1443     1.0  0.09411  0.29561  0.64429  1.0000
  H   H1142     1.0  0.05725  0.26115  0.59727  1.0000
  C   C1444     1.0  0.06282  0.36610  0.60218  1.0000
  H   H1143     1.0  0.04984  0.33586  0.70090  1.0000
  C   C1445     1.0  0.16650  0.40049  0.72304  1.0000
  H   H1144     1.0  0.03998  0.32145  0.69119  1.0000
  C   C1446     1.0  0.02357  0.29153  0.70789  1.0000
  S   S190      1.0  0.03627  0.36080  0.71304  1.0000
  C   C1447     1.0  0.11048  0.27692  0.65725  1.0000
  S   S191      1.0  0.07374  0.34996  0.68674  1.0000
  H   H1145     1.0  0.11846  0.39684  0.67706  1.0000
  S   S192      1.0  0.02510  0.32698  0.56122  1.0000
  C   C1448     1.0  0.10233  0.39457  0.69658  1.0000
  C   C1449     1.0  0.17885  0.46257  0.71388  1.0000
  C   C1450     1.0  0.09559  0.41767  0.61052  1.0000
  C   C1451     1.0  0.08080  0.41875  0.61188  1.0000
  C   C1452     1.0  0.07069  0.42313  0.62364  1.0000
  C   C1453     1.0  0.07534  0.42625  0.63416  1.0000
  C   C1454     1.0  0.09017  0.42490  0.63306  1.0000
  C   C1455     1.0  0.10025  0.42094  0.62096  1.0000
  P   P47       1.0  0.09590  0.43068  0.64572  1.0000
  C   C1456     1.0  0.11404  0.42110  0.64752  1.0000
  C   C1457     1.0  0.09443  0.44964  0.63876  1.0000
  C   C1458     1.0  0.10616  0.45484  0.62895  1.0000
  H   H1146     1.0  0.00937  0.29473  0.65297  1.0000
  H   H1147     1.0  0.01046  0.25650  0.71506  1.0000
  C   C1459     1.0  0.07950  0.47382  0.63574  1.0000
  C   C1460     1.0  0.08103  0.45920  0.64197  1.0000
  C   C1461     1.0  0.12310  0.42762  0.65099  1.0000
  C   C1462     1.0  0.13707  0.42004  0.65268  1.0000
  C   C1463     1.0  0.14196  0.40583  0.65117  1.0000
  C   C1464     1.0  0.13282  0.39914  0.64813  1.0000
  C   C1465     1.0  0.11885  0.40670  0.64646  1.0000
  C   C1466     1.0  0.08491  0.42720  0.66357  1.0000
  C   C1467     1.0  0.07809  0.41561  0.66831  1.0000
  C   C1468     1.0  0.07002  0.41258  0.68231  1.0000
  C   C1469     1.0  0.06898  0.42095  0.69179  1.0000
  C   C1470     1.0  0.07604  0.43234  0.68725  1.0000
  C   C1471     1.0  0.08397  0.43547  0.67318  1.0000
  H   H1148     1.0  0.10340  0.41431  0.60136  1.0000
  H   H1149     1.0  0.07714  0.41601  0.60395  1.0000
  H   H1150     1.0  0.05925  0.42388  0.62467  1.0000
  H   H1151     1.0  0.06738  0.42975  0.64311  1.0000
  H   H1152     1.0  0.11169  0.42045  0.61952  1.0000
  H   H1153     1.0  0.11638  0.44758  0.62580  1.0000
  H   H1154     1.0  0.12846  0.48459  0.71632  1.0000
  S   S193      1.0  0.09052  0.36521  0.73530  1.0000
  H   H1155     1.0  0.00669  0.26933  0.55020  1.0000
  H   H1156     1.0  0.07168  0.45536  0.64909  1.0000
  H   H1157     1.0  0.11936  0.43851  0.65247  1.0000
  H   H1158     1.0  0.14404  0.42517  0.65528  1.0000
  H   H1159     1.0  0.15274  0.39992  0.65257  1.0000
  H   H1160     1.0  0.13641  0.38801  0.64733  1.0000
  H   H1161     1.0  0.11174  0.40121  0.64455  1.0000
  H   H1162     1.0  0.07906  0.40888  0.66119  1.0000
  H   H1163     1.0  0.06463  0.40371  0.68578  1.0000
  H   H1164     1.0  0.06266  0.41866  0.70261  1.0000
  H   H1165     1.0  0.07505  0.43899  0.69451  1.0000
  H   H1166     1.0  0.08923  0.44442  0.66980  1.0000
  H   H1167     1.0  0.02998  0.25304  0.59548  1.0000
  C   C1472     1.0  0.11323  0.48098  0.70664  1.0000
  C   C1473     1.0  0.03047  0.27528  0.58621  1.0000
  C   C1474     1.0  0.11815  0.26576  0.55295  1.0000
  H   H1168     1.0  0.19002  0.47636  0.71757  1.0000
  H   H1169     1.0  0.05675  0.30408  0.68108  1.0000
  C   C1475     1.0  0.13804  0.44401  0.69013  1.0000
  C   C1476     1.0  0.07362  0.28510  0.68328  1.0000
  S   S194      1.0  0.04069  0.26412  0.66231  1.0000
  C   C1477     1.0  0.07443  0.30805  0.68725  1.0000
  H   H1170     1.0  0.02314  0.39395  0.68349  1.0000
  Fe  Fe97      1.0  0.00475  0.41926  0.63273  1.0000
  S   S195      1.0  0.01187  0.32425  0.68650  1.0000
  C   C1478     1.0  0.02276  0.41549  0.71042  1.0000
  S   S196      1.0  0.05565  0.25024  0.63399  1.0000
  C   C1479     1.0  0.06122  0.36975  0.58810  1.0000
  Fe  Fe98      1.0  0.08738  0.35733  0.71703  1.0000
  S   S197      1.0  0.06916  0.27465  0.63941  1.0000
  H   H1171     1.0  0.04591  0.44636  0.51205  1.0000
  H   H1172     1.0  0.02736  0.29835  0.57940  1.0000
  S   S198      1.0  0.07241  0.37400  0.70415  1.0000
  C   C1480     1.0  0.04843  0.36899  0.58520  1.0000
  C   C1481     1.0  0.02226  0.38353  0.49979  1.0000
  H   H1173     1.0  0.09742  0.38792  0.69332  1.0000
  H   H1174     1.0  0.17024  0.48974  0.73538  1.0000
  H   H1175     1.0  0.09389  0.32346  0.58241  1.0000
  H   H1176     1.0  0.00754  0.36331  0.70944  1.0000
  C   C1482     1.0  0.03963  0.43946  0.51113  1.0000
  H   H1177     1.0  0.06940  0.31918  0.68730  1.0000
  C   C1483     1.0  0.03779  0.38148  0.73520  1.0000
  Fe  Fe99      1.0  0.06071  0.35676  0.70698  1.0000
  H   H1178     1.0  0.03555  0.37748  0.63105  1.0000
  H   H1179     1.0  0.04328  0.29681  0.65126  1.0000
  H   H1180     1.0  0.05850  0.30827  0.62900  1.0000
  C   C1484     1.0  0.05680  0.48338  0.60494  1.0000
  H   H1181     1.0  0.05525  0.31685  0.53879  1.0000
  S   S199      1.0  0.06903  0.48350  0.66843  1.0000
  C   C1485     1.0  0.02673  0.47596  0.58140  1.0000
  Fe  Fe100     1.0  0.05062  0.24239  0.65763  1.0000
  C   C1486     1.0  0.03957  0.30791  0.64620  1.0000
  H   H1182     1.0  0.06281  0.48483  0.56432  1.0000
  H   H1183     1.0  0.02748  0.36417  0.59371  1.0000
  H   H1184     1.0  0.02368  0.45807  0.55850  1.0000
  C   C1487     1.0  0.02305  0.42145  0.50982  1.0000
  C   C1488     1.0  0.11514  0.25204  0.55701  1.0000
  P   P48       1.0  0.12312  0.42368  0.70955  1.0000
  S   S200      1.0  0.07433  0.34053  0.72128  1.0000
  C   C1489     1.0  0.02482  0.28537  0.69657  1.0000
  H   H1185     1.0  0.11366  0.47356  0.61533  1.0000
  S   S201      1.0  0.01171  0.39223  0.54079  1.0000
  C   C1490     1.0  0.16068  0.39409  0.71585  1.0000
  H   H1186     1.0  0.14302  0.39568  0.70655  1.0000
  H   H1187     1.0  0.20287  0.40269  0.72196  1.0000
  H   H1188     1.0  0.02018  0.24451  0.65040  1.0000
  C   C1491     1.0  0.05161  0.36175  0.61338  1.0000
  H   H1189     1.0  0.05800  0.47211  0.60544  1.0000
  C   C1492     1.0  0.10618  0.31739  0.59880  1.0000
  C   C1493     1.0  0.02865  0.31004  0.51013  1.0000
  C   C1494     1.0  0.00913  0.34625  0.69951  1.0000
  H   H1190     1.0  0.07175  0.33604  0.59683  1.0000
  H   H1191     1.0  0.02311  0.42145  0.71778  1.0000
  C   C1495     1.0  0.14758  0.40107  0.71162  1.0000
  H   H1192     1.0  0.05867  0.27016  0.54179  1.0000
  C   C1496     1.0  0.10331  0.40649  0.71419  1.0000
  H   H1193     1.0  0.11945  0.47042  0.70529  1.0000
  C   C1497     1.0  0.04814  0.31439  0.63370  1.0000
  C   C1498     1.0  0.02008  0.27276  0.69916  1.0000
  H   H1194     1.0  0.12900  0.35813  0.64403  1.0000
  S   S202      1.0  0.01431  0.35728  0.57200  1.0000
  H   H1195     1.0  0.09005  0.49024  0.62132  1.0000
  S   S203      1.0  0.06308  0.27395  0.68178  1.0000
  C   C1499     1.0  0.03851  0.33890  0.70046  1.0000
  H   H1196     1.0  0.05315  0.35875  0.62420  1.0000
  H   H1197     1.0  0.06989  0.37311  0.57943  1.0000
  C   C1500     1.0  0.01825  0.36587  0.63890  1.0000
  C   C1501     1.0  0.02285  0.40010  0.69098  1.0000
  C   C1502     1.0  0.02996  0.33679  0.63326  1.0000
  C   C1503     1.0  0.01244  0.47299  0.51168  1.0000
  H   H1198     1.0  0.07267  0.36680  0.60449  1.0000
  P   P49       1.0  0.02409  0.35557  0.62520  1.0000
  H   H1199     1.0  0.10841  0.45965  0.66784  1.0000
  S   S204      1.0  0.05441  0.47429  0.70281  1.0000
  H   H1200     1.0  0.00654  0.38607  0.66980  1.0000
  C   C1504     1.0  0.01748  0.28519  0.72194  1.0000
  H   H1201     1.0  0.14065  0.43130  0.72421  1.0000
  H   H1202     1.0  0.01865  0.40249  0.58378  1.0000
  C   C1505     1.0  0.09943  0.25778  0.57918  1.0000
  H   H1203     1.0  0.04853  0.27026  0.52186  1.0000
  C   C1506     1.0  0.12567  0.43819  0.69407  1.0000
  C   C1507     1.0  0.01117  0.29224  0.59791  1.0000
  H   H1204     1.0  0.05158  0.42048  0.52312  1.0000
  H   H1205     1.0  0.14634  0.44002  0.69628  1.0000
  C   C1508     1.0  0.03850  0.36143  0.61064  1.0000
  Fe  Fe101     1.0  0.07218  0.48525  0.68915  1.0000
  C   C1509     1.0  0.02629  0.37525  0.63938  1.0000
  H   H1206     1.0  0.00242  0.31567  0.71673  1.0000
  C   C1510     1.0  0.12762  0.25729  0.52029  1.0000
  C   C1511     1.0  0.09132  0.47896  0.62630  1.0000
  C   C1512     1.0  0.00994  0.38025  0.66137  1.0000
  C   C1513     1.0  0.14026  0.41459  0.71451  1.0000
  H   H1207     1.0  0.01945  0.31069  0.66182  1.0000
  C   C1514     1.0  0.01970  0.43609  0.50360  1.0000
  H   H1208     1.0  0.08601  0.29860  0.63795  1.0000
  C   C1515     1.0  0.01098  0.46533  0.52598  1.0000
  H   H1209     1.0  0.09149  0.26769  0.68815  1.0000
  H   H1210     1.0  0.06791  0.27912  0.58050  1.0000
  H   H1211     1.0  0.11748  0.26389  0.52479  1.0000
  H   H1212     1.0  0.03395  0.48809  0.60671  1.0000
  H   H1213     1.0  0.13026  0.46980  0.66101  1.0000
  H   H1214     1.0  0.07996  0.29943  0.57116  1.0000
  C   C1516     1.0  0.00555  0.48758  0.50877  1.0000
  C   C1517     1.0  0.06122  0.25282  0.59121  1.0000
  C   C1518     1.0  0.11122  0.43063  0.72469  1.0000
  C   C1519     1.0  0.09387  0.32397  0.59309  1.0000
  H   H1215     1.0  0.04966  0.33313  0.61697  1.0000
  C   C1520     1.0  0.01979  0.30129  0.50997  1.0000
  H   H1216     1.0  0.01329  0.33570  0.61655  1.0000
  H   H1217     1.0  0.12992  0.41210  0.68417  1.0000
  H   H1218     1.0  0.09763  0.27876  0.58217  1.0000
  H   H1219     1.0  0.06908  0.48117  0.63813  1.0000
  C   C1521     1.0  0.10013  0.48667  0.70209  1.0000
  H   H1220     1.0  0.04248  0.29713  0.54820  1.0000
  C   C1522     1.0  0.12070  0.40821  0.69147  1.0000
  C   C1523     1.0  0.16770  0.46174  0.70828  1.0000
  H   H1221     1.0  0.01678  0.35011  0.50541  1.0000
  C   C1524     1.0  0.02350  0.46559  0.57666  1.0000
  C   C1525     1.0  0.04174  0.26956  0.53252  1.0000
  C   C1526     1.0  0.12308  0.34934  0.62965  1.0000
  C   C1527     1.0  0.03839  0.26966  0.55748  1.0000
  C   C1528     1.0  0.04742  0.26958  0.54382  1.0000
  P   P50       1.0  0.04546  0.27140  0.57155  1.0000
  H   H1222     1.0  0.02984  0.29021  0.68580  1.0000
  H   H1223     1.0  0.11582  0.31168  0.59255  1.0000
  H   H1224     1.0  0.01454  0.45690  0.73202  1.0000
  H   H1225     1.0  0.03315  0.41578  0.67485  1.0000
  H   H1226     1.0  0.07961  0.48169  0.60259  1.0000
  H   H1227     1.0  0.10527  0.43976  0.68886  1.0000
  C   C1529     1.0  0.05468  0.28611  0.56473  1.0000
  C   C1530     1.0  0.05108  0.29703  0.55302  1.0000
  C   C1531     1.0  0.05824  0.30836  0.54766  1.0000
  C   C1532     1.0  0.06871  0.30914  0.55414  1.0000
  C   C1533     1.0  0.07222  0.29848  0.56587  1.0000
  C   C1534     1.0  0.06525  0.28700  0.57118  1.0000
  C   C1535     1.0  0.00376  0.28687  0.66057  1.0000
  C   C1536     1.0  0.06020  0.29465  0.72255  1.0000
  C   C1537     1.0  0.02621  0.46622  0.56204  1.0000
  H   H1228     1.0  0.02457  0.47541  0.59275  1.0000
  C   C1538     1.0  0.02808  0.44517  0.50409  1.0000
  C   C1539     1.0  0.06212  0.24352  0.57101  1.0000
  H   H1229     1.0  0.08164  0.48532  0.49362  1.0000
  H   H1230     1.0  0.17628  0.39479  0.72687  1.0000
  H   H1231     1.0  0.03637  0.48021  0.65843  1.0000
  C   C1540     1.0  0.10463  0.46950  0.62288  1.0000
  H   H1232     1.0  0.16560  0.45138  0.70920  1.0000
  C   C1541     1.0  0.03225  0.47721  0.55212  1.0000
  C   C1542     1.0  0.13420  0.24468  0.52878  1.0000
  H   H1233     1.0  0.01645  0.26934  0.57012  1.0000
  H   H1234     1.0  0.02137  0.26785  0.69039  1.0000
  H   H1235     1.0  0.08769  0.39389  0.71717  1.0000
  C   C1543     1.0  0.01700  0.36114  0.50015  1.0000
  H   H1236     1.0  0.03687  0.40456  0.52197  1.0000
  Fe  Fe102     1.0  0.00406  0.34253  0.56662  1.0000
  C   C1544     1.0  0.00559  0.46481  0.72818  1.0000
  C   C1545     1.0  0.01390  0.26640  0.71307  1.0000
  H   H1237     1.0  0.03405  0.47767  0.54083  1.0000
  H   H1238     1.0  0.09384  0.24445  0.54835  1.0000
  C   C1546     1.0  0.00679  0.30065  0.52024  1.0000
  H   H1239     1.0  0.09271  0.25449  0.58963  1.0000
  C   C1547     1.0  0.01816  0.26907  0.54847  1.0000
  C   C1548     1.0  0.00557  0.36434  0.64952  1.0000
  C   C1549     1.0  0.15932  0.41397  0.72588  1.0000
  H   H1240     1.0  0.00209  0.38076  0.61619  1.0000
  C   C1550     1.0  0.00583  0.28095  0.60794  1.0000
  H   H1241     1.0  0.02255  0.26999  0.52600  1.0000
  C   C1551     1.0  0.03400  0.31244  0.73307  1.0000
  H   H1242     1.0  0.12872  0.27093  0.49920  1.0000
  P   P51       1.0  0.00939  0.39726  0.73421  1.0000
  H   H1243     1.0  0.00203  0.31580  0.63634  1.0000
  H   H1244     1.0  0.16599  0.38343  0.71410  1.0000
  C   C1552     1.0  0.00661  0.34628  0.61390  1.0000
  C   C1553     1.0  0.13384  0.26120  0.50572  1.0000
  C   C1554     1.0  0.05739  0.25484  0.57817  1.0000
  C   C1555     1.0  0.00504  0.46749  0.71386  1.0000
  S   S205      1.0  0.09428  0.47660  0.69395  1.0000
  C   C1556     1.0  0.03599  0.48740  0.55683  1.0000
  H   H1245     1.0  0.12203  0.36227  0.72236  1.0000
  C   C1557     1.0  0.01142  0.31777  0.53058  1.0000
  H   H1246     1.0  0.00802  0.26725  0.73507  1.0000
  C   C1558     1.0  0.06010  0.30816  0.72408  1.0000
  C   C1559     1.0  0.07228  0.47785  0.51586  1.0000
  C   C1560     1.0  0.20235  0.40122  0.73322  1.0000
  H   H1247     1.0  0.07030  0.28795  0.71806  1.0000
  H   H1248     1.0  0.03341  0.34028  0.48697  1.0000
  H   H1249     1.0  0.05902  0.24459  0.56118  1.0000
  C   C1561     1.0  0.18134  0.47593  0.71313  1.0000
  C   C1562     1.0  0.06417  0.24408  0.50563  1.0000
  Fe  Fe103     1.0  0.07689  0.25174  0.63678  1.0000
  C   C1563     1.0  0.01748  0.38976  0.48708  1.0000
  C   C1564     1.0  0.00262  0.27515  0.65630  1.0000
  H   H1250     1.0  0.18534  0.45285  0.71911  1.0000
  H   H1251     1.0  0.01364  0.46182  0.70659  1.0000
  C   C1565     1.0  0.17263  0.48861  0.70682  1.0000
  H   H1252     1.0  0.00872  0.45093  0.68872  1.0000
  C   C1566     1.0  0.03279  0.48694  0.57154  1.0000
  S   S206      1.0  0.00267  0.44030  0.61692  1.0000
  C   C1567     1.0  0.05022  0.25163  0.50398  1.0000
  H   H1253     1.0  0.02747  0.25245  0.51100  1.0000
  H   H1254     1.0  0.07016  0.31184  0.72078  1.0000
  H   H1255     1.0  0.14128  0.36951  0.72863  1.0000
  C   C1568     1.0  0.00673  0.41799  0.54764  1.0000
  H   H1256     1.0  0.25166  0.35114  0.73505  1.0000
  H   H1257     1.0  0.00332  0.42242  0.53764  1.0000
  C   C1569     1.0  0.00637  0.42717  0.55608  1.0000
  H   H1258     1.0  0.04875  0.26152  0.49592  1.0000
  C   C1570     1.0  0.03406  0.29875  0.73183  1.0000
  H   H1259     1.0  0.08942  0.46162  0.73338  1.0000
  C   C1571     1.0  0.00316  0.45137  0.66936  1.0000
  C   C1572     1.0  0.04702  0.31705  0.72934  1.0000
  H   H1260     1.0  0.04690  0.32776  0.72997  1.0000
  C   C1573     1.0  0.00297  0.47223  0.53708  1.0000
  H   H1261     1.0  0.01045  0.36808  0.73317  1.0000
  H   H1262     1.0  0.01607  0.24579  0.68292  1.0000
  C   C1574     1.0  0.03810  0.24638  0.51259  1.0000
  C   C1575     1.0  0.13011  0.37224  0.73432  1.0000
  S   S207      1.0  0.07259  0.24222  0.66041  1.0000
  S   S208      1.0  0.41444  0.26753  0.93521  1.0000
  H   H1263     1.0  0.23223  0.48186  0.96994  1.0000
  S   S209      1.0  0.43612  0.27748  0.89562  1.0000
  C   C1576     1.0  0.00922  0.42893  0.80540  1.0000
  S   S210      1.0  0.37349  0.26483  0.94016  1.0000
  Fe  Fe104     1.0  0.30162  0.33823  0.95527  1.0000
  S   S211      1.0  0.32482  0.33880  0.95282  1.0000
  Fe  Fe105     1.0  0.29754  0.36203  0.92907  1.0000
  S   S212      1.0  0.32032  0.36502  0.92446  1.0000
  S   S213      1.0  0.27969  0.37692  0.91857  1.0000
  Fe  Fe106     1.0  0.32643  0.34082  0.92949  1.0000
  S   S214      1.0  0.34575  0.32967  0.91492  1.0000
  Fe  Fe107     1.0  0.31679  0.36275  0.94804  1.0000
  S   S215      1.0  0.32102  0.37657  0.96011  1.0000
  S   S216      1.0  0.30378  0.33812  0.93236  1.0000
  S   S217      1.0  0.29348  0.36186  0.95227  1.0000
  H   H1264     1.0  0.12386  0.45918  0.78670  1.0000
  S   S218      1.0  0.47791  0.30797  0.90823  1.0000
  S   S219      1.0  0.39385  0.43092  0.93423  1.0000
  H   H1265     1.0  0.45352  0.29704  0.87783  1.0000
  Fe  Fe108     1.0  0.37306  0.42334  0.94358  1.0000
  S   S220      1.0  0.35765  0.42422  0.93038  1.0000
  H   H1266     1.0  0.34567  0.46014  0.94899  1.0000
  Fe  Fe109     1.0  0.42614  0.26187  0.91414  1.0000
  H   H1267     1.0  0.38003  0.28048  0.83385  1.0000
  C   C1577     1.0  0.49885  0.33391  0.97021  1.0000
  C   C1578     1.0  0.01791  0.47130  0.76537  1.0000
  C   C1579     1.0  0.19802  0.41134  0.75374  1.0000
  H   H1268     1.0  0.20789  0.33738  0.76969  1.0000
  Fe  Fe110     1.0  0.14138  0.39844  0.76408  1.0000
  S   S221      1.0  0.13070  0.39682  0.78741  1.0000
  H   H1269     1.0  0.05256  0.35638  0.76127  1.0000
  H   H1270     1.0  0.03085  0.41750  0.88487  1.0000
  S   S222      1.0  0.14304  0.42503  0.78594  1.0000
  H   H1271     1.0  0.10836  0.45328  0.83193  1.0000
  Fe  Fe111     1.0  0.15110  0.40114  0.79004  1.0000
  S   S223      1.0  0.16087  0.39010  0.80957  1.0000
  Fe  Fe112     1.0  0.12387  0.42079  0.78120  1.0000
  S   S224      1.0  0.10091  0.43280  0.78788  1.0000
  C   C1580     1.0  0.37250  0.47613  0.92694  1.0000
  C   C1581     1.0  0.11039  0.42189  0.73849  1.0000
  C   C1582     1.0  0.32044  0.45477  0.93619  1.0000
  Fe  Fe113     1.0  0.24613  0.38705  0.85638  1.0000
  S   S225      1.0  0.22286  0.38889  0.85601  1.0000
  S   S226      1.0  0.26124  0.36744  0.86658  1.0000
  Fe  Fe114     1.0  0.24624  0.41785  0.84036  1.0000
  S   S227      1.0  0.22290  0.42274  0.83880  1.0000
  S   S228      1.0  0.26319  0.43121  0.83044  1.0000
  Fe  Fe115     1.0  0.21934  0.41012  0.86144  1.0000
  S   S229      1.0  0.19868  0.41669  0.87675  1.0000
  Fe  Fe116     1.0  0.22779  0.40130  0.83333  1.0000
  S   S230      1.0  0.22028  0.40075  0.81394  1.0000
  S   S231      1.0  0.24202  0.40743  0.86356  1.0000
  S   S232      1.0  0.25160  0.39729  0.83300  1.0000
  Fe  Fe117     1.0  0.17472  0.44222  0.94012  1.0000
  S   S233      1.0  0.16726  0.45820  0.92141  1.0000
  S   S234      1.0  0.19707  0.42790  0.93601  1.0000
  Fe  Fe118     1.0  0.14689  0.45236  0.96080  1.0000
  C   C1583     1.0  0.37017  0.48770  0.93320  1.0000
  Fe  Fe119     1.0  0.14578  0.45189  0.93082  1.0000
  H   H1272     1.0  0.18091  0.37125  0.79230  1.0000
  S   S235      1.0  0.15383  0.43471  0.94875  1.0000
  S   S236      1.0  0.16856  0.45825  0.95370  1.0000
  Fe  Fe120     1.0  0.07660  0.45380  0.85897  1.0000
  S   S237      1.0  0.06183  0.47037  0.84616  1.0000
  S   S238      1.0  0.08968  0.43312  0.85303  1.0000
  Fe  Fe121     1.0  0.06985  0.47058  0.88180  1.0000
  C   C1584     1.0  0.35792  0.27806  0.84218  1.0000
  S   S239      1.0  0.07399  0.47156  0.90255  1.0000
  Fe  Fe122     1.0  0.04630  0.47107  0.86725  1.0000
  S   S240      1.0  0.02313  0.47164  0.86794  1.0000
  C   C1585     1.0  0.00738  0.44271  0.90223  1.0000
  S   S241      1.0  0.06048  0.45327  0.87992  1.0000
  S   S242      1.0  0.08727  0.46959  0.86182  1.0000
  S   S243      1.0  0.02006  0.41920  0.84621  1.0000
  C   C1586     1.0  0.02251  0.45728  0.86142  1.0000
  C   C1587     1.0  0.03486  0.44629  0.85912  1.0000
  C   C1588     1.0  0.03419  0.43467  0.85425  1.0000
  C   C1589     1.0  0.02118  0.43406  0.85159  1.0000
  H   H1273     1.0  0.47434  0.26500  0.94447  1.0000
  C   C1590     1.0  0.01215  0.32723  0.76715  1.0000
  H   H1274     1.0  0.04488  0.44657  0.86136  1.0000
  H   H1275     1.0  0.04365  0.42601  0.85297  1.0000
  C   C1591     1.0  0.12676  0.37962  0.74537  1.0000
  H   H1276     1.0  0.36053  0.36478  0.98470  1.0000
  C   C1592     1.0  0.11994  0.45457  0.91094  1.0000
  C   C1593     1.0  0.11717  0.45360  0.89828  1.0000
  C   C1594     1.0  0.10329  0.45934  0.89531  1.0000
  C   C1595     1.0  0.09193  0.46569  0.90520  1.0000
  C   C1596     1.0  0.09474  0.46684  0.91777  1.0000
  C   C1597     1.0  0.10875  0.46140  0.92059  1.0000
  H   H1277     1.0  0.08600  0.47170  0.92548  1.0000
  H   H1278     1.0  0.11080  0.46208  0.93041  1.0000
  C   C1598     1.0  0.19904  0.41887  0.89336  1.0000
  C   C1599     1.0  0.18573  0.42267  0.90261  1.0000
  C   C1600     1.0  0.18530  0.42477  0.91592  1.0000
  C   C1601     1.0  0.19816  0.42323  0.92007  1.0000
  C   C1602     1.0  0.21158  0.41887  0.91107  1.0000
  C   C1603     1.0  0.21204  0.41679  0.89760  1.0000
  H   H1279     1.0  0.17565  0.42415  0.89944  1.0000
  H   H1280     1.0  0.17490  0.42769  0.92294  1.0000
  H   H1281     1.0  0.22155  0.41745  0.91435  1.0000
  H   H1282     1.0  0.22236  0.41365  0.89055  1.0000
  H   H1283     1.0  0.49004  0.28272  0.89022  1.0000
  C   C1604     1.0  0.25826  0.46055  0.85399  1.0000
  C   C1605     1.0  0.25534  0.45025  0.84857  1.0000
  C   C1606     1.0  0.26559  0.44451  0.83748  1.0000
  C   C1607     1.0  0.27858  0.44919  0.83180  1.0000
  C   C1608     1.0  0.28156  0.45920  0.83729  1.0000
  C   C1609     1.0  0.37794  0.24231  0.91498  1.0000
  H   H1284     1.0  0.24529  0.44668  0.85302  1.0000
  H   H1285     1.0  0.28651  0.44487  0.82322  1.0000
  H   H1286     1.0  0.49831  0.26896  0.93035  1.0000
  H   H1287     1.0  0.10126  0.45824  0.88568  1.0000
  C   C1610     1.0  0.21682  0.33287  0.93997  1.0000
  H   H1288     1.0  0.38105  0.29137  0.98569  1.0000
  C   C1611     1.0  0.17680  0.39403  0.81114  1.0000
  C   C1612     1.0  0.18460  0.40278  0.79990  1.0000
  C   C1613     1.0  0.19780  0.40485  0.80100  1.0000
  C   C1614     1.0  0.20296  0.39885  0.81363  1.0000
  C   C1615     1.0  0.19486  0.39053  0.82510  1.0000
  C   C1616     1.0  0.18196  0.38797  0.82378  1.0000
  H   H1289     1.0  0.18057  0.40775  0.79026  1.0000
  H   H1290     1.0  0.20407  0.41114  0.79201  1.0000
  H   H1291     1.0  0.19886  0.38559  0.83475  1.0000
  H   H1292     1.0  0.17602  0.38117  0.83254  1.0000
  H   H1293     1.0  0.04025  0.41307  0.81390  1.0000
  C   C1617     1.0  0.42816  0.24198  0.97817  1.0000
  C   C1618     1.0  0.02657  0.47534  0.75182  1.0000
  C   C1619     1.0  0.33287  0.46341  0.97650  1.0000
  H   H1294     1.0  0.15900  0.47073  0.78252  1.0000
  H   H1295     1.0  0.15201  0.45377  0.77279  1.0000
  C   C1620     1.0  0.09741  0.43254  0.80610  1.0000
  C   C1621     1.0  0.08447  0.44076  0.81263  1.0000
  C   C1622     1.0  0.08190  0.44092  0.82712  1.0000
  C   C1623     1.0  0.09219  0.43267  0.83511  1.0000
  C   C1624     1.0  0.10488  0.42407  0.82868  1.0000
  C   C1625     1.0  0.10752  0.42404  0.81419  1.0000
  H   H1296     1.0  0.07640  0.44686  0.80654  1.0000
  H   H1297     1.0  0.07188  0.44719  0.83213  1.0000
  H   H1298     1.0  0.11294  0.41781  0.83476  1.0000
  H   H1299     1.0  0.11746  0.41754  0.80928  1.0000
  C   C1626     1.0  0.43919  0.25710  0.86463  1.0000
  H   H1300     1.0  0.39594  0.29743  0.95361  1.0000
  C   C1627     1.0  0.00898  0.38724  0.80909  1.0000
  H   H1301     1.0  0.45987  0.25430  0.93536  1.0000
  H   H1302     1.0  0.03263  0.39661  0.77780  1.0000
  H   H1303     1.0  0.22763  0.36920  0.88436  1.0000
  C   C1628     1.0  0.49227  0.26422  0.92614  1.0000
  H   H1304     1.0  0.10943  0.38868  0.76114  1.0000
  C   C1629     1.0  0.28603  0.39029  0.83982  1.0000
  C   C1630     1.0  0.37328  0.26053  0.89377  1.0000
  H   H1305     1.0  0.09029  0.38144  0.75480  1.0000
  C   C1631     1.0  0.20584  0.48252  0.83167  1.0000
  H   H1306     1.0  0.48894  0.33328  0.96802  1.0000
  H   H1307     1.0  0.20940  0.34991  0.81850  1.0000
  C   C1632     1.0  0.24199  0.34823  0.74247  1.0000
  C   C1633     1.0  0.02079  0.42300  0.89078  1.0000
  C   C1634     1.0  0.16878  0.35846  0.76530  1.0000
  H   H1308     1.0  0.20058  0.47241  0.85394  1.0000
  C   C1635     1.0  0.18309  0.35997  0.76250  1.0000
  C   C1636     1.0  0.35003  0.47946  0.95119  1.0000
  H   H1309     1.0  0.43369  0.25258  0.88757  1.0000
  C   C1637     1.0  0.30318  0.47926  0.87287  1.0000
  H   H1310     1.0  0.10990  0.48937  0.93178  1.0000
  C   C1638     1.0  0.08096  0.35570  0.79749  1.0000
  H   H1311     1.0  0.04945  0.42073  0.83023  1.0000
  C   C1639     1.0  0.44224  0.35510  0.94512  1.0000
  C   C1640     1.0  0.43837  0.36933  0.93778  1.0000
  H   H1312     1.0  0.44903  0.34714  0.93929  1.0000
  H   H1313     1.0  0.44228  0.37226  0.92634  1.0000
  H   H1314     1.0  0.11666  0.41095  0.74008  1.0000
  C   C1641     1.0  0.33229  0.38883  0.95147  1.0000
  C   C1642     1.0  0.33736  0.39472  0.95977  1.0000
  C   C1643     1.0  0.34556  0.40523  0.95326  1.0000
  C   C1644     1.0  0.34838  0.41021  0.93842  1.0000
  C   C1645     1.0  0.34338  0.40427  0.93009  1.0000
  C   C1646     1.0  0.33562  0.39335  0.93660  1.0000
  H   H1315     1.0  0.33497  0.39113  0.97128  1.0000
  H   H1316     1.0  0.34940  0.40972  0.95978  1.0000
  H   H1317     1.0  0.34569  0.40797  0.91861  1.0000
  H   H1318     1.0  0.33215  0.38849  0.93016  1.0000
  C   C1647     1.0  0.27485  0.37354  0.90435  1.0000
  C   C1648     1.0  0.26154  0.38127  0.90091  1.0000
  C   C1649     1.0  0.25744  0.37948  0.88935  1.0000
  C   C1650     1.0  0.26641  0.36966  0.88124  1.0000
  C   C1651     1.0  0.27961  0.36159  0.88487  1.0000
  C   C1652     1.0  0.28391  0.36365  0.89632  1.0000
  H   H1319     1.0  0.25430  0.38873  0.90721  1.0000
  H   H1320     1.0  0.24711  0.38549  0.88698  1.0000
  H   H1321     1.0  0.28661  0.35393  0.87869  1.0000
  H   H1322     1.0  0.29421  0.35766  0.89890  1.0000
  C   C1653     1.0  0.44690  0.28642  0.89976  1.0000
  C   C1654     1.0  0.44815  0.28453  0.91380  1.0000
  C   C1655     1.0  0.45733  0.29142  0.91666  1.0000
  C   C1656     1.0  0.46533  0.30009  0.90547  1.0000
  C   C1657     1.0  0.46372  0.30225  0.89153  1.0000
  C   C1658     1.0  0.45456  0.29544  0.88867  1.0000
  H   H1323     1.0  0.44226  0.27759  0.92241  1.0000
  H   H1324     1.0  0.45846  0.28975  0.92745  1.0000
  H   H1325     1.0  0.46964  0.30919  0.88292  1.0000
  C   C1659     1.0  0.36592  0.28283  0.93301  1.0000
  C   C1660     1.0  0.37425  0.29136  0.92210  1.0000
  C   C1661     1.0  0.36786  0.30558  0.91629  1.0000
  C   C1662     1.0  0.35325  0.31150  0.92174  1.0000
  C   C1663     1.0  0.34497  0.30302  0.93284  1.0000
  C   C1664     1.0  0.35125  0.28867  0.93831  1.0000
  H   H1326     1.0  0.38565  0.28702  0.91821  1.0000
  H   H1327     1.0  0.37438  0.31215  0.90787  1.0000
  H   H1328     1.0  0.33372  0.30751  0.93717  1.0000
  H   H1329     1.0  0.34477  0.28213  0.94681  1.0000
  H   H1330     1.0  0.23414  0.38129  0.79359  1.0000
  C   C1665     1.0  0.34262  0.48824  0.97866  1.0000
  H   H1331     1.0  0.08182  0.46826  0.79183  1.0000
  C   C1666     1.0  0.01741  0.38615  0.81863  1.0000
  H   H1332     1.0  0.24632  0.40467  0.98376  1.0000
  C   C1667     1.0  0.22703  0.37445  0.79428  1.0000
  C   C1668     1.0  0.11731  0.45501  0.80938  1.0000
  H   H1333     1.0  0.08776  0.49017  0.80470  1.0000
  H   H1334     1.0  0.24233  0.34921  0.89836  1.0000
  H   H1335     1.0  0.02719  0.47050  0.74318  1.0000
  C   C1669     1.0  0.28510  0.31961  0.90078  1.0000
  C   C1670     1.0  0.23204  0.32841  0.93715  1.0000
  H   H1336     1.0  0.20109  0.35032  0.79730  1.0000
  H   H1337     1.0  0.07157  0.37195  0.80965  1.0000
  H   H1338     1.0  0.03902  0.47210  0.83317  1.0000
  C   C1671     1.0  0.48392  0.40157  0.97434  1.0000
  C   C1672     1.0  0.20684  0.47830  0.92326  1.0000
  Fe  Fe123     1.0  0.39781  0.25678  0.93389  1.0000
  H   H1339     1.0  0.01994  0.44315  0.80874  1.0000
  C   C1673     1.0  0.47867  0.26190  0.93426  1.0000
  C   C1674     1.0  0.00364  0.27444  0.76003  1.0000
  C   C1675     1.0  0.21303  0.35682  0.80834  1.0000
  C   C1676     1.0  0.07270  0.36917  0.79963  1.0000
  H   H1340     1.0  0.03029  0.43920  0.89264  1.0000
  P   P52       1.0  0.05501  0.39611  0.79185  1.0000
  C   C1677     1.0  0.06152  0.40229  0.80366  1.0000
  C   C1678     1.0  0.05601  0.40986  0.77561  1.0000
  C   C1679     1.0  0.04430  0.42171  0.77402  1.0000
  C   C1680     1.0  0.19797  0.48978  0.96467  1.0000
  C   C1681     1.0  0.18783  0.36406  0.77243  1.0000
  H   H1341     1.0  0.36438  0.26327  0.91550  1.0000
  C   C1682     1.0  0.06873  0.40924  0.76479  1.0000
  C   C1683     1.0  0.05181  0.41027  0.81338  1.0000
  C   C1684     1.0  0.05698  0.41467  0.82269  1.0000
  C   C1685     1.0  0.07184  0.41130  0.82230  1.0000
  C   C1686     1.0  0.08164  0.40405  0.81215  1.0000
  C   C1687     1.0  0.07653  0.39970  0.80274  1.0000
  C   C1688     1.0  0.03681  0.39316  0.79875  1.0000
  C   C1689     1.0  0.03137  0.38889  0.81350  1.0000
  H   H1342     1.0  0.48317  0.25112  0.86109  1.0000
  H   H1343     1.0  0.22312  0.46623  0.94624  1.0000
  H   H1344     1.0  0.03462  0.42269  0.78249  1.0000
  H   H1345     1.0  0.01575  0.34689  0.75231  1.0000
  C   C1690     1.0  0.17788  0.36709  0.78494  1.0000
  H   H1346     1.0  0.41743  0.38401  0.96578  1.0000
  C   C1691     1.0  0.39099  0.34731  0.97392  1.0000
  H   H1347     1.0  0.07577  0.41462  0.82966  1.0000
  H   H1348     1.0  0.28894  0.45579  0.92763  1.0000
  H   H1349     1.0  0.08432  0.39431  0.79478  1.0000
  H   H1350     1.0  0.03785  0.38763  0.82108  1.0000
  C   C1692     1.0  0.28601  0.32808  0.90932  1.0000
  C   C1693     1.0  0.25687  0.36305  0.95007  1.0000
  H   H1351     1.0  0.01025  0.33687  0.82710  1.0000
  H   H1352     1.0  0.27437  0.34155  0.92408  1.0000
  H   H1353     1.0  0.29648  0.32973  0.90917  1.0000
  H   H1354     1.0  0.29488  0.31464  0.89406  1.0000
  H   H1355     1.0  0.26035  0.37303  0.94758  1.0000
  C   C1694     1.0  0.00803  0.41819  0.89356  1.0000
  C   C1695     1.0  0.42937  0.32726  0.90263  1.0000
  C   C1696     1.0  0.44196  0.33163  0.90177  1.0000
  C   C1697     1.0  0.44514  0.33263  0.91415  1.0000
  C   C1698     1.0  0.43569  0.32941  0.92736  1.0000
  C   C1699     1.0  0.42277  0.32558  0.92822  1.0000
  C   C1700     1.0  0.41977  0.32423  0.91582  1.0000
  P   P53       1.0  0.41078  0.32169  0.94539  1.0000
  C   C1701     1.0  0.42026  0.30534  0.95526  1.0000
  C   C1702     1.0  0.40552  0.33671  0.95386  1.0000
  C   C1703     1.0  0.40734  0.35038  0.94582  1.0000
  C   C1704     1.0  0.40094  0.36238  0.95178  1.0000
  C   C1705     1.0  0.39278  0.36085  0.96580  1.0000
  H   H1356     1.0  0.05446  0.48991  0.79714  1.0000
  C   C1706     1.0  0.39725  0.33530  0.96792  1.0000
  C   C1707     1.0  0.42420  0.30496  0.96781  1.0000
  C   C1708     1.0  0.21289  0.49031  0.91908  1.0000
  H   H1357     1.0  0.20573  0.45074  0.95987  1.0000
  S   S244      1.0  0.46021  0.30129  0.95002  1.0000
  C   C1709     1.0  0.45819  0.36042  0.98342  1.0000
  C   C1710     1.0  0.39368  0.32003  0.94349  1.0000
  C   C1711     1.0  0.38895  0.30712  0.94910  1.0000
  C   C1712     1.0  0.01692  0.47792  0.77639  1.0000
  H   H1358     1.0  0.49735  0.37762  0.95904  1.0000
  C   C1713     1.0  0.37006  0.33195  0.93799  1.0000
  C   C1714     1.0  0.38426  0.33234  0.93753  1.0000
  H   H1359     1.0  0.42720  0.32598  0.89310  1.0000
  H   H1360     1.0  0.44954  0.33375  0.89161  1.0000
  H   H1361     1.0  0.45517  0.33550  0.91355  1.0000
  H   H1362     1.0  0.43841  0.32987  0.93695  1.0000
  H   H1363     1.0  0.41016  0.32071  0.91631  1.0000
  H   H1364     1.0  0.41330  0.35196  0.93482  1.0000
  H   H1365     1.0  0.40231  0.37292  0.94550  1.0000
  H   H1366     1.0  0.48072  0.40986  0.96543  1.0000
  H   H1367     1.0  0.44756  0.25923  0.84198  1.0000
  C   C1715     1.0  0.30429  0.46621  0.88287  1.0000
  H   H1368     1.0  0.38513  0.25745  0.96562  1.0000
  C   C1716     1.0  0.49148  0.37436  0.95330  1.0000
  S   S245      1.0  0.13737  0.44662  0.91445  1.0000
  C   C1717     1.0  0.15906  0.36114  0.77795  1.0000
  H   H1369     1.0  0.42248  0.29327  0.93960  1.0000
  H   H1370     1.0  0.26295  0.35554  0.97043  1.0000
  H   H1371     1.0  0.05089  0.45992  0.81308  1.0000
  C   C1718     1.0  0.11878  0.48128  0.76249  1.0000
  H   H1372     1.0  0.36266  0.34153  0.93374  1.0000
  H   H1373     1.0  0.38771  0.34239  0.93302  1.0000
  C   C1719     1.0  0.14180  0.48935  0.90490  1.0000
  C   C1720     1.0  0.01451  0.39107  0.79439  1.0000
  C   C1721     1.0  0.49770  0.26081  0.91265  1.0000
  C   C1722     1.0  0.19139  0.46666  0.97113  1.0000
  H   H1374     1.0  0.01520  0.41955  0.81160  1.0000
  C   C1723     1.0  0.36346  0.46638  0.93260  1.0000
  H   H1375     1.0  0.39519  0.32499  0.97404  1.0000
  C   C1724     1.0  0.30855  0.46016  0.92961  1.0000
  H   H1376     1.0  0.12577  0.44824  0.89082  1.0000
  C   C1725     1.0  0.49946  0.28198  0.88146  1.0000
  H   H1377     1.0  0.46905  0.24864  0.91137  1.0000
  H   H1378     1.0  0.42978  0.26585  0.86360  1.0000
  C   C1726     1.0  0.20392  0.46139  0.96166  1.0000
  C   C1727     1.0  0.22234  0.36552  0.80734  1.0000
  C   C1728     1.0  0.04440  0.36436  0.75621  1.0000
  H   H1379     1.0  0.14785  0.36042  0.77986  1.0000
  H   H1380     1.0  0.49291  0.25292  0.89681  1.0000
  H   H1381     1.0  0.21873  0.47503  0.76049  1.0000
  C   C1729     1.0  0.33031  0.38100  0.88907  1.0000
  C   C1730     1.0  0.33095  0.36715  0.88803  1.0000
  C   C1731     1.0  0.32256  0.36507  0.87995  1.0000
  C   C1732     1.0  0.31368  0.37682  0.87274  1.0000
  C   C1733     1.0  0.31311  0.39081  0.87357  1.0000
  C   C1734     1.0  0.32131  0.39276  0.88203  1.0000
  P   P54       1.0  0.30173  0.40626  0.86432  1.0000
  C   C1735     1.0  0.31102  0.42085  0.85827  1.0000
  C   C1736     1.0  0.29820  0.40252  0.84915  1.0000
  C   C1737     1.0  0.28905  0.39319  0.85139  1.0000
  C   C1738     1.0  0.30332  0.43498  0.85868  1.0000
  C   C1739     1.0  0.31066  0.44617  0.85377  1.0000
  C   C1740     1.0  0.32569  0.44338  0.84847  1.0000
  C   C1741     1.0  0.33342  0.42936  0.84797  1.0000
  C   C1742     1.0  0.32612  0.41814  0.85277  1.0000
  C   C1743     1.0  0.28440  0.41129  0.87604  1.0000
  C   C1744     1.0  0.28276  0.40735  0.89088  1.0000
  C   C1745     1.0  0.26921  0.41124  0.89980  1.0000
  C   C1746     1.0  0.25722  0.41901  0.89401  1.0000
  C   C1747     1.0  0.25880  0.42314  0.87926  1.0000
  C   C1748     1.0  0.27231  0.41921  0.87028  1.0000
  H   H1382     1.0  0.33667  0.38256  0.89553  1.0000
  H   H1383     1.0  0.33776  0.35800  0.89369  1.0000
  H   H1384     1.0  0.32284  0.35430  0.87939  1.0000
  H   H1385     1.0  0.30729  0.37484  0.86664  1.0000
  H   H1386     1.0  0.32077  0.40338  0.88319  1.0000
  H   H1387     1.0  0.28410  0.38824  0.86212  1.0000
  H   H1388     1.0  0.29164  0.43748  0.86256  1.0000
  H   H1389     1.0  0.30461  0.45707  0.85389  1.0000
  H   H1390     1.0  0.33130  0.45212  0.84465  1.0000
  H   H1391     1.0  0.34507  0.42719  0.84378  1.0000
  H   H1392     1.0  0.33223  0.40735  0.85212  1.0000
  H   H1393     1.0  0.29175  0.40088  0.89568  1.0000
  H   H1394     1.0  0.26793  0.40760  0.91122  1.0000
  H   H1395     1.0  0.24663  0.42148  0.90092  1.0000
  H   H1396     1.0  0.24946  0.42908  0.87478  1.0000
  H   H1397     1.0  0.27328  0.42218  0.85885  1.0000
  H   H1398     1.0  0.01323  0.48449  0.83638  1.0000
  C   C1749     1.0  0.10542  0.47567  0.79376  1.0000
  S   S246      1.0  0.13355  0.42232  0.75787  1.0000
  C   C1750     1.0  0.03959  0.46553  0.81425  1.0000
  H   H1399     1.0  0.38780  0.37021  0.97031  1.0000
  H   H1400     1.0  0.31677  0.46487  0.96490  1.0000
  H   H1401     1.0  0.20783  0.30059  0.95584  1.0000
  H   H1402     1.0  0.30220  0.47979  0.86221  1.0000
  C   C1751     1.0  0.03156  0.46568  0.80468  1.0000
  C   C1752     1.0  0.32513  0.27977  0.91364  1.0000
  C   C1753     1.0  0.43252  0.28026  0.95682  1.0000
  H   H1403     1.0  0.42173  0.31452  0.97191  1.0000
  C   C1754     1.0  0.11224  0.38305  0.75261  1.0000
  S   S247      1.0  0.18596  0.48183  0.77391  1.0000
  H   H1404     1.0  0.42463  0.35876  0.97871  1.0000
  S   S248      1.0  0.14113  0.38385  0.74996  1.0000
  C   C1755     1.0  0.25830  0.35324  0.96294  1.0000
  C   C1756     1.0  0.32255  0.44089  0.94466  1.0000
  H   H1405     1.0  0.00837  0.37985  0.76302  1.0000
  H   H1406     1.0  0.31493  0.42127  0.95268  1.0000
  C   C1757     1.0  0.00775  0.41324  0.75390  1.0000
  P   P55       1.0  0.10311  0.48596  0.77623  1.0000
  C   C1758     1.0  0.20392  0.38548  0.75648  1.0000
  H   H1407     1.0  0.00822  0.40893  0.88983  1.0000
  H   H1408     1.0  0.39643  0.27314  0.97230  1.0000
  C   C1759     1.0  0.18908  0.46460  0.75616  1.0000
  C   C1760     1.0  0.35951  0.33637  0.97198  1.0000
  C   C1761     1.0  0.19898  0.41318  0.73918  1.0000
  Fe  Fe124     1.0  0.07072  0.48629  0.85106  1.0000
  H   H1409     1.0  0.49405  0.24713  0.95811  1.0000
  C   C1762     1.0  0.20038  0.39755  0.76237  1.0000
  C   C1763     1.0  0.00918  0.34211  0.76225  1.0000
  H   H1410     1.0  0.03683  0.46027  0.79597  1.0000
  C   C1764     1.0  0.24011  0.33423  0.74541  1.0000
  C   C1765     1.0  0.02926  0.27194  0.75841  1.0000
  H   H1411     1.0  0.11606  0.45961  0.76594  1.0000
  H   H1412     1.0  0.06152  0.38168  0.76818  1.0000
  S   S249      1.0  0.27677  0.47660  0.85537  1.0000
  S   S250      1.0  0.38329  0.40173  0.95503  1.0000
  H   H1413     1.0  0.21038  0.38857  0.89548  1.0000
  C   C1766     1.0  0.30082  0.43766  0.94042  1.0000
  C   C1767     1.0  0.30523  0.46562  0.89672  1.0000
  H   H1414     1.0  0.38443  0.34617  0.98473  1.0000
  C   C1768     1.0  0.18509  0.45528  0.75058  1.0000
  C   C1769     1.0  0.21894  0.35474  0.75882  1.0000
  C   C1770     1.0  0.37478  0.30676  0.94936  1.0000
  C   C1771     1.0  0.47714  0.36455  0.93879  1.0000
  C   C1772     1.0  0.05765  0.43155  0.75058  1.0000
  C   C1773     1.0  0.24651  0.42713  0.80075  1.0000
  C   C1774     1.0  0.26157  0.42271  0.79646  1.0000
  C   C1775     1.0  0.27039  0.43246  0.79344  1.0000
  C   C1776     1.0  0.26417  0.44661  0.79481  1.0000
  C   C1777     1.0  0.24904  0.45107  0.79932  1.0000
  C   C1778     1.0  0.24026  0.44123  0.80220  1.0000
  P   P56       1.0  0.24077  0.46930  0.80109  1.0000
  H   H1415     1.0  0.21390  0.49006  0.80942  1.0000
  H   H1416     1.0  0.15066  0.48795  0.90992  1.0000
  C   C1779     1.0  0.22921  0.47242  0.77755  1.0000
  C   C1780     1.0  0.22682  0.46941  0.81731  1.0000
  C   C1781     1.0  0.22810  0.45814  0.82930  1.0000
  C   C1782     1.0  0.21844  0.45911  0.84242  1.0000
  C   C1783     1.0  0.20757  0.47147  0.84367  1.0000
  H   H1417     1.0  0.07010  0.48294  0.96138  1.0000
  C   C1784     1.0  0.49835  0.33837  0.98249  1.0000
  H   H1418     1.0  0.23967  0.41956  0.80321  1.0000
  H   H1419     1.0  0.26638  0.41168  0.79571  1.0000
  H   H1420     1.0  0.28208  0.42896  0.79043  1.0000
  H   H1421     1.0  0.27121  0.45387  0.79279  1.0000
  H   H1422     1.0  0.22857  0.44439  0.80577  1.0000
  C   C1785     1.0  0.00895  0.44523  0.85352  1.0000
  H   H1423     1.0  0.23120  0.46087  0.77974  1.0000
  H   H1424     1.0  0.23676  0.44875  0.82862  1.0000
  H   H1425     1.0  0.43602  0.27079  0.95240  1.0000
  S   S251      1.0  0.49591  0.29505  0.94084  1.0000
  H   H1426     1.0  0.26359  0.46883  0.96518  1.0000
  C   C1786     1.0  0.37328  0.27985  0.85642  1.0000
  C   C1787     1.0  0.29367  0.40163  0.93493  1.0000
  H   H1427     1.0  0.30423  0.41251  0.81282  1.0000
  H   H1428     1.0  0.27277  0.40608  0.94883  1.0000
  H   H1429     1.0  0.29776  0.39211  0.94240  1.0000
  C   C1788     1.0  0.01949  0.37749  0.75707  1.0000
  C   C1789     1.0  0.22971  0.30383  0.94806  1.0000
  H   H1430     1.0  0.06396  0.46082  0.78417  1.0000
  H   H1431     1.0  0.18131  0.45701  0.88445  1.0000
  C   C1790     1.0  0.47619  0.37790  0.95607  1.0000
  C   C1791     1.0  0.09438  0.44171  0.74859  1.0000
  P   P57       1.0  0.46564  0.38685  0.97038  1.0000
  S   S252      1.0  0.28862  0.32465  0.97331  1.0000
  C   C1792     1.0  0.03430  0.48593  0.74920  1.0000
  H   H1432     1.0  0.03829  0.25590  0.77502  1.0000
  C   C1793     1.0  0.37124  0.27958  0.84324  1.0000
  S   S253      1.0  0.40867  0.25266  0.91206  1.0000
  H   H1433     1.0  0.22850  0.43376  0.92663  1.0000
  S   S254      1.0  0.13690  0.46902  0.94366  1.0000
  C   C1794     1.0  0.44890  0.40706  0.95193  1.0000
  C   C1795     1.0  0.07516  0.36107  0.77437  1.0000
  H   H1434     1.0  0.00729  0.45247  0.90505  1.0000
  H   H1435     1.0  0.10155  0.42069  0.76104  1.0000
  C   C1796     1.0  0.44922  0.25339  0.85250  1.0000
  H   H1436     1.0  0.30643  0.45533  0.90410  1.0000
  H   H1437     1.0  0.24745  0.47612  0.82517  1.0000
  C   C1797     1.0  0.32065  0.29402  0.91498  1.0000
  C   C1798     1.0  0.24941  0.33665  0.95578  1.0000
  C   C1799     1.0  0.02048  0.43520  0.89519  1.0000
  H   H1438     1.0  0.23471  0.29259  0.95128  1.0000
  H   H1439     1.0  0.22249  0.36756  0.93550  1.0000
  P   P58       1.0  0.00649  0.47236  0.79421  1.0000
  H   H1440     1.0  0.07816  0.40061  0.76610  1.0000
  H   H1441     1.0  0.45209  0.39945  0.94519  1.0000
  H   H1442     1.0  0.43506  0.42207  0.93853  1.0000
  H   H1443     1.0  0.21790  0.49113  0.94850  1.0000
  C   C1800     1.0  0.26586  0.44710  0.96384  1.0000
  H   H1444     1.0  0.35849  0.26007  0.97233  1.0000
  C   C1801     1.0  0.15804  0.41503  0.87331  1.0000
  C   C1802     1.0  0.16971  0.40390  0.86968  1.0000
  C   C1803     1.0  0.18085  0.40670  0.85775  1.0000
  C   C1804     1.0  0.18048  0.42065  0.84958  1.0000
  C   C1805     1.0  0.16864  0.43189  0.85294  1.0000
  C   C1806     1.0  0.15749  0.42894  0.86498  1.0000
  P   P59       1.0  0.16858  0.45011  0.84282  1.0000
  C   C1807     1.0  0.17218  0.46055  0.85302  1.0000
  C   C1808     1.0  0.18111  0.45004  0.82566  1.0000
  C   C1809     1.0  0.18991  0.46006  0.81990  1.0000
  C   C1810     1.0  0.19837  0.46100  0.80599  1.0000
  C   C1811     1.0  0.19823  0.45183  0.79779  1.0000
  C   C1812     1.0  0.18959  0.44174  0.80346  1.0000
  C   C1813     1.0  0.18109  0.44080  0.81735  1.0000
  C   C1814     1.0  0.16870  0.47559  0.84898  1.0000
  C   C1815     1.0  0.36046  0.32184  0.97849  1.0000
  H   H1445     1.0  0.02395  0.31977  0.73647  1.0000
  C   C1816     1.0  0.17789  0.46226  0.87448  1.0000
  C   C1817     1.0  0.17680  0.45395  0.86583  1.0000
  C   C1818     1.0  0.15071  0.45923  0.83971  1.0000
  C   C1819     1.0  0.13955  0.46334  0.85112  1.0000
  C   C1820     1.0  0.12583  0.47088  0.84887  1.0000
  C   C1821     1.0  0.12328  0.47493  0.83512  1.0000
  C   C1822     1.0  0.13444  0.47150  0.82359  1.0000
  C   C1823     1.0  0.14808  0.46357  0.82585  1.0000
  H   H1446     1.0  0.14960  0.41302  0.88281  1.0000
  H   H1447     1.0  0.17041  0.39320  0.87634  1.0000
  H   H1448     1.0  0.19014  0.39820  0.85520  1.0000
  H   H1449     1.0  0.18971  0.42260  0.84093  1.0000
  H   H1450     1.0  0.14852  0.43732  0.86829  1.0000
  H   H1451     1.0  0.18991  0.46745  0.82592  1.0000
  H   H1452     1.0  0.20459  0.46922  0.80135  1.0000
  H   H1453     1.0  0.20445  0.45288  0.78686  1.0000
  H   H1454     1.0  0.18920  0.43491  0.79696  1.0000
  H   H1455     1.0  0.17421  0.43311  0.82145  1.0000
  H   H1456     1.0  0.16475  0.48095  0.83931  1.0000
  C   C1824     1.0  0.36522  0.31928  0.94431  1.0000
  C   C1825     1.0  0.25404  0.45923  0.93970  1.0000
  H   H1457     1.0  0.08891  0.34137  0.78300  1.0000
  H   H1458     1.0  0.17922  0.44242  0.86936  1.0000
  H   H1459     1.0  0.14151  0.46110  0.86172  1.0000
  H   H1460     1.0  0.11729  0.47401  0.85772  1.0000
  Fe  Fe125     1.0  0.42616  0.24537  0.94435  1.0000
  H   H1461     1.0  0.13254  0.47518  0.81287  1.0000
  H   H1462     1.0  0.15653  0.46132  0.81665  1.0000
  C   C1826     1.0  0.34664  0.27675  0.85433  1.0000
  C   C1827     1.0  0.34865  0.27700  0.86753  1.0000
  C   C1828     1.0  0.36195  0.27870  0.86866  1.0000
  C   C1829     1.0  0.35458  0.27714  0.98316  1.0000
  P   P60       1.0  0.36488  0.27855  0.88573  1.0000
  C   C1830     1.0  0.49945  0.36589  0.94346  1.0000
  C   C1831     1.0  0.37688  0.29044  0.88259  1.0000
  C   C1832     1.0  0.38877  0.28614  0.88908  1.0000
  C   C1833     1.0  0.39808  0.29531  0.88658  1.0000
  C   C1834     1.0  0.39559  0.30886  0.87756  1.0000
  C   C1835     1.0  0.38383  0.31321  0.87094  1.0000
  C   C1836     1.0  0.37455  0.30401  0.87337  1.0000
  H   H1463     1.0  0.31043  0.29756  0.92208  1.0000
  S   S255      1.0  0.47902  0.26777  0.97391  1.0000
  C   C1837     1.0  0.03001  0.36744  0.76380  1.0000
  S   S256      1.0  0.47863  0.30834  0.96915  1.0000
  H   H1464     1.0  0.21452  0.39971  0.96705  1.0000
  C   C1838     1.0  0.34760  0.28472  0.89723  1.0000
  C   C1839     1.0  0.13176  0.48245  0.88910  1.0000
  H   H1465     1.0  0.14503  0.47652  0.97105  1.0000
  C   C1840     1.0  0.14552  0.47404  0.98216  1.0000
  S   S257      1.0  0.23157  0.48803  0.91712  1.0000
  C   C1841     1.0  0.34299  0.29902  0.89867  1.0000
  H   H1466     1.0  0.33634  0.27547  0.85352  1.0000
  H   H1467     1.0  0.33980  0.27586  0.87679  1.0000
  H   H1468     1.0  0.34181  0.26404  0.90387  1.0000
  H   H1469     1.0  0.39074  0.27583  0.89632  1.0000
  H   H1470     1.0  0.40712  0.29198  0.89183  1.0000
  H   H1471     1.0  0.40274  0.31600  0.87581  1.0000
  H   H1472     1.0  0.38183  0.32377  0.86404  1.0000
  H   H1473     1.0  0.36544  0.30755  0.86822  1.0000
  H   H1474     1.0  0.33667  0.46978  0.90675  1.0000
  C   C1842     1.0  0.28904  0.48803  0.92782  1.0000
  H   H1475     1.0  0.25263  0.47954  0.94390  1.0000
  H   H1476     1.0  0.18732  0.47057  0.92883  1.0000
  C   C1843     1.0  0.01673  0.47248  0.80657  1.0000
  C   C1844     1.0  0.32045  0.48651  0.91587  1.0000
  C   C1845     1.0  0.01018  0.47937  0.81801  1.0000
  C   C1846     1.0  0.26199  0.46198  0.95934  1.0000
  H   H1477     1.0  0.24704  0.32620  0.95808  1.0000
  H   H1478     1.0  0.34980  0.30665  0.89342  1.0000
  H   H1479     1.0  0.31345  0.39944  0.91874  1.0000
  C   C1847     1.0  0.22259  0.41841  0.96461  1.0000
  H   H1480     1.0  0.13726  0.45308  0.74694  1.0000
  H   H1481     1.0  0.02701  0.36192  0.77483  1.0000
  H   H1482     1.0  0.31363  0.44009  0.97574  1.0000
  H   H1483     1.0  0.01589  0.40460  0.75821  1.0000
  H   H1484     1.0  0.08982  0.47591  0.82873  1.0000
  C   C1848     1.0  0.24777  0.44286  0.91899  1.0000
  C   C1849     1.0  0.20819  0.35724  0.79634  1.0000
  C   C1850     1.0  0.10188  0.42738  0.75037  1.0000
  C   C1851     1.0  0.41315  0.24337  0.98100  1.0000
  H   H1485     1.0  0.19641  0.32636  0.94871  1.0000
  H   H1486     1.0  0.48746  0.29602  0.86597  1.0000
  P   P61       1.0  0.25604  0.43273  0.93401  1.0000
  C   C1852     1.0  0.16627  0.46642  0.77363  1.0000
  C   C1853     1.0  0.21458  0.30833  0.95065  1.0000
  H   H1487     1.0  0.23214  0.43666  0.95888  1.0000
  H   H1488     1.0  0.20691  0.37825  0.73718  1.0000
  C   C1854     1.0  0.48920  0.25517  0.90738  1.0000
  H   H1489     1.0  0.09323  0.40205  0.81141  1.0000
  H   H1490     1.0  0.46781  0.35574  0.97633  1.0000
  H   H1491     1.0  0.35636  0.27782  0.83197  1.0000
  C   C1855     1.0  0.17974  0.47029  0.76763  1.0000
  Fe  Fe126     1.0  0.37903  0.41249  0.97320  1.0000
  H   H1492     1.0  0.07631  0.35795  0.76452  1.0000
  S   S258      1.0  0.44156  0.33340  0.96921  1.0000
  S   S259      1.0  0.16256  0.40059  0.76723  1.0000
  H   H1493     1.0  0.26313  0.48229  0.77944  1.0000
  H   H1494     1.0  0.37106  0.29683  0.95370  1.0000
  C   C1856     1.0  0.10764  0.45955  0.82128  1.0000
  H   H1495     1.0  0.24853  0.32278  0.90912  1.0000
  H   H1496     1.0  0.36584  0.38881  0.97877  1.0000
  H   H1497     1.0  0.11276  0.48111  0.83331  1.0000
  C   C1857     1.0  0.34667  0.34641  0.97535  1.0000
  H   H1498     1.0  0.06048  0.47007  0.75931  1.0000
  H   H1499     1.0  0.21776  0.44697  0.90616  1.0000
  H   H1500     1.0  0.03609  0.44161  0.76035  1.0000
  C   C1858     1.0  0.35900  0.48936  0.94528  1.0000
  C   C1859     1.0  0.11624  0.46302  0.79565  1.0000
  H   H1501     1.0  0.13283  0.47565  0.88196  1.0000
  C   C1860     1.0  0.12584  0.35817  0.89797  1.0000
  C   C1861     1.0  0.14061  0.35632  0.89738  1.0000
  C   C1862     1.0  0.14739  0.36785  0.89104  1.0000
  C   C1863     1.0  0.13942  0.38120  0.88523  1.0000
  C   C1864     1.0  0.12464  0.38310  0.88557  1.0000
  C   C1865     1.0  0.11784  0.37153  0.89217  1.0000
  P   P62       1.0  0.11428  0.40051  0.87850  1.0000
  C   C1866     1.0  0.10799  0.41114  0.89193  1.0000
  C   C1867     1.0  0.12552  0.40958  0.86288  1.0000
  C   C1868     1.0  0.12312  0.42459  0.85948  1.0000
  C   C1869     1.0  0.13121  0.43163  0.84696  1.0000
  C   C1870     1.0  0.14197  0.42379  0.83786  1.0000
  C   C1871     1.0  0.14455  0.40886  0.84124  1.0000
  C   C1872     1.0  0.13631  0.40176  0.85361  1.0000
  C   C1873     1.0  0.09546  0.42227  0.89169  1.0000
  C   C1874     1.0  0.09053  0.43036  0.90217  1.0000
  C   C1875     1.0  0.09825  0.42767  0.91275  1.0000
  C   C1876     1.0  0.11098  0.41698  0.91279  1.0000
  C   C1877     1.0  0.11581  0.40869  0.90248  1.0000
  C   C1878     1.0  0.09923  0.39796  0.87316  1.0000
  C   C1879     1.0  0.08560  0.39807  0.88266  1.0000
  C   C1880     1.0  0.07387  0.39667  0.87826  1.0000
  C   C1881     1.0  0.07572  0.39486  0.86447  1.0000
  C   C1882     1.0  0.08938  0.39416  0.85516  1.0000
  C   C1883     1.0  0.10110  0.39562  0.85950  1.0000
  H   H1502     1.0  0.12055  0.34925  0.90298  1.0000
  H   H1503     1.0  0.14679  0.34597  0.90189  1.0000
  H   H1504     1.0  0.15881  0.36647  0.89066  1.0000
  H   H1505     1.0  0.14476  0.39007  0.88049  1.0000
  H   H1506     1.0  0.10639  0.37278  0.89286  1.0000
  H   H1507     1.0  0.11468  0.43096  0.86619  1.0000
  H   H1508     1.0  0.12890  0.44318  0.84420  1.0000
  H   H1509     1.0  0.14817  0.42927  0.82811  1.0000
  H   H1510     1.0  0.15275  0.40280  0.83408  1.0000
  H   H1511     1.0  0.13819  0.39020  0.85574  1.0000
  H   H1512     1.0  0.08956  0.42482  0.88334  1.0000
  H   H1513     1.0  0.08095  0.43903  0.90188  1.0000
  H   H1514     1.0  0.09464  0.43425  0.92060  1.0000
  H   H1515     1.0  0.11724  0.41534  0.92069  1.0000
  H   H1516     1.0  0.12573  0.40053  0.90272  1.0000
  H   H1517     1.0  0.08394  0.39944  0.89339  1.0000
  H   H1518     1.0  0.06329  0.39720  0.88548  1.0000
  H   H1519     1.0  0.06657  0.39406  0.86097  1.0000
  H   H1520     1.0  0.09087  0.39278  0.84445  1.0000
  H   H1521     1.0  0.11150  0.39523  0.85204  1.0000
  H   H1522     1.0  0.22586  0.38206  0.77230  1.0000
  C   C1884     1.0  0.14241  0.47385  0.74056  1.0000
  C   C1885     1.0  0.29153  0.39721  0.82591  1.0000
  S   S260      1.0  0.42450  0.39739  0.93576  1.0000
  C   C1886     1.0  0.42933  0.37974  0.94519  1.0000
  H   H1523     1.0  0.27913  0.38290  0.84171  1.0000
  C   C1887     1.0  0.02329  0.38457  0.74272  1.0000
  C   C1888     1.0  0.27339  0.33479  0.91779  1.0000
  C   C1889     1.0  0.07629  0.48311  0.75308  1.0000
  C   C1890     1.0  0.24812  0.34639  0.94272  1.0000
  H   H1524     1.0  0.38158  0.47446  0.91801  1.0000
  C   C1891     1.0  0.22213  0.37499  0.78229  1.0000
  Fe  Fe127     1.0  0.40377  0.40987  0.94699  1.0000
  H   H1525     1.0  0.02107  0.32055  0.76112  1.0000
  C   C1892     1.0  0.36335  0.26688  0.97545  1.0000
  C   C1893     1.0  0.07572  0.48857  0.95132  1.0000
  Fe  Fe128     1.0  0.15344  0.42435  0.76313  1.0000
  C   C1894     1.0  0.25181  0.35965  0.93999  1.0000
  H   H1526     1.0  0.25139  0.36714  0.92983  1.0000
  C   C1895     1.0  0.30372  0.40944  0.83512  1.0000
  H   H1527     1.0  0.31031  0.41714  0.83303  1.0000
  H   H1528     1.0  0.39469  0.48456  0.96286  1.0000
  C   C1896     1.0  0.00362  0.32095  0.77983  1.0000
  H   H1529     1.0  0.36458  0.47535  0.97474  1.0000
  C   C1897     1.0  0.00253  0.42526  0.75995  1.0000
  H   H1530     1.0  0.21954  0.45038  0.85167  1.0000
  C   C1898     1.0  0.42827  0.36170  0.96730  1.0000
  H   H1531     1.0  0.16499  0.35573  0.75744  1.0000
  C   C1899     1.0  0.32288  0.45821  0.97279  1.0000
  C   C1900     1.0  0.03295  0.47240  0.82558  1.0000
  C   C1901     1.0  0.27950  0.40964  0.93851  1.0000
  C   C1902     1.0  0.30262  0.40582  0.92165  1.0000
  C   C1903     1.0  0.33850  0.27514  0.90476  1.0000
  C   C1904     1.0  0.26415  0.48792  0.81589  1.0000
  C   C1905     1.0  0.30473  0.47820  0.90073  1.0000
  C   C1906     1.0  0.12239  0.46751  0.75970  1.0000
  H   H1532     1.0  0.17860  0.48472  0.97988  1.0000
  H   H1533     1.0  0.04097  0.48912  0.73867  1.0000
  Fe  Fe129     1.0  0.38928  0.43876  0.95433  1.0000
  C   C1907     1.0  0.23149  0.35844  0.74921  1.0000
  S   S261      1.0  0.39202  0.46054  0.95416  1.0000
  S   S262      1.0  0.47646  0.32826  0.93688  1.0000
  C   C1908     1.0  0.21675  0.37969  0.90183  1.0000
  C   C1909     1.0  0.06995  0.46851  0.77677  1.0000
  H   H1534     1.0  0.01310  0.38321  0.83004  1.0000
  C   C1910     1.0  0.39777  0.46158  0.96887  1.0000
  C   C1911     1.0  0.39804  0.47496  0.97059  1.0000
  C   C1912     1.0  0.33456  0.48005  0.90952  1.0000
  C   C1913     1.0  0.01178  0.44244  0.80382  1.0000
  Fe  Fe130     1.0  0.47717  0.30797  0.93090  1.0000
  C   C1914     1.0  0.04829  0.37142  0.74197  1.0000
  H   H1535     1.0  0.19948  0.46750  0.75149  1.0000
  C   C1915     1.0  0.30032  0.40683  0.82356  1.0000
  C   C1916     1.0  0.25974  0.33296  0.91784  1.0000
  C   C1917     1.0  0.27157  0.31772  0.90077  1.0000
  C   C1918     1.0  0.06943  0.41993  0.75222  1.0000
  H   H1536     1.0  0.20814  0.38793  0.92093  1.0000
  C   C1919     1.0  0.02839  0.39394  0.78923  1.0000
  C   C1920     1.0  0.22379  0.36780  0.92434  1.0000
  H   H1537     1.0  0.08833  0.44604  0.75789  1.0000
  H   H1538     1.0  0.36872  0.33996  0.96438  1.0000
  C   C1921     1.0  0.17433  0.47723  0.87041  1.0000
  C   C1922     1.0  0.00961  0.45682  0.85842  1.0000
  H   H1539     1.0  0.43570  0.29215  0.98418  1.0000
  C   C1923     1.0  0.43614  0.27987  0.96945  1.0000
  H   H1540     1.0  0.22576  0.36556  0.81671  1.0000
  H   H1541     1.0  0.42678  0.44001  0.95364  1.0000
  P   P63       1.0  0.24336  0.34131  0.92896  1.0000
  C   C1924     1.0  0.25894  0.32430  0.90931  1.0000
  C   C1925     1.0  0.21552  0.37929  0.91618  1.0000
  H   H1542     1.0  0.27084  0.31128  0.89402  1.0000
  H   H1543     1.0  0.12551  0.44515  0.81081  1.0000
  S   S263      1.0  0.40084  0.41816  0.96640  1.0000
  H   H1544     1.0  0.25379  0.46750  0.88762  1.0000
  C   C1926     1.0  0.35222  0.46807  0.94462  1.0000
  P   P64       1.0  0.20570  0.36777  0.76789  1.0000
  C   C1927     1.0  0.49230  0.36096  0.93623  1.0000
  C   C1928     1.0  0.09598  0.48031  0.80582  1.0000
  C   C1929     1.0  0.23349  0.35669  0.91813  1.0000
  C   C1930     1.0  0.04511  0.43249  0.76152  1.0000
  H   H1545     1.0  0.28868  0.39536  0.81701  1.0000
  C   C1931     1.0  0.01677  0.27871  0.75288  1.0000
  H   H1546     1.0  0.30451  0.42134  0.90173  1.0000
  C   C1932     1.0  0.29756  0.41816  0.91206  1.0000
  H   H1547     1.0  0.26405  0.45560  0.90871  1.0000
  C   C1933     1.0  0.23842  0.31382  0.94139  1.0000
  C   C1934     1.0  0.49799  0.28968  0.86772  1.0000
  H   H1548     1.0  0.44250  0.27011  0.97474  1.0000
  C   C1935     1.0  0.24838  0.46004  0.89615  1.0000
  C   C1936     1.0  0.21368  0.47013  0.95397  1.0000
  C   C1937     1.0  0.21725  0.34059  0.76194  1.0000
  H   H1549     1.0  0.32824  0.46110  0.93472  1.0000
  H   H1550     1.0  0.23019  0.45713  0.98251  1.0000
  H   H1551     1.0  0.08637  0.34836  0.80565  1.0000
  C   C1938     1.0  0.22222  0.48042  0.76650  1.0000
  Fe  Fe131     1.0  0.49382  0.31484  0.94836  1.0000
  H   H1552     1.0  0.37060  0.31439  0.97586  1.0000
  C   C1939     1.0  0.23475  0.35731  0.90365  1.0000
  C   C1940     1.0  0.22635  0.36870  0.89559  1.0000
  H   H1553     1.0  0.25013  0.31017  0.93963  1.0000
  C   C1941     1.0  0.25441  0.45291  0.90803  1.0000
  C   C1942     1.0  0.28343  0.42622  0.91560  1.0000
  C   C1943     1.0  0.16238  0.45672  0.76819  1.0000
  C   C1944     1.0  0.34607  0.48677  0.90671  1.0000
  C   C1945     1.0  0.06607  0.37892  0.78888  1.0000
  Fe  Fe132     1.0  0.15923  0.47361  0.93575  1.0000
  H   H1554     1.0  0.36544  0.45721  0.92794  1.0000
  H   H1555     1.0  0.21365  0.42264  0.97261  1.0000
  C   C1946     1.0  0.10139  0.37884  0.74907  1.0000
  H   H1556     1.0  0.32627  0.31462  0.90875  1.0000
  H   H1557     1.0  0.43580  0.43503  0.97567  1.0000
  H   H1558     1.0  0.29348  0.43087  0.94180  1.0000
  C   C1947     1.0  0.27418  0.42203  0.92886  1.0000
  C   C1948     1.0  0.47048  0.25595  0.92909  1.0000
  H   H1559     1.0  0.27988  0.43539  0.90769  1.0000
  C   C1949     1.0  0.09707  0.47223  0.81949  1.0000
  H   H1560     1.0  0.35404  0.31917  0.94525  1.0000
  H   H1561     1.0  0.26690  0.42676  0.95988  1.0000
  C   C1950     1.0  0.49308  0.24420  0.86390  1.0000
  C   C1951     1.0  0.42430  0.37596  0.95999  1.0000
  C   C1952     1.0  0.43714  0.35124  0.95988  1.0000
  S   S264      1.0  0.36724  0.43357  0.96228  1.0000
  C   C1953     1.0  0.31290  0.43224  0.94658  1.0000
  C   C1954     1.0  0.02859  0.26113  0.77088  1.0000
  H   H1562     1.0  0.30433  0.33966  0.98286  1.0000
  H   H1563     1.0  0.23044  0.46361  0.88634  1.0000
  C   C1955     1.0  0.23526  0.45783  0.89541  1.0000
  H   H1564     1.0  0.30432  0.45657  0.87991  1.0000
  C   C1956     1.0  0.23417  0.40031  0.95069  1.0000
  C   C1957     1.0  0.23311  0.42632  0.95680  1.0000
  C   C1958     1.0  0.24427  0.42124  0.94588  1.0000
  C   C1959     1.0  0.24471  0.40817  0.94288  1.0000
  H   H1565     1.0  0.23424  0.39054  0.94793  1.0000
  H   H1566     1.0  0.25286  0.40426  0.93417  1.0000
  C   C1960     1.0  0.25444  0.34011  0.96585  1.0000
  H   H1567     1.0  0.33198  0.43665  0.94939  1.0000
  C   C1961     1.0  0.46912  0.37282  0.94877  1.0000
  C   C1962     1.0  0.25592  0.46802  0.94737  1.0000
  H   H1568     1.0  0.03956  0.27488  0.75316  1.0000
  C   C1963     1.0  0.17182  0.45117  0.75659  1.0000
  C   C1964     1.0  0.26385  0.43827  0.95625  1.0000
  H   H1569     1.0  0.45739  0.37475  0.95126  1.0000
  C   C1965     1.0  0.25812  0.44428  0.94397  1.0000
  C   C1966     1.0  0.22817  0.44841  0.90653  1.0000
  C   C1967     1.0  0.23437  0.44094  0.91824  1.0000
  H   H1570     1.0  0.24927  0.46420  0.93054  1.0000
  C   C1968     1.0  0.06805  0.47367  0.76276  1.0000
  C   C1969     1.0  0.37840  0.26541  0.97160  1.0000
  H   H1571     1.0  0.15272  0.47229  0.89389  1.0000
  C   C1970     1.0  0.22307  0.40547  0.96149  1.0000
  C   C1971     1.0  0.25451  0.48026  0.81532  1.0000
  H   H1572     1.0  0.29175  0.46258  0.83282  1.0000
  P   P65       1.0  0.30562  0.47806  0.91855  1.0000
  S   S265      1.0  0.16747  0.43951  0.74877  1.0000
  C   C1972     1.0  0.20814  0.32285  0.94663  1.0000
  C   C1973     1.0  0.27153  0.46488  0.84844  1.0000
  C   C1974     1.0  0.14313  0.48073  0.89559  1.0000
  C   C1975     1.0  0.16980  0.48388  0.85762  1.0000
  H   H1573     1.0  0.27052  0.44239  0.97316  1.0000
  C   C1976     1.0  0.44139  0.24962  0.87819  1.0000
  C   C1977     1.0  0.45400  0.40403  0.96447  1.0000
  C   C1978     1.0  0.06694  0.37459  0.77644  1.0000
  H   H1574     1.0  0.00587  0.30940  0.78357  1.0000
  H   H1575     1.0  0.15599  0.36795  0.79741  1.0000
  H   H1576     1.0  0.47157  0.36058  0.93332  1.0000
  C   C1979     1.0  0.21230  0.36673  0.78334  1.0000
  C   C1980     1.0  0.16363  0.36539  0.78780  1.0000
  C   C1981     1.0  0.43957  0.42725  0.96900  1.0000
  H   H1577     1.0  0.19499  0.42062  0.75845  1.0000
  H   H1578     1.0  0.21374  0.46767  0.92467  1.0000
  S   S266      1.0  0.13731  0.44932  0.98445  1.0000
  H   H1579     1.0  0.25044  0.46489  0.86259  1.0000
  C   C1982     1.0  0.09089  0.48524  0.94754  1.0000
  C   C1983     1.0  0.43920  0.42001  0.94804  1.0000
  Fe  Fe133     1.0  0.46119  0.32029  0.95712  1.0000
  C   C1984     1.0  0.32953  0.30364  0.90743  1.0000
  H   H1580     1.0  0.19913  0.39633  0.77369  1.0000
  C   C1985     1.0  0.29845  0.45168  0.93223  1.0000
  C   C1986     1.0  0.19181  0.47995  0.92577  1.0000
  C   C1987     1.0  0.40221  0.47599  0.98253  1.0000
  C   C1988     1.0  0.43451  0.43009  0.95656  1.0000
  C   C1989     1.0  0.08231  0.35171  0.78480  1.0000
  C   C1990     1.0  0.42479  0.29299  0.94964  1.0000
  C   C1991     1.0  0.13427  0.46379  0.74886  1.0000
  Fe  Fe134     1.0  0.47889  0.28993  0.96048  1.0000
  C   C1992     1.0  0.23239  0.47831  0.98117  1.0000
  H   H1581     1.0  0.40814  0.24324  0.97275  1.0000
  C   C1993     1.0  0.43215  0.29225  0.97485  1.0000
  C   C1994     1.0  0.08013  0.47272  0.78110  1.0000
  C   C1995     1.0  0.46147  0.24225  0.85396  1.0000
  C   C1996     1.0  0.45441  0.37520  0.98294  1.0000
  H   H1582     1.0  0.38374  0.28085  0.85708  1.0000
  H   H1583     1.0  0.21159  0.34406  0.93703  1.0000
  C   C1997     1.0  0.32114  0.44415  0.97881  1.0000
  C   C1998     1.0  0.01548  0.25699  0.77793  1.0000
  H   H1584     1.0  0.09705  0.47703  0.95464  1.0000
  H   H1585     1.0  0.31833  0.27224  0.91964  1.0000
  P   P66       1.0  0.01741  0.29250  0.73659  1.0000
  H   H1586     1.0  0.21065  0.48686  0.87047  1.0000
  H   H1587     1.0  0.34602  0.35768  0.97043  1.0000
  H   H1588     1.0  0.19031  0.35832  0.75242  1.0000
  C   C1999     1.0  0.20472  0.38740  0.74185  1.0000
  H   H1589     1.0  0.01204  0.46307  0.76716  1.0000
  C   C2000     1.0  0.02452  0.48874  0.77357  1.0000
  C   C2001     1.0  0.21538  0.48143  0.81854  1.0000
  C   C2002     1.0  0.38264  0.25110  0.88524  1.0000
  C   C2003     1.0  0.00301  0.26365  0.77251  1.0000
  H   H1590     1.0  0.18360  0.46004  0.97689  1.0000
  C   C2004     1.0  0.00264  0.41265  0.74234  1.0000
  C   C2005     1.0  0.47570  0.25269  0.91561  1.0000
  C   C2006     1.0  0.23300  0.47938  0.78591  1.0000
  C   C2007     1.0  0.25397  0.47819  0.80218  1.0000
  H   H1591     1.0  0.19248  0.45104  0.74171  1.0000
  C   C2008     1.0  0.21063  0.48435  0.95527  1.0000
  C   C2009     1.0  0.37111  0.25605  0.90869  1.0000
  C   C2010     1.0  0.08651  0.48731  0.75738  1.0000
  H   H1592     1.0  0.00804  0.39188  0.78699  1.0000
  H   H1593     1.0  0.29606  0.48191  0.94774  1.0000
  C   C2011     1.0  0.44924  0.41429  0.97296  1.0000
  C   C2012     1.0  0.47807  0.38928  0.97930  1.0000
  P   P67       1.0  0.33630  0.48101  0.96744  1.0000
  H   H1594     1.0  0.45277  0.41218  0.98280  1.0000
  C   C2013     1.0  0.38474  0.27431  0.97529  1.0000
  C   C2014     1.0  0.00340  0.45474  0.79656  1.0000
  H   H1595     1.0  0.07921  0.41928  0.74382  1.0000
  C   C2015     1.0  0.08850  0.48211  0.77143  1.0000
  H   H1596     1.0  0.26436  0.48963  0.82605  1.0000
  H   H1597     1.0  0.40211  0.48636  0.98398  1.0000
  C   C2016     1.0  0.22776  0.33040  0.75517  1.0000
  H   H1598     1.0  0.23322  0.36918  0.74703  1.0000
  C   C2017     1.0  0.18849  0.48074  0.97269  1.0000
  C   C2018     1.0  0.10475  0.37117  0.73827  1.0000
  H   H1599     1.0  0.38478  0.25431  0.87373  1.0000
  C   C2019     1.0  0.40178  0.44927  0.97907  1.0000
  H   H1600     1.0  0.49850  0.35404  0.92894  1.0000
  C   C2020     1.0  0.35706  0.48340  0.98024  1.0000
  C   C2021     1.0  0.33476  0.34196  0.98528  1.0000
  H   H1601     1.0  0.00647  0.42559  0.76890  1.0000
  S   S267      1.0  0.05386  0.48853  0.87117  1.0000
  H   H1602     1.0  0.22639  0.31950  0.75759  1.0000
  H   H1603     1.0  0.17508  0.48364  0.87718  1.0000
  C   C2022     1.0  0.01831  0.47939  0.82740  1.0000
  H   H1604     1.0  0.05944  0.36889  0.73608  1.0000
  H   H1605     1.0  0.40148  0.43897  0.97803  1.0000
  H   H1606     1.0  0.25603  0.33232  0.97563  1.0000
  H   H1607     1.0  0.30567  0.48363  0.98225  1.0000
  H   H1608     1.0  0.35697  0.48161  0.90198  1.0000
  C   C2023     1.0  0.49423  0.40310  0.98066  1.0000
  H   H1609     1.0  0.27188  0.40060  0.98558  1.0000
  H   H1610     1.0  0.49875  0.41257  0.97677  1.0000
  C   C2024     1.0  0.26342  0.48370  0.78968  1.0000
  H   H1611     1.0  0.05835  0.43991  0.74090  1.0000
  H   H1612     1.0  0.07509  0.48687  0.74211  1.0000
  C   C2025     1.0  0.28739  0.48784  0.94226  1.0000
  H   H1613     1.0  0.01502  0.24855  0.78754  1.0000
  H   H1614     1.0  0.24828  0.32630  0.74023  1.0000
  H   H1615     1.0  0.32580  0.30161  0.98527  1.0000
  C   C2026     1.0  0.37599  0.28467  0.98285  1.0000
  C   C2027     1.0  0.13836  0.48778  0.74271  1.0000
  C   C2028     1.0  0.00207  0.30739  0.73920  1.0000
  H   H1616     1.0  0.02448  0.50215  0.09978  1.0000
  S   S268      1.0  0.37608  0.53478  0.99934  1.0000
  H   H1617     1.0  0.34859  0.54642  0.03388  1.0000
  C   C2029     1.0  0.49728  0.73576  0.99269  1.0000
  C   C2030     1.0  0.49710  0.74045  0.05424  1.0000
  C   C2031     1.0  0.47234  0.72428  0.03973  1.0000
  H   H1618     1.0  0.30366  0.51186  0.04900  1.0000
  H   H1619     1.0  0.46375  0.58357  0.03124  1.0000
  S   S269      1.0  0.45292  0.71551  0.10079  1.0000
  H   H1620     1.0  0.35104  0.71846  0.00697  1.0000
  P   P68       1.0  0.47511  0.57708  0.05712  1.0000
  H   H1621     1.0  0.39716  0.54757  0.05345  1.0000
  C   C2032     1.0  0.49295  0.55319  0.02667  1.0000
  C   C2033     1.0  0.45919  0.72740  0.03539  1.0000
  H   H1622     1.0  0.34138  0.50710  0.06308  1.0000
  H   H1623     1.0  0.29164  0.63416  0.02518  1.0000
  C   C2034     1.0  0.44596  0.52909  0.01822  1.0000
  H   H1624     1.0  0.03702  0.53823  0.23420  1.0000
  C   C2035     1.0  0.05850  0.50006  0.10313  1.0000
  Fe  Fe135     1.0  0.47254  0.57869  0.99898  1.0000
  C   C2036     1.0  0.46857  0.70038  0.05204  1.0000
  S   S270      1.0  0.45992  0.56407  0.01657  1.0000
  S   S271      1.0  0.29345  0.57058  0.99012  1.0000
  C   C2037     1.0  0.14495  0.59434  0.14016  1.0000
  H   H1625     1.0  0.13955  0.62870  0.22386  1.0000
  H   H1626     1.0  0.26913  0.59214  0.03921  1.0000
  C   C2038     1.0  0.05812  0.53527  0.20132  1.0000
  C   C2039     1.0  0.35935  0.67698  0.01379  1.0000
  C   C2040     1.0  0.10343  0.50573  0.09367  1.0000
  S   S272      1.0  0.48291  0.59306  0.00467  1.0000
  Fe  Fe136     1.0  0.41050  0.69274  0.05672  1.0000
  S   S273      1.0  0.41394  0.67034  0.07028  1.0000
  S   S274      1.0  0.41291  0.71293  0.06158  1.0000
  Fe  Fe137     1.0  0.40568  0.68277  0.03216  1.0000
  S   S275      1.0  0.40927  0.65964  0.04379  1.0000
  S   S276      1.0  0.40090  0.69120  0.00992  1.0000
  Fe  Fe138     1.0  0.39522  0.66784  0.06294  1.0000
  S   S277      1.0  0.37896  0.65489  0.07777  1.0000
  Fe  Fe139     1.0  0.42750  0.66416  0.04990  1.0000
  S   S278      1.0  0.44952  0.64921  0.04849  1.0000
  S   S279      1.0  0.39043  0.69092  0.05111  1.0000
  S   S280      1.0  0.42520  0.68658  0.03674  1.0000
  Fe  Fe140     1.0  0.34506  0.57673  0.06428  1.0000
  S   S281      1.0  0.32750  0.57261  0.05685  1.0000
  S   S282      1.0  0.36062  0.55961  0.07619  1.0000
  Fe  Fe141     1.0  0.33606  0.60936  0.05521  1.0000
  S   S283      1.0  0.31750  0.60803  0.04694  1.0000
  S   S284      1.0  0.34080  0.63144  0.05123  1.0000
  Fe  Fe142     1.0  0.31319  0.59080  0.06669  1.0000
  S   S285      1.0  0.29100  0.58930  0.08085  1.0000
  Fe  Fe143     1.0  0.33302  0.58994  0.03778  1.0000
  S   S286      1.0  0.33659  0.58841  0.01507  1.0000
  S   S287      1.0  0.33033  0.59372  0.07581  1.0000
  S   S288      1.0  0.35202  0.59253  0.04429  1.0000
  Fe  Fe144     1.0  0.23320  0.51538  0.11310  1.0000
  S   S289      1.0  0.20997  0.52572  0.12121  1.0000
  Fe  Fe145     1.0  0.23895  0.54150  0.08982  1.0000
  S   S290      1.0  0.21610  0.55416  0.09562  1.0000
  S   S291      1.0  0.25673  0.54876  0.07141  1.0000
  Fe  Fe146     1.0  0.21856  0.54510  0.11829  1.0000
  S   S292      1.0  0.21276  0.55943  0.13375  1.0000
  Fe  Fe147     1.0  0.20936  0.53373  0.09798  1.0000
  S   S293      1.0  0.18929  0.53282  0.09189  1.0000
  S   S294      1.0  0.24200  0.53403  0.11229  1.0000
  S   S295      1.0  0.23195  0.52180  0.09010  1.0000
  Fe  Fe148     1.0  0.13123  0.52845  0.19491  1.0000
  C   C2041     1.0  0.36568  0.68364  0.02024  1.0000
  Fe  Fe149     1.0  0.14282  0.55428  0.19180  1.0000
  S   S296      1.0  0.15169  0.57258  0.17614  1.0000
  H   H1627     1.0  0.45860  0.68626  0.01873  1.0000
  S   S297      1.0  0.12042  0.55164  0.19362  1.0000
  C   C2042     1.0  0.17960  0.50168  0.18778  1.0000
  H   H1628     1.0  0.48566  0.56702  0.08406  1.0000
  S   S298      1.0  0.07162  0.52703  0.16040  1.0000
  H   H1629     1.0  0.12579  0.60691  0.11395  1.0000
  C   C2043     1.0  0.28297  0.62068  0.01762  1.0000
  H   H1630     1.0  0.33828  0.61708  0.00177  1.0000
  S   S299      1.0  0.15993  0.50427  0.03942  1.0000
  H   H1631     1.0  0.15900  0.49686  0.18974  1.0000
  C   C2044     1.0  0.41386  0.55916  0.01891  1.0000
  C   C2045     1.0  0.01589  0.52329  0.18970  1.0000
  C   C2046     1.0  0.19657  0.50075  0.00740  1.0000
  H   H1632     1.0  0.35692  0.50489  0.00133  1.0000
  H   H1633     1.0  0.11161  0.62330  0.12987  1.0000
  C   C2047     1.0  0.31739  0.58055  0.98839  1.0000
  C   C2048     1.0  0.38185  0.57982  0.99592  1.0000
  H   H1634     1.0  0.31964  0.50193  0.02365  1.0000
  C   C2049     1.0  0.27826  0.51564  0.09023  1.0000
  C   C2050     1.0  0.25730  0.67593  0.99234  1.0000
  C   C2051     1.0  0.33906  0.51174  0.09616  1.0000
  H   H1635     1.0  0.40092  0.67505  0.10687  1.0000
  C   C2052     1.0  0.39916  0.55456  0.04296  1.0000
  H   H1636     1.0  0.43866  0.57246  0.99620  1.0000
  C   C2053     1.0  0.11197  0.51824  0.17809  1.0000
  C   C2054     1.0  0.10447  0.53239  0.17396  1.0000
  C   C2055     1.0  0.09176  0.53514  0.16890  1.0000
  C   C2056     1.0  0.08641  0.52374  0.16835  1.0000
  C   C2057     1.0  0.17059  0.50133  0.16780  1.0000
  H   H1637     1.0  0.20354  0.60302  0.09191  1.0000
  H   H1638     1.0  0.10876  0.54116  0.17414  1.0000
  H   H1639     1.0  0.08629  0.54605  0.16510  1.0000
  C   C2058     1.0  0.20265  0.52367  0.99535  1.0000
  C   C2059     1.0  0.49172  0.74090  0.01620  1.0000
  C   C2060     1.0  0.19515  0.56283  0.14451  1.0000
  C   C2061     1.0  0.18684  0.55236  0.15018  1.0000
  C   C2062     1.0  0.17354  0.55508  0.16012  1.0000
  C   C2063     1.0  0.16838  0.56838  0.16403  1.0000
  C   C2064     1.0  0.17648  0.57894  0.15789  1.0000
  C   C2065     1.0  0.18988  0.57611  0.14834  1.0000
  H   H1640     1.0  0.19091  0.54203  0.14736  1.0000
  H   H1641     1.0  0.16735  0.54690  0.16471  1.0000
  H   H1642     1.0  0.17253  0.58926  0.16076  1.0000
  H   H1643     1.0  0.19627  0.58420  0.14401  1.0000
  C   C2066     1.0  0.19193  0.52259  0.07925  1.0000
  C   C2067     1.0  0.18054  0.51681  0.07919  1.0000
  C   C2068     1.0  0.39058  0.58978  0.99276  1.0000
  C   C2069     1.0  0.46857  0.53894  0.08402  1.0000
  H   H1644     1.0  0.02125  0.54149  0.14943  1.0000
  C   C2070     1.0  0.20511  0.52017  0.06927  1.0000
  H   H1645     1.0  0.31283  0.61511  0.01039  1.0000
  H   H1646     1.0  0.21152  0.51482  0.20990  1.0000
  C   C2071     1.0  0.18229  0.50856  0.06931  1.0000
  H   H1647     1.0  0.21390  0.52473  0.06913  1.0000
  C   C2072     1.0  0.28210  0.57737  0.07842  1.0000
  C   C2073     1.0  0.26985  0.57389  0.08874  1.0000
  C   C2074     1.0  0.26208  0.56501  0.08676  1.0000
  C   C2075     1.0  0.26630  0.55985  0.07425  1.0000
  C   C2076     1.0  0.27850  0.56339  0.06387  1.0000
  C   C2077     1.0  0.28653  0.57192  0.06604  1.0000
  H   H1648     1.0  0.26631  0.57814  0.09828  1.0000
  H   H1649     1.0  0.25265  0.56241  0.09480  1.0000
  H   H1650     1.0  0.28169  0.55962  0.05408  1.0000
  H   H1651     1.0  0.29582  0.57470  0.05791  1.0000
  H   H1652     1.0  0.18411  0.50734  0.14694  1.0000
  C   C2078     1.0  0.32367  0.58443  0.00856  1.0000
  H   H1653     1.0  0.17783  0.50069  0.19917  1.0000
  C   C2079     1.0  0.31062  0.58114  0.01735  1.0000
  C   C2080     1.0  0.10979  0.51558  0.13433  1.0000
  C   C2081     1.0  0.20063  0.51295  0.00774  1.0000
  H   H1654     1.0  0.30800  0.58135  0.02855  1.0000
  C   C2082     1.0  0.36897  0.64787  0.07014  1.0000
  C   C2083     1.0  0.36242  0.63642  0.07833  1.0000
  C   C2084     1.0  0.35436  0.63072  0.07252  1.0000
  C   C2085     1.0  0.35221  0.63691  0.05865  1.0000
  C   C2086     1.0  0.35856  0.64850  0.05060  1.0000
  C   C2087     1.0  0.36717  0.65373  0.05617  1.0000
  H   H1655     1.0  0.36346  0.63209  0.08925  1.0000
  H   H1656     1.0  0.34935  0.62194  0.07893  1.0000
  H   H1657     1.0  0.35684  0.65342  0.03996  1.0000
  H   H1658     1.0  0.37207  0.66258  0.04983  1.0000
  C   C2088     1.0  0.29578  0.49340  0.09517  1.0000
  C   C2089     1.0  0.44368  0.61397  0.05143  1.0000
  H   H1659     1.0  0.29129  0.57422  0.01848  1.0000
  C   C2090     1.0  0.40010  0.67879  0.00068  1.0000
  C   C2091     1.0  0.40287  0.66418  0.00680  1.0000
  C   C2092     1.0  0.40214  0.65428  0.99966  1.0000
  H   H1660     1.0  0.29592  0.66595  0.99822  1.0000
  C   C2093     1.0  0.45348  0.54157  0.08895  1.0000
  H   H1661     1.0  0.40580  0.66053  0.01699  1.0000
  H   H1662     1.0  0.40427  0.64301  0.00455  1.0000
  H   H1663     1.0  0.03610  0.52851  0.18849  1.0000
  H   H1664     1.0  0.48601  0.60335  0.04815  1.0000
  C   C2094     1.0  0.33805  0.54395  0.03924  1.0000
  C   C2095     1.0  0.46056  0.63739  0.00535  1.0000
  C   C2096     1.0  0.44886  0.64858  0.00868  1.0000
  C   C2097     1.0  0.44581  0.65241  0.02176  1.0000
  C   C2098     1.0  0.45444  0.64505  0.03164  1.0000
  C   C2099     1.0  0.46643  0.63403  0.02822  1.0000
  C   C2100     1.0  0.46943  0.63010  0.01508  1.0000
  H   H1665     1.0  0.44192  0.65412  0.00127  1.0000
  H   H1666     1.0  0.43670  0.66106  0.02415  1.0000
  H   H1667     1.0  0.47314  0.62831  0.03585  1.0000
  H   H1668     1.0  0.47857  0.62150  0.01248  1.0000
  C   C2101     1.0  0.20688  0.51186  0.05938  1.0000
  H   H1669     1.0  0.34771  0.54569  0.99397  1.0000
  S   S300      1.0  0.39458  0.50090  0.05844  1.0000
  C   C2102     1.0  0.45818  0.54877  0.01232  1.0000
  C   C2103     1.0  0.44860  0.54056  0.02190  1.0000
  H   H1670     1.0  0.33094  0.56362  0.09337  1.0000
  H   H1671     1.0  0.44292  0.54334  0.03200  1.0000
  C   C2104     1.0  0.49768  0.70909  0.08689  1.0000
  C   C2105     1.0  0.36919  0.54334  0.07085  1.0000
  C   C2106     1.0  0.37640  0.53228  0.08026  1.0000
  C   C2107     1.0  0.38403  0.51933  0.07634  1.0000
  C   C2108     1.0  0.38471  0.51736  0.06287  1.0000
  C   C2109     1.0  0.37745  0.52839  0.05337  1.0000
  C   C2110     1.0  0.36960  0.54139  0.05741  1.0000
  H   H1672     1.0  0.37615  0.53376  0.09063  1.0000
  H   H1673     1.0  0.38959  0.51087  0.08369  1.0000
  H   H1674     1.0  0.37789  0.52693  0.04294  1.0000
  H   H1675     1.0  0.36420  0.54999  0.05002  1.0000
  C   C2111     1.0  0.44226  0.71500  0.08934  1.0000
  C   C2112     1.0  0.44045  0.70169  0.08880  1.0000
  C   C2113     1.0  0.43172  0.70084  0.08018  1.0000
  C   C2114     1.0  0.42463  0.71335  0.07205  1.0000
  C   C2115     1.0  0.42659  0.72665  0.07248  1.0000
  C   C2116     1.0  0.43544  0.72747  0.08098  1.0000
  H   H1676     1.0  0.44568  0.69197  0.09521  1.0000
  H   H1677     1.0  0.43029  0.69054  0.08001  1.0000
  C   C2117     1.0  0.49625  0.58290  0.08438  1.0000
  C   C2118     1.0  0.33854  0.50515  0.99352  1.0000
  H   H1678     1.0  0.14314  0.54307  0.15882  1.0000
  H   H1679     1.0  0.17399  0.53104  0.12181  1.0000
  C   C2119     1.0  0.33507  0.51357  0.08324  1.0000
  H   H1680     1.0  0.17038  0.55630  0.10879  1.0000
  C   C2120     1.0  0.31458  0.68987  0.00850  1.0000
  C   C2121     1.0  0.48772  0.56880  0.04314  1.0000
  H   H1681     1.0  0.49173  0.64170  0.05222  1.0000
  H   H1682     1.0  0.04780  0.55307  0.21152  1.0000
  C   C2122     1.0  0.19223  0.50548  0.17842  1.0000
  C   C2123     1.0  0.48854  0.57713  0.07841  1.0000
  P   P69       1.0  0.20599  0.50850  0.18522  1.0000
  C   C2124     1.0  0.20193  0.52746  0.18445  1.0000
  H   H1683     1.0  0.01493  0.51761  0.20077  1.0000
  C   C2125     1.0  0.33526  0.53739  0.05377  1.0000
  H   H1684     1.0  0.30491  0.54809  0.03268  1.0000
  C   C2126     1.0  0.21032  0.53646  0.17409  1.0000
  C   C2127     1.0  0.20701  0.55111  0.17381  1.0000
  C   C2128     1.0  0.18980  0.53343  0.19402  1.0000
  C   C2129     1.0  0.22421  0.50213  0.17561  1.0000
  C   C2130     1.0  0.23592  0.50622  0.17758  1.0000
  C   C2131     1.0  0.25016  0.50086  0.17072  1.0000
  H   H1685     1.0  0.40112  0.54776  0.99633  1.0000
  C   C2132     1.0  0.48864  0.59759  0.05837  1.0000
  C   C2133     1.0  0.04971  0.54158  0.21271  1.0000
  C   C2134     1.0  0.19499  0.55696  0.18348  1.0000
  S   S301      1.0  0.40702  0.52245  0.01970  1.0000
  H   H1686     1.0  0.33341  0.65366  0.01898  1.0000
  S   S302      1.0  0.38856  0.49843  0.02246  1.0000
  H   H1687     1.0  0.33571  0.54456  0.08053  1.0000
  C   C2135     1.0  0.03595  0.49793  0.09962  1.0000
  H   H1688     1.0  0.15276  0.49689  0.21796  1.0000
  H   H1689     1.0  0.21916  0.53235  0.16596  1.0000
  H   H1690     1.0  0.21335  0.55806  0.16561  1.0000
  H   H1691     1.0  0.23401  0.51364  0.18434  1.0000
  H   H1692     1.0  0.25911  0.50434  0.17198  1.0000
  H   H1693     1.0  0.21713  0.50987  0.05180  1.0000
  C   C2136     1.0  0.50128  0.57239  0.03680  1.0000
  C   C2137     1.0  0.28945  0.52308  0.08496  1.0000
  Fe  Fe150     1.0  0.11865  0.54630  0.21742  1.0000
  Fe  Fe151     1.0  0.39467  0.51771  0.00646  1.0000
  C   C2138     1.0  0.45391  0.60254  0.05722  1.0000
  H   H1694     1.0  0.49931  0.57721  0.09441  1.0000
  C   C2139     1.0  0.44851  0.60365  0.03097  1.0000
  H   H1695     1.0  0.08759  0.50299  0.11359  1.0000
  H   H1696     1.0  0.24346  0.49616  0.02900  1.0000
  C   C2140     1.0  0.32159  0.53428  0.06084  1.0000
  H   H1697     1.0  0.47518  0.52845  0.08748  1.0000
  H   H1698     1.0  0.10760  0.49752  0.15210  1.0000
  C   C2141     1.0  0.34286  0.64904  0.01166  1.0000
  H   H1699     1.0  0.15800  0.60800  0.09507  1.0000
  C   C2142     1.0  0.45144  0.56585  0.07473  1.0000
  C   C2143     1.0  0.34974  0.65775  0.99941  1.0000
  H   H1700     1.0  0.34485  0.72361  0.14381  1.0000
  H   H1701     1.0  0.26711  0.52144  0.09034  1.0000
  H   H1702     1.0  0.40252  0.67823  0.13007  1.0000
  H   H1703     1.0  0.36241  0.66543  0.01537  1.0000
  H   H1704     1.0  0.33993  0.70684  0.99527  1.0000
  C   C2144     1.0  0.30393  0.51582  0.08504  1.0000
  C   C2145     1.0  0.36064  0.62800  0.00571  1.0000
  H   H1705     1.0  0.49930  0.61345  0.05894  1.0000
  H   H1706     1.0  0.07885  0.53772  0.22819  1.0000
  H   H1707     1.0  0.10970  0.58062  0.09944  1.0000
  H   H1708     1.0  0.15985  0.55074  0.09029  1.0000
  P   P70       1.0  0.40755  0.58449  0.99841  1.0000
  P   P71       1.0  0.28657  0.63029  0.99914  1.0000
  H   H1709     1.0  0.36788  0.70361  0.02263  1.0000
  C   C2146     1.0  0.49044  0.70110  0.08301  1.0000
  S   S303      1.0  0.15373  0.53149  0.19141  1.0000
  S   S304      1.0  0.14017  0.55111  0.21543  1.0000
  H   H1710     1.0  0.16162  0.58321  0.08563  1.0000
  C   C2147     1.0  0.14359  0.50870  0.13981  1.0000
  S   S305      1.0  0.02206  0.50325  0.14561  1.0000
  H   H1711     1.0  0.34380  0.53485  0.05947  1.0000
  C   C2148     1.0  0.14458  0.49513  0.14879  1.0000
  C   C2149     1.0  0.49712  0.64576  0.05781  1.0000
  C   C2150     1.0  0.36600  0.72682  0.13156  1.0000
  H   H1712     1.0  0.20182  0.51422  0.01774  1.0000
  H   H1713     1.0  0.14007  0.60275  0.15894  1.0000
  C   C2151     1.0  0.49711  0.73293  0.04429  1.0000
  C   C2152     1.0  0.18073  0.60687  0.09227  1.0000
  C   C2153     1.0  0.22704  0.49222  0.16708  1.0000
  H   H1714     1.0  0.37049  0.71545  0.13249  1.0000
  C   C2154     1.0  0.27480  0.64805  0.99674  1.0000
  S   S306      1.0  0.12904  0.51427  0.18218  1.0000
  C   C2155     1.0  0.46148  0.59154  0.04991  1.0000
  C   C2156     1.0  0.40051  0.68750  0.12151  1.0000
  H   H1715     1.0  0.41810  0.53971  0.03488  1.0000
  H   H1716     1.0  0.08880  0.50094  0.17413  1.0000
  C   C2157     1.0  0.39883  0.70126  0.12350  1.0000
  C   C2158     1.0  0.31069  0.53814  0.05307  1.0000
  C   C2159     1.0  0.18289  0.50563  0.15836  1.0000
  C   C2160     1.0  0.15161  0.51040  0.12570  1.0000
  C   C2161     1.0  0.04655  0.51818  0.22734  1.0000
  C   C2162     1.0  0.44645  0.70248  0.00445  1.0000
  H   H1717     1.0  0.16215  0.49979  0.16380  1.0000
  C   C2163     1.0  0.29365  0.50808  0.05269  1.0000
  H   H1718     1.0  0.43819  0.62267  0.05687  1.0000
  H   H1719     1.0  0.46485  0.72069  0.98681  1.0000
  C   C2164     1.0  0.12342  0.50958  0.11177  1.0000
  H   H1720     1.0  0.38485  0.56911  0.00220  1.0000
  H   H1721     1.0  0.46945  0.67023  0.00176  1.0000
  H   H1722     1.0  0.14924  0.58301  0.06753  1.0000
  H   H1723     1.0  0.26685  0.49226  0.03546  1.0000
  H   H1724     1.0  0.18138  0.57132  0.12099  1.0000
  H   H1725     1.0  0.47351  0.55094  0.99209  1.0000
  C   C2165     1.0  0.01954  0.53678  0.16077  1.0000
  H   H1726     1.0  0.03849  0.51606  0.10554  1.0000
  H   H1727     1.0  0.29259  0.53731  0.10124  1.0000
  C   C2166     1.0  0.49729  0.68720  0.08116  1.0000
  C   C2167     1.0  0.35316  0.70688  0.00902  1.0000
  C   C2168     1.0  0.19373  0.58634  0.10686  1.0000
  C   C2169     1.0  0.37455  0.73686  0.12397  1.0000
  H   H1728     1.0  0.12329  0.58173  0.07430  1.0000
  C   C2170     1.0  0.26756  0.51278  0.06155  1.0000
  H   H1729     1.0  0.28789  0.55696  0.11309  1.0000
  C   C2171     1.0  0.35279  0.50002  0.99533  1.0000
  H   H1730     1.0  0.49129  0.68125  0.07837  1.0000
  H   H1731     1.0  0.21177  0.49811  0.09529  1.0000
  H   H1732     1.0  0.28519  0.62212  0.05061  1.0000
  C   C2172     1.0  0.14165  0.53960  0.07278  1.0000
  C   C2173     1.0  0.15263  0.54433  0.07518  1.0000
  C   C2174     1.0  0.15106  0.54759  0.08829  1.0000
  C   C2175     1.0  0.13841  0.54641  0.09891  1.0000
  C   C2176     1.0  0.12716  0.54194  0.09650  1.0000
  C   C2177     1.0  0.12902  0.53836  0.08338  1.0000
  P   P72       1.0  0.11150  0.53868  0.11072  1.0000
  C   C2178     1.0  0.11554  0.52001  0.11969  1.0000
  C   C2179     1.0  0.10714  0.55041  0.12296  1.0000
  C   C2180     1.0  0.09474  0.56172  0.12318  1.0000
  C   C2181     1.0  0.09118  0.57050  0.13294  1.0000
  C   C2182     1.0  0.09991  0.56803  0.14259  1.0000
  C   C2183     1.0  0.11221  0.55682  0.14246  1.0000
  C   C2184     1.0  0.11585  0.54808  0.13267  1.0000
  S   S307      1.0  0.24278  0.49300  0.12383  1.0000
  C   C2185     1.0  0.31345  0.54483  0.03856  1.0000
  S   S308      1.0  0.46395  0.63325  0.98871  1.0000
  S   S309      1.0  0.09812  0.55513  0.23241  1.0000
  C   C2186     1.0  0.19460  0.49919  0.99467  1.0000
  C   C2187     1.0  0.09557  0.54165  0.10377  1.0000
  C   C2188     1.0  0.08426  0.53471  0.11174  1.0000
  C   C2189     1.0  0.07185  0.53702  0.10651  1.0000
  C   C2190     1.0  0.07055  0.54635  0.09336  1.0000
  C   C2191     1.0  0.08156  0.55361  0.08555  1.0000
  C   C2192     1.0  0.09395  0.55142  0.09080  1.0000
  H   H1733     1.0  0.14311  0.53639  0.06288  1.0000
  H   H1734     1.0  0.16261  0.54492  0.06711  1.0000
  H   H1735     1.0  0.45611  0.60246  0.06724  1.0000
  Fe  Fe152     1.0  0.04396  0.49639  0.15134  1.0000
  H   H1736     1.0  0.12094  0.53409  0.08147  1.0000
  H   H1737     1.0  0.08763  0.56374  0.11601  1.0000
  H   H1738     1.0  0.08147  0.57901  0.13322  1.0000
  H   H1739     1.0  0.09699  0.57458  0.15039  1.0000
  H   H1740     1.0  0.11867  0.55464  0.15026  1.0000
  H   H1741     1.0  0.12534  0.53940  0.13281  1.0000
  H   H1742     1.0  0.10339  0.52332  0.14067  1.0000
  C   C2193     1.0  0.34972  0.68524  0.00499  1.0000
  H   H1743     1.0  0.47968  0.64587  0.07651  1.0000
  P   P73       1.0  0.31827  0.52566  0.07970  1.0000
  H   H1744     1.0  0.49222  0.71978  0.08856  1.0000
  H   H1745     1.0  0.08502  0.52746  0.12200  1.0000
  H   H1746     1.0  0.06323  0.53152  0.11264  1.0000
  H   H1747     1.0  0.06100  0.54797  0.08925  1.0000
  H   H1748     1.0  0.08052  0.56089  0.07538  1.0000
  H   H1749     1.0  0.10224  0.55731  0.08470  1.0000
  C   C2194     1.0  0.45836  0.59200  0.03696  1.0000
  C   C2195     1.0  0.00785  0.49711  0.23096  1.0000
  C   C2196     1.0  0.01885  0.49179  0.13681  1.0000
  C   C2197     1.0  0.48474  0.58441  0.06530  1.0000
  C   C2198     1.0  0.48969  0.73370  0.00697  1.0000
  C   C2199     1.0  0.20953  0.50411  0.21294  1.0000
  C   C2200     1.0  0.04376  0.53311  0.22562  1.0000
  H   H1750     1.0  0.42729  0.53955  0.99664  1.0000
  H   H1751     1.0  0.09081  0.52232  0.21060  1.0000
  C   C2201     1.0  0.45082  0.71709  0.03935  1.0000
  C   C2202     1.0  0.00734  0.53095  0.16771  1.0000
  H   H1752     1.0  0.39642  0.69625  0.08729  1.0000
  H   H1753     1.0  0.27365  0.60147  0.05765  1.0000
  H   H1754     1.0  0.27491  0.60419  0.01388  1.0000
  H   H1755     1.0  0.32929  0.55298  0.02042  1.0000
  C   C2203     1.0  0.27633  0.60673  0.04649  1.0000
  H   H1756     1.0  0.34270  0.62749  0.02393  1.0000
  C   C2204     1.0  0.09119  0.51811  0.22177  1.0000
  H   H1757     1.0  0.16626  0.62043  0.21619  1.0000
  C   C2205     1.0  0.46660  0.56336  0.06988  1.0000
  H   H1758     1.0  0.16014  0.52444  0.14676  1.0000
  H   H1759     1.0  0.20268  0.51193  0.15617  1.0000
  Fe  Fe153     1.0  0.42639  0.50813  0.00865  1.0000
  C   C2206     1.0  0.26820  0.65492  0.00820  1.0000
  H   H1760     1.0  0.28103  0.68419  0.01217  1.0000
  H   H1761     1.0  0.05646  0.50060  0.21641  1.0000
  H   H1762     1.0  0.16685  0.50004  0.10965  1.0000
  H   H1763     1.0  0.25742  0.52023  0.06463  1.0000
  C   C2207     1.0  0.35140  0.73142  0.13802  1.0000
  C   C2208     1.0  0.19551  0.50591  0.05949  1.0000
  C   C2209     1.0  0.39959  0.68569  0.10848  1.0000
  C   C2210     1.0  0.19349  0.50806  0.16364  1.0000
  H   H1764     1.0  0.47938  0.70562  0.08168  1.0000
  C   C2211     1.0  0.29383  0.49380  0.05347  1.0000
  Fe  Fe154     1.0  0.14908  0.52780  0.21516  1.0000
  C   C2212     1.0  0.27365  0.60159  0.03609  1.0000
  H   H1765     1.0  0.17039  0.51852  0.08694  1.0000
  C   C2213     1.0  0.12885  0.60568  0.12386  1.0000
  H   H1766     1.0  0.19456  0.49270  0.01715  1.0000
  C   C2214     1.0  0.46585  0.54490  0.99941  1.0000
  C   C2215     1.0  0.02118  0.49770  0.23287  1.0000
  C   C2216     1.0  0.19362  0.59912  0.09652  1.0000
  S   S310      1.0  0.12741  0.52270  0.21883  1.0000
  C   C2217     1.0  0.40503  0.73068  0.12677  1.0000
  H   H1767     1.0  0.20542  0.53330  0.99573  1.0000
  C   C2218     1.0  0.39550  0.71140  0.09934  1.0000
  C   C2219     1.0  0.34820  0.63421  0.01465  1.0000
  H   H1768     1.0  0.06668  0.51560  0.19390  1.0000
  H   H1769     1.0  0.10456  0.49768  0.21835  1.0000
  H   H1770     1.0  0.44042  0.71967  0.03643  1.0000
  H   H1771     1.0  0.49211  0.65479  0.08944  1.0000
  H   H1772     1.0  0.43690  0.73775  0.08116  1.0000
  H   H1773     1.0  0.48678  0.70805  0.05204  1.0000
  H   H1774     1.0  0.44150  0.70937  0.01200  1.0000
  C   C2220     1.0  0.04383  0.50574  0.10290  1.0000
  C   C2221     1.0  0.30120  0.57710  0.01164  1.0000
  H   H1775     1.0  0.13764  0.54882  0.10899  1.0000
  C   C2222     1.0  0.11194  0.50097  0.14085  1.0000
  C   C2223     1.0  0.02791  0.52942  0.18280  1.0000
  H   H1776     1.0  0.06275  0.54178  0.19129  1.0000
  C   C2224     1.0  0.28047  0.51762  0.05646  1.0000
  H   H1777     1.0  0.43931  0.71518  0.13209  1.0000
  H   H1778     1.0  0.44839  0.53314  0.09624  1.0000
  C   C2225     1.0  0.32305  0.67974  0.00042  1.0000
  C   C2226     1.0  0.10328  0.58956  0.23292  1.0000
  C   C2227     1.0  0.36228  0.65147  0.99054  1.0000
  C   C2228     1.0  0.09618  0.49765  0.10617  1.0000
  H   H1779     1.0  0.26956  0.64967  0.01889  1.0000
  H   H1780     1.0  0.01803  0.49625  0.18339  1.0000
  C   C2229     1.0  0.44116  0.61466  0.03819  1.0000
  C   C2230     1.0  0.21064  0.49585  0.22660  1.0000
  S   S311      1.0  0.12546  0.50899  0.06996  1.0000
  C   C2231     1.0  0.09329  0.50972  0.17366  1.0000
  C   C2232     1.0  0.06042  0.52050  0.20278  1.0000
  H   H1781     1.0  0.19234  0.49175  0.11601  1.0000
  H   H1782     1.0  0.47199  0.68999  0.05874  1.0000
  H   H1783     1.0  0.27255  0.49524  0.09977  1.0000
  H   H1784     1.0  0.44462  0.57603  0.07091  1.0000
  C   C2233     1.0  0.32684  0.58435  0.99406  1.0000
  C   C2234     1.0  0.44273  0.70636  0.99116  1.0000
  C   C2235     1.0  0.42399  0.73098  0.14301  1.0000
  H   H1785     1.0  0.33114  0.52118  0.02343  1.0000
  H   H1786     1.0  0.48941  0.54624  0.02237  1.0000
  C   C2236     1.0  0.25950  0.66878  0.00599  1.0000
  C   C2237     1.0  0.41109  0.55017  0.03247  1.0000
  H   H1787     1.0  0.44697  0.60426  0.02051  1.0000
  C   C2238     1.0  0.35789  0.49766  0.07515  1.0000
  C   C2239     1.0  0.31615  0.67108  0.99686  1.0000
  H   H1788     1.0  0.25438  0.67395  0.01491  1.0000
  C   C2240     1.0  0.41352  0.59952  0.99977  1.0000
  C   C2241     1.0  0.28631  0.62529  0.02811  1.0000
  C   C2242     1.0  0.45315  0.52560  0.00506  1.0000
  C   C2243     1.0  0.28276  0.62092  0.98810  1.0000
  S   S312      1.0  0.41444  0.50529  0.99381  1.0000
  C   C2244     1.0  0.10626  0.50696  0.17811  1.0000
  C   C2245     1.0  0.39644  0.71335  0.11237  1.0000
  C   C2246     1.0  0.36903  0.58363  0.99100  1.0000
  C   C2247     1.0  0.27693  0.60853  0.02170  1.0000
  C   C2248     1.0  0.42660  0.62040  0.00160  1.0000
  C   C2249     1.0  0.41985  0.61197  0.01399  1.0000
  C   C2250     1.0  0.41339  0.60155  0.01314  1.0000
  C   C2251     1.0  0.40445  0.57251  0.01574  1.0000
  C   C2252     1.0  0.38971  0.56782  0.03989  1.0000
  C   C2253     1.0  0.39223  0.57671  0.02629  1.0000
  H   H1789     1.0  0.18063  0.61686  0.08436  1.0000
  C   C2254     1.0  0.35254  0.50315  0.09838  1.0000
  H   H1790     1.0  0.42288  0.71502  0.11766  1.0000
  H   H1791     1.0  0.49513  0.71656  0.14141  1.0000
  C   C2255     1.0  0.02977  0.53610  0.16832  1.0000
  C   C2256     1.0  0.12512  0.49502  0.11827  1.0000
  H   H1792     1.0  0.10034  0.51729  0.09141  1.0000
  C   C2257     1.0  0.33553  0.51011  0.02809  1.0000
  H   H1793     1.0  0.48681  0.54756  0.07061  1.0000
  H   H1794     1.0  0.24654  0.49293  0.09420  1.0000
  H   H1795     1.0  0.43169  0.62845  0.00226  1.0000
  H   H1796     1.0  0.41975  0.61339  0.02429  1.0000
  H   H1797     1.0  0.40867  0.59496  0.02297  1.0000
  H   H1798     1.0  0.38034  0.57109  0.04803  1.0000
  H   H1799     1.0  0.38470  0.58692  0.02400  1.0000
  C   C2258     1.0  0.35906  0.58589  0.09503  1.0000
  C   C2259     1.0  0.35480  0.59302  0.10620  1.0000
  C   C2260     1.0  0.36339  0.60156  0.10711  1.0000
  C   C2261     1.0  0.37622  0.60302  0.09683  1.0000
  C   C2262     1.0  0.38055  0.59601  0.08543  1.0000
  C   C2263     1.0  0.37179  0.58745  0.08463  1.0000
  P   P74       1.0  0.39674  0.59858  0.07166  1.0000
  C   C2264     1.0  0.40790  0.60557  0.07846  1.0000
  C   C2265     1.0  0.40741  0.58202  0.06667  1.0000
  C   C2266     1.0  0.41824  0.58251  0.05400  1.0000
  C   C2267     1.0  0.42675  0.56984  0.04999  1.0000
  C   C2268     1.0  0.42453  0.55659  0.05862  1.0000
  C   C2269     1.0  0.41381  0.55599  0.07126  1.0000
  C   C2270     1.0  0.40540  0.56865  0.07539  1.0000
  C   C2271     1.0  0.40460  0.62016  0.07865  1.0000
  C   C2272     1.0  0.41323  0.62561  0.08379  1.0000
  C   C2273     1.0  0.42507  0.61646  0.08913  1.0000
  C   C2274     1.0  0.42812  0.60179  0.08953  1.0000
  C   C2275     1.0  0.41951  0.59635  0.08430  1.0000
  C   C2276     1.0  0.39161  0.61046  0.05562  1.0000
  C   C2277     1.0  0.38116  0.60792  0.05010  1.0000
  C   C2278     1.0  0.37741  0.61679  0.03751  1.0000
  C   C2279     1.0  0.38389  0.62837  0.03039  1.0000
  C   C2280     1.0  0.39435  0.63090  0.03573  1.0000
  C   C2281     1.0  0.39850  0.62181  0.04802  1.0000
  H   H1800     1.0  0.35239  0.57925  0.09435  1.0000
  H   H1801     1.0  0.34477  0.59200  0.11406  1.0000
  H   H1802     1.0  0.36000  0.60728  0.11565  1.0000
  H   H1803     1.0  0.38247  0.60992  0.09773  1.0000
  H   H1804     1.0  0.37478  0.58186  0.07604  1.0000
  H   H1805     1.0  0.42012  0.59269  0.04719  1.0000
  H   H1806     1.0  0.43497  0.57030  0.04010  1.0000
  H   H1807     1.0  0.43101  0.54678  0.05544  1.0000
  H   H1808     1.0  0.41193  0.54571  0.07781  1.0000
  H   H1809     1.0  0.39733  0.56790  0.08534  1.0000
  H   H1810     1.0  0.39529  0.62734  0.07483  1.0000
  H   H1811     1.0  0.41063  0.63698  0.08365  1.0000
  H   H1812     1.0  0.43180  0.62075  0.09303  1.0000
  H   H1813     1.0  0.43715  0.59465  0.09390  1.0000
  H   H1814     1.0  0.42179  0.58496  0.08496  1.0000
  H   H1815     1.0  0.37576  0.59920  0.05548  1.0000
  H   H1816     1.0  0.36905  0.61503  0.03357  1.0000
  H   H1817     1.0  0.38065  0.63548  0.02085  1.0000
  H   H1818     1.0  0.39933  0.63989  0.03033  1.0000
  H   H1819     1.0  0.40713  0.62375  0.05138  1.0000
  Fe  Fe155     1.0  0.06718  0.50703  0.15758  1.0000
  P   P75       1.0  0.34267  0.67685  0.99539  1.0000
  C   C2282     1.0  0.20586  0.49855  0.20336  1.0000
  S   S313      1.0  0.19810  0.49476  0.04771  1.0000
  H   H1820     1.0  0.19206  0.56841  0.18282  1.0000
  H   H1821     1.0  0.33199  0.51728  0.10433  1.0000
  S   S314      1.0  0.44915  0.51205  0.99974  1.0000
  C   C2283     1.0  0.32913  0.49924  0.02815  1.0000
  S   S315      1.0  0.15809  0.49164  0.00706  1.0000
  H   H1822     1.0  0.29999  0.53629  0.05816  1.0000
  H   H1823     1.0  0.32251  0.66286  0.99107  1.0000
  C   C2284     1.0  0.29947  0.69151  0.01264  1.0000
  C   C2285     1.0  0.50012  0.59599  0.07736  1.0000
  C   C2286     1.0  0.44493  0.55502  0.08431  1.0000
  C   C2287     1.0  0.49623  0.60335  0.06443  1.0000
  H   H1824     1.0  0.25754  0.49499  0.06644  1.0000
  H   H1825     1.0  0.12767  0.51250  0.10040  1.0000
  C   C2288     1.0  0.34682  0.70026  0.00250  1.0000
  H   H1826     1.0  0.43322  0.55699  0.08799  1.0000
  C   C2289     1.0  0.36259  0.69856  0.01788  1.0000
  C   C2290     1.0  0.18631  0.54813  0.19351  1.0000
  C   C2291     1.0  0.30107  0.67274  0.00099  1.0000
  C   C2292     1.0  0.18102  0.58115  0.11286  1.0000
  H   H1827     1.0  0.35585  0.50225  0.10809  1.0000
  Fe  Fe156     1.0  0.45609  0.73579  0.10470  1.0000
  H   H1828     1.0  0.43836  0.52290  0.02551  1.0000
  C   C2293     1.0  0.49037  0.64809  0.07151  1.0000
  C   C2294     1.0  0.00534  0.49449  0.13335  1.0000
  C   C2295     1.0  0.48369  0.55905  0.03805  1.0000
  C   C2296     1.0  0.32521  0.54705  0.08763  1.0000
  C   C2297     1.0  0.16797  0.60178  0.09831  1.0000
  Fe  Fe157     1.0  0.14475  0.49469  0.05878  1.0000
  H   H1829     1.0  0.25054  0.68667  0.99064  1.0000
  H   H1830     1.0  0.36478  0.61649  0.00805  1.0000
  H   H1831     1.0  0.43392  0.62399  0.03333  1.0000
  C   C2298     1.0  0.05460  0.51200  0.21566  1.0000
  H   H1832     1.0  0.28668  0.53460  0.08126  1.0000
  H   H1833     1.0  0.30688  0.57034  0.10920  1.0000
  C   C2299     1.0  0.14489  0.61795  0.22843  1.0000
  H   H1834     1.0  0.42119  0.73639  0.06622  1.0000
  C   C2300     1.0  0.12788  0.58169  0.10677  1.0000
  H   H1835     1.0  0.03940  0.54034  0.16286  1.0000
  C   C2301     1.0  0.29841  0.55398  0.10619  1.0000
  C   C2302     1.0  0.32259  0.55786  0.09497  1.0000
  C   C2303     1.0  0.45555  0.70356  0.04760  1.0000
  Fe  Fe158     1.0  0.40220  0.50226  0.03483  1.0000
  C   C2304     1.0  0.13690  0.60367  0.14912  1.0000
  H   H1836     1.0  0.35318  0.51507  0.03316  1.0000
  C   C2305     1.0  0.31440  0.53963  0.08942  1.0000
  C   C2306     1.0  0.47512  0.54978  0.07449  1.0000
  H   H1837     1.0  0.39938  0.70247  0.13374  1.0000
  C   C2307     1.0  0.47694  0.71069  0.04817  1.0000
  C   C2308     1.0  0.34434  0.50601  0.07300  1.0000
  H   H1838     1.0  0.44886  0.69571  0.05090  1.0000
  C   C2309     1.0  0.16808  0.58875  0.10847  1.0000
  H   H1839     1.0  0.12193  0.58085  0.11777  1.0000
  H   H1840     1.0  0.47312  0.55641  0.04246  1.0000
  H   H1841     1.0  0.17667  0.55272  0.20065  1.0000
  H   H1842     1.0  0.18291  0.52674  0.20174  1.0000
  C   C2310     1.0  0.30108  0.54297  0.09909  1.0000
  H   H1843     1.0  0.15438  0.58647  0.14303  1.0000
  C   C2311     1.0  0.30912  0.56150  0.10405  1.0000
  H   H1844     1.0  0.20370  0.58045  0.11029  1.0000
  H   H1845     1.0  0.28016  0.52878  0.05563  1.0000
  C   C2312     1.0  0.12094  0.58148  0.09644  1.0000
  H   H1846     1.0  0.13643  0.51778  0.14391  1.0000
  C   C2313     1.0  0.32715  0.54768  0.03164  1.0000
  C   C2314     1.0  0.08439  0.52672  0.23168  1.0000
  H   H1847     1.0  0.42324  0.55564  0.01099  1.0000
  C   C2315     1.0  0.28274  0.61849  0.04250  1.0000
  P   P76       1.0  0.39339  0.73113  0.11547  1.0000
  H   H1848     1.0  0.13920  0.56832  0.14604  1.0000
  H   H1849     1.0  0.11858  0.62125  0.15247  1.0000
  H   H1850     1.0  0.13808  0.49387  0.15964  1.0000
  H   H1851     1.0  0.21315  0.50031  0.23407  1.0000
  H   H1852     1.0  0.37346  0.67726  0.02664  1.0000
  H   H1853     1.0  0.15064  0.52091  0.11861  1.0000
  C   C2316     1.0  0.36202  0.49626  0.08780  1.0000
  C   C2317     1.0  0.16887  0.49955  0.18247  1.0000
  C   C2318     1.0  0.09895  0.50419  0.22615  1.0000
  C   C2319     1.0  0.12858  0.58214  0.08226  1.0000
  C   C2320     1.0  0.14319  0.58291  0.07843  1.0000
  C   C2321     1.0  0.15016  0.58313  0.08874  1.0000
  C   C2322     1.0  0.14243  0.58292  0.10291  1.0000
  P   P77       1.0  0.15139  0.58264  0.11645  1.0000
  C   C2323     1.0  0.14075  0.59497  0.12770  1.0000
  C   C2324     1.0  0.15460  0.56430  0.12642  1.0000
  C   C2325     1.0  0.14687  0.56041  0.14054  1.0000
  C   C2326     1.0  0.14894  0.54604  0.14783  1.0000
  C   C2327     1.0  0.15864  0.53550  0.14106  1.0000
  C   C2328     1.0  0.16636  0.53924  0.12703  1.0000
  C   C2329     1.0  0.16431  0.55359  0.11969  1.0000
  C   C2330     1.0  0.12481  0.61403  0.14548  1.0000
  C   C2331     1.0  0.12085  0.61511  0.13279  1.0000
  C   C2332     1.0  0.39701  0.69764  0.09746  1.0000
  C   C2333     1.0  0.11514  0.49886  0.08443  1.0000
  C   C2334     1.0  0.29271  0.68298  0.00886  1.0000
  S   S316      1.0  0.06252  0.50602  0.13720  1.0000
  C   C2335     1.0  0.46338  0.53329  0.99581  1.0000
  H   H1854     1.0  0.31804  0.49487  0.09024  1.0000
  H   H1855     1.0  0.25941  0.62736  0.99516  1.0000
  H   H1856     1.0  0.11182  0.49603  0.18172  1.0000
  H   H1857     1.0  0.31954  0.69634  0.01188  1.0000
  S   S317      1.0  0.16582  0.51434  0.22763  1.0000
  H   H1858     1.0  0.33168  0.51420  0.99789  1.0000
  H   H1859     1.0  0.17342  0.50413  0.06944  1.0000
  H   H1860     1.0  0.06464  0.50607  0.10568  1.0000
  P   P78       1.0  0.48266  0.73801  0.03482  1.0000
  C   C2336     1.0  0.30474  0.57650  0.99715  1.0000
  C   C2337     1.0  0.46229  0.68049  0.99863  1.0000
  C   C2338     1.0  0.49741  0.65320  0.07876  1.0000
  H   H1861     1.0  0.43143  0.73136  0.14901  1.0000
  C   C2339     1.0  0.45614  0.68951  0.00823  1.0000
  C   C2340     1.0  0.16089  0.49850  0.12067  1.0000
  H   H1862     1.0  0.12648  0.58420  0.22993  1.0000
  C   C2341     1.0  0.34795  0.50666  0.03359  1.0000
  S   S318      1.0  0.46815  0.73412  0.12150  1.0000
  H   H1863     1.0  0.17845  0.59576  0.22653  1.0000
  C   C2342     1.0  0.16680  0.59940  0.22995  1.0000
  C   C2343     1.0  0.16594  0.49594  0.23227  1.0000
  C   C2344     1.0  0.15994  0.61329  0.22411  1.0000
  H   H1864     1.0  0.36227  0.57593  0.99361  1.0000
  C   C2345     1.0  0.30702  0.50083  0.09002  1.0000
  C   C2346     1.0  0.31572  0.62310  0.00085  1.0000
  H   H1865     1.0  0.29302  0.69929  0.01895  1.0000
  H   H1866     1.0  0.36553  0.49285  0.06673  1.0000
  C   C2347     1.0  0.36768  0.63667  0.99373  1.0000
  H   H1867     1.0  0.39387  0.72034  0.09044  1.0000
  S   S319      1.0  0.04728  0.49955  0.17143  1.0000
  C   C2348     1.0  0.42842  0.72187  0.13350  1.0000
  C   C2349     1.0  0.33024  0.62414  0.99597  1.0000
  C   C2350     1.0  0.30527  0.63196  0.99320  1.0000
  C   C2351     1.0  0.00534  0.52426  0.18228  1.0000
  H   H1868     1.0  0.45525  0.73791  0.02917  1.0000
  C   C2352     1.0  0.28138  0.50084  0.09542  1.0000
  C   C2353     1.0  0.26771  0.49849  0.06254  1.0000
  C   C2354     1.0  0.41904  0.72179  0.12534  1.0000
  H   H1869     1.0  0.10358  0.58909  0.22216  1.0000
  H   H1870     1.0  0.48229  0.72653  0.01070  1.0000
  C   C2355     1.0  0.35382  0.49238  0.03940  1.0000
  H   H1871     1.0  0.49855  0.63257  0.98596  1.0000
  H   H1872     1.0  0.03109  0.49135  0.22762  1.0000
  H   H1873     1.0  0.43520  0.71644  0.98850  1.0000
  C   C2356     1.0  0.26827  0.62145  0.98834  1.0000
  Fe  Fe159     1.0  0.50148  0.58770  0.98659  1.0000
  Fe  Fe160     1.0  0.47362  0.61021  0.98772  1.0000
  C   C2357     1.0  0.41013  0.73997  0.14441  1.0000
  C   C2358     1.0  0.40065  0.73983  0.13636  1.0000
  H   H1874     1.0  0.37738  0.63199  0.98685  1.0000
  C   C2359     1.0  0.42651  0.61867  0.98831  1.0000
  C   C2360     1.0  0.39669  0.68344  0.98712  1.0000
  H   H1875     1.0  0.33673  0.58711  0.98713  1.0000
  H   H1876     1.0  0.48614  0.70013  0.98618  1.0000
  C   C2361     1.0  0.36825  0.53187  0.98697  1.0000
  C   C2362     1.0  0.42005  0.60829  0.98734  1.0000
  C   C2363     1.0  0.43614  0.57282  0.98624  1.0000
  C   C2364     1.0  0.39911  0.65875  0.98605  1.0000
  C   C2365     1.0  0.35381  0.53881  0.98663  1.0000
  C   C2366     1.0  0.42385  0.54180  0.98676  1.0000
  C   C2367     1.0  0.40913  0.54647  0.98656  1.0000
  S   S320      1.0  0.16537  0.72750  0.44593  1.0000
  C   C2368     1.0  0.04250  0.57569  0.43155  1.0000
  C   C2369     1.0  0.14281  0.56442  0.25818  1.0000
  Fe  Fe161     1.0  0.11640  0.71462  0.46131  1.0000
  S   S321      1.0  0.11125  0.69381  0.46066  1.0000
  C   C2370     1.0  0.14112  0.55612  0.24981  1.0000
  H   H1877     1.0  0.10998  0.59635  0.36775  1.0000
  C   C2371     1.0  0.02675  0.50919  0.27222  1.0000
  S   S322      1.0  0.13288  0.71365  0.47353  1.0000
  C   C2372     1.0  0.01455  0.58849  0.27198  1.0000
  C   C2373     1.0  0.04275  0.52855  0.27160  1.0000
  H   H1878     1.0  0.12651  0.61272  0.29161  1.0000
  C   C2374     1.0  0.00739  0.61975  0.32510  1.0000
  C   C2375     1.0  0.07838  0.62522  0.47371  1.0000
  H   H1879     1.0  0.16418  0.57939  0.24438  1.0000
  Fe  Fe162     1.0  0.05244  0.64574  0.41826  1.0000
  S   S323      1.0  0.06951  0.62754  0.41083  1.0000
  S   S324      1.0  0.02938  0.64284  0.42538  1.0000
  Fe  Fe163     1.0  0.07442  0.66324  0.41615  1.0000
  S   S325      1.0  0.09315  0.64650  0.40772  1.0000
  S   S326      1.0  0.07633  0.68426  0.42002  1.0000
  Fe  Fe164     1.0  0.07915  0.64454  0.39416  1.0000
  S   S327      1.0  0.08882  0.64177  0.37118  1.0000
  Fe  Fe165     1.0  0.08177  0.63081  0.42488  1.0000
  S   S328      1.0  0.09410  0.61215  0.43855  1.0000
  S   S329      1.0  0.06130  0.66297  0.40087  1.0000
  S   S330      1.0  0.06382  0.64747  0.43410  1.0000
  Fe  Fe166     1.0  0.08365  0.56513  0.30819  1.0000
  S   S331      1.0  0.08052  0.56549  0.33134  1.0000
  Fe  Fe167     1.0  0.05849  0.59020  0.30335  1.0000
  S   S332      1.0  0.05334  0.59323  0.32581  1.0000
  S   S333      1.0  0.04719  0.60396  0.28572  1.0000
  Fe  Fe168     1.0  0.07727  0.58952  0.32385  1.0000
  S   S334      1.0  0.08924  0.60307  0.32954  1.0000
  Fe  Fe169     1.0  0.05670  0.56929  0.33179  1.0000
  S   S335      1.0  0.03769  0.56222  0.34810  1.0000
  S   S336      1.0  0.08225  0.58874  0.30059  1.0000
  S   S337      1.0  0.06022  0.56658  0.30953  1.0000
  P   P79       1.0  0.09454  0.50043  0.26898  1.0000
  S   S338      1.0  0.12607  0.73000  0.44239  1.0000
  C   C2376     1.0  0.14537  0.69244  0.43402  1.0000
  S   S339      1.0  0.04084  0.50128  0.38945  1.0000
  C   C2377     1.0  0.10012  0.55100  0.27870  1.0000
  C   C2378     1.0  0.03259  0.50149  0.33820  1.0000
  C   C2379     1.0  0.12103  0.59234  0.30216  1.0000
  H   H1880     1.0  0.01288  0.71478  0.42408  1.0000
  Fe  Fe170     1.0  0.04511  0.55882  0.46971  1.0000
  S   S340      1.0  0.03322  0.57740  0.47967  1.0000
  S   S341      1.0  0.06785  0.55696  0.45628  1.0000
  H   H1881     1.0  0.01604  0.51212  0.29360  1.0000
  C   C2380     1.0  0.16116  0.54443  0.26730  1.0000
  C   C2381     1.0  0.00867  0.51504  0.24756  1.0000
  Fe  Fe171     1.0  0.01351  0.57479  0.47453  1.0000
  H   H1882     1.0  0.03117  0.69229  0.42152  1.0000
  H   H1883     1.0  0.07446  0.71113  0.46541  1.0000
  S   S342      1.0  0.02593  0.55739  0.46273  1.0000
  H   H1884     1.0  0.01569  0.61775  0.46200  1.0000
  C   C2382     1.0  0.07158  0.54293  0.38276  1.0000
  C   C2383     1.0  0.13541  0.50742  0.26137  1.0000
  C   C2384     1.0  0.01879  0.64966  0.28520  1.0000
  H   H1885     1.0  0.01821  0.59662  0.34647  1.0000
  C   C2385     1.0  0.11498  0.58538  0.35091  1.0000
  C   C2386     1.0  0.09347  0.73688  0.40884  1.0000
  C   C2387     1.0  0.02923  0.60560  0.26867  1.0000
  H   H1886     1.0  0.13254  0.68266  0.48213  1.0000
  C   C2388     1.0  0.14064  0.70367  0.42317  1.0000
  C   C2389     1.0  0.03956  0.54425  0.35738  1.0000
  C   C2390     1.0  0.02704  0.53876  0.36320  1.0000
  C   C2391     1.0  0.02758  0.52539  0.37267  1.0000
  C   C2392     1.0  0.04060  0.51739  0.37642  1.0000
  C   C2393     1.0  0.05339  0.52241  0.36986  1.0000
  C   C2394     1.0  0.05289  0.53582  0.36022  1.0000
  H   H1887     1.0  0.05012  0.52788  0.30962  1.0000
  H   H1888     1.0  0.07500  0.62980  0.30493  1.0000
  H   H1889     1.0  0.06358  0.51613  0.37252  1.0000
  H   H1890     1.0  0.06267  0.53987  0.35543  1.0000
  C   C2395     1.0  0.03507  0.59737  0.28043  1.0000
  H   H1891     1.0  0.13334  0.56029  0.24310  1.0000
  H   H1892     1.0  0.04046  0.63220  0.34209  1.0000
  H   H1893     1.0  0.12275  0.56628  0.28568  1.0000
  H   H1894     1.0  0.10553  0.55442  0.35333  1.0000
  C   C2396     1.0  0.08652  0.59705  0.44311  1.0000
  C   C2397     1.0  0.09560  0.58335  0.44480  1.0000
  C   C2398     1.0  0.08976  0.57119  0.44832  1.0000
  C   C2399     1.0  0.07473  0.57260  0.45104  1.0000
  C   C2400     1.0  0.06556  0.58632  0.44971  1.0000
  C   C2401     1.0  0.07152  0.59854  0.44529  1.0000
  H   H1895     1.0  0.10717  0.58216  0.44323  1.0000
  H   H1896     1.0  0.09688  0.56064  0.44940  1.0000
  H   H1897     1.0  0.05392  0.58757  0.45194  1.0000
  H   H1898     1.0  0.06450  0.60910  0.44386  1.0000
  C   C2402     1.0  0.08781  0.63044  0.36062  1.0000
  C   C2403     1.0  0.07701  0.62251  0.36398  1.0000
  C   C2404     1.0  0.07698  0.61411  0.35459  1.0000
  C   C2405     1.0  0.08788  0.61341  0.34200  1.0000
  C   C2406     1.0  0.09853  0.62131  0.33887  1.0000
  C   C2407     1.0  0.09845  0.62973  0.34798  1.0000
  H   H1899     1.0  0.06863  0.62301  0.37364  1.0000
  H   H1900     1.0  0.06855  0.60828  0.35700  1.0000
  H   H1901     1.0  0.10694  0.62099  0.32920  1.0000
  H   H1902     1.0  0.10678  0.63580  0.34518  1.0000
  C   C2408     1.0  0.02023  0.64460  0.41198  1.0000
  C   C2409     1.0  0.02515  0.65147  0.39785  1.0000
  C   C2410     1.0  0.00418  0.64871  0.39131  1.0000
  C   C2411     1.0  0.06893  0.72139  0.46817  1.0000
  C   C2412     1.0  0.03690  0.51346  0.25970  1.0000
  H   H1903     1.0  0.07667  0.56389  0.47979  1.0000
  C   C2413     1.0  0.00695  0.60066  0.31465  1.0000
  C   C2414     1.0  0.02038  0.69369  0.41985  1.0000
  C   C2415     1.0  0.09883  0.55291  0.25036  1.0000
  H   H1904     1.0  0.02509  0.67303  0.41478  1.0000
  C   C2416     1.0  0.11170  0.54365  0.26968  1.0000
  C   C2417     1.0  0.01706  0.65364  0.38759  1.0000
  C   C2418     1.0  0.08775  0.55906  0.27358  1.0000
  C   C2419     1.0  0.08703  0.55984  0.25953  1.0000
  H   H1905     1.0  0.00554  0.57486  0.34988  1.0000
  H   H1906     1.0  0.07874  0.56481  0.28038  1.0000
  H   H1907     1.0  0.07746  0.56619  0.25565  1.0000
  C   C2420     1.0  0.10220  0.69141  0.44863  1.0000
  C   C2421     1.0  0.09473  0.70299  0.43984  1.0000
  C   C2422     1.0  0.08685  0.70058  0.43126  1.0000
  C   C2423     1.0  0.08663  0.68660  0.43099  1.0000
  C   C2424     1.0  0.09440  0.67501  0.43952  1.0000
  C   C2425     1.0  0.10206  0.67742  0.44832  1.0000
  H   H1908     1.0  0.09487  0.71381  0.43981  1.0000
  H   H1909     1.0  0.08082  0.70963  0.42479  1.0000
  H   H1910     1.0  0.09444  0.66419  0.43939  1.0000
  H   H1911     1.0  0.10795  0.66837  0.45492  1.0000
  H   H1912     1.0  0.07911  0.59492  0.26387  1.0000
  C   C2426     1.0  0.06845  0.53003  0.29191  1.0000
  H   H1913     1.0  0.01859  0.49880  0.47233  1.0000
  H   H1914     1.0  0.01225  0.59065  0.31140  1.0000
  C   C2427     1.0  0.02944  0.65858  0.46787  1.0000
  P   P80       1.0  0.03316  0.54947  0.41225  1.0000
  H   H1915     1.0  0.12983  0.70504  0.42167  1.0000
  C   C2428     1.0  0.09982  0.49880  0.24047  1.0000
  C   C2429     1.0  0.13670  0.60871  0.23856  1.0000
  C   C2430     1.0  0.01752  0.60211  0.35460  1.0000
  C   C2431     1.0  0.00672  0.64590  0.33343  1.0000
  C   C2432     1.0  0.00307  0.68444  0.41400  1.0000
  H   H1916     1.0  0.07988  0.59478  0.23895  1.0000
  C   C2433     1.0  0.07903  0.57179  0.48380  1.0000
  C   C2434     1.0  0.05828  0.52270  0.30169  1.0000
  H   H1917     1.0  0.00873  0.52236  0.25373  1.0000
  C   C2435     1.0  0.12276  0.50517  0.25949  1.0000
  C   C2436     1.0  0.06063  0.54117  0.39514  1.0000
  P   P81       1.0  0.03900  0.50700  0.24390  1.0000
  C   C2437     1.0  0.04251  0.50452  0.44141  1.0000
  C   C2438     1.0  0.12461  0.50666  0.28640  1.0000
  H   H1918     1.0  0.03839  0.65024  0.46422  1.0000
  H   H1919     1.0  0.04759  0.59690  0.37771  1.0000
  C   C2439     1.0  0.02425  0.51500  0.28412  1.0000
  H   H1920     1.0  0.01129  0.59744  0.42311  1.0000
  H   H1921     1.0  0.10174  0.58919  0.27211  1.0000
  H   H1922     1.0  0.08125  0.61646  0.46829  1.0000
  C   C2440     1.0  0.12001  0.57926  0.30046  1.0000
  H   H1923     1.0  0.11778  0.59471  0.31268  1.0000
  H   H1924     1.0  0.07436  0.56581  0.41885  1.0000
  H   H1925     1.0  0.04887  0.60886  0.41521  1.0000
  C   C2441     1.0  0.17793  0.73783  0.44449  1.0000
  H   H1926     1.0  0.16249  0.68212  0.44539  1.0000
  C   C2442     1.0  0.07905  0.52339  0.28172  1.0000
  H   H1927     1.0  0.12386  0.71370  0.39596  1.0000
  H   H1928     1.0  0.02976  0.52968  0.29281  1.0000
  C   C2443     1.0  0.19172  0.73423  0.43583  1.0000
  H   H1929     1.0  0.02439  0.54991  0.38623  1.0000
  C   C2444     1.0  0.00835  0.66243  0.28592  1.0000
  H   H1930     1.0  0.03520  0.57803  0.29692  1.0000
  H   H1931     1.0  0.05673  0.62333  0.46342  1.0000
  C   C2445     1.0  0.02970  0.67294  0.46155  1.0000
  C   C2446     1.0  0.08174  0.64813  0.47435  1.0000
  C   C2447     1.0  0.01697  0.68279  0.41607  1.0000
  C   C2448     1.0  0.01593  0.55091  0.40847  1.0000
  C   C2449     1.0  0.02038  0.58015  0.28374  1.0000
  H   H1932     1.0  0.02270  0.62734  0.28501  1.0000
  H   H1933     1.0  0.12005  0.53891  0.24868  1.0000
  C   C2450     1.0  0.15292  0.55845  0.26695  1.0000
  C   C2451     1.0  0.10670  0.56339  0.35666  1.0000
  C   C2452     1.0  0.05413  0.60309  0.40674  1.0000
  C   C2453     1.0  0.12594  0.60252  0.29024  1.0000
  H   H1934     1.0  0.13334  0.60777  0.26751  1.0000
  P   P82       1.0  0.01644  0.62755  0.33346  1.0000
  H   H1935     1.0  0.01478  0.60758  0.25526  1.0000
  H   H1936     1.0  0.13825  0.68536  0.44055  1.0000
  H   H1937     1.0  0.04437  0.49395  0.44829  1.0000
  H   H1938     1.0  0.02567  0.60235  0.32028  1.0000
  C   C2454     1.0  0.12978  0.59965  0.27659  1.0000
  H   H1939     1.0  0.01786  0.58264  0.37086  1.0000
  C   C2455     1.0  0.05336  0.59631  0.38567  1.0000
  C   C2456     1.0  0.06293  0.72214  0.48244  1.0000
  C   C2457     1.0  0.03695  0.53200  0.42381  1.0000
  C   C2458     1.0  0.01465  0.63726  0.28554  1.0000
  H   H1940     1.0  0.08036  0.52853  0.25329  1.0000
  H   H1941     1.0  0.14446  0.50867  0.25239  1.0000
  S   S343      1.0  0.10132  0.54981  0.29631  1.0000
  C   C2459     1.0  0.07546  0.58805  0.39473  1.0000
  C   C2460     1.0  0.04310  0.56410  0.42603  1.0000
  C   C2461     1.0  0.04661  0.60371  0.39660  1.0000
  C   C2462     1.0  0.10097  0.56486  0.37078  1.0000
  C   C2463     1.0  0.00863  0.52080  0.47353  1.0000
  H   H1942     1.0  0.00580  0.49885  0.45426  1.0000
  C   C2464     1.0  0.06774  0.58850  0.38472  1.0000
  C   C2465     1.0  0.03625  0.49712  0.35151  1.0000
  H   H1943     1.0  0.01784  0.52136  0.37718  1.0000
  H   H1944     1.0  0.00370  0.65583  0.44095  1.0000
  H   H1945     1.0  0.13375  0.73805  0.37404  1.0000
  C   C2466     1.0  0.01764  0.65499  0.47874  1.0000
  C   C2467     1.0  0.11623  0.58650  0.23747  1.0000
  H   H1946     1.0  0.04327  0.49679  0.42305  1.0000
  C   C2468     1.0  0.01815  0.68376  0.46611  1.0000
  H   H1947     1.0  0.17879  0.49160  0.24779  1.0000
  C   C2469     1.0  0.16286  0.71663  0.35688  1.0000
  H   H1948     1.0  0.05823  0.58590  0.48304  1.0000
  C   C2470     1.0  0.16810  0.69981  0.42839  1.0000
  H   H1949     1.0  0.04174  0.50343  0.35456  1.0000
  C   C2471     1.0  0.14962  0.71314  0.41482  1.0000
  H   H1950     1.0  0.11581  0.57151  0.30962  1.0000
  H   H1951     1.0  0.00408  0.55112  0.43027  1.0000
  H   H1952     1.0  0.00715  0.67987  0.31364  1.0000
  H   H1953     1.0  0.17020  0.70830  0.38975  1.0000
  C   C2472     1.0  0.00383  0.50838  0.45825  1.0000
  C   C2473     1.0  0.01099  0.50836  0.46853  1.0000
  C   C2474     1.0  0.07961  0.50930  0.28118  1.0000
  H   H1954     1.0  0.05375  0.52558  0.25051  1.0000
  C   C2475     1.0  0.02349  0.61690  0.46815  1.0000
  C   C2476     1.0  0.01671  0.61694  0.35140  1.0000
  C   C2477     1.0  0.09296  0.50738  0.25056  1.0000
  H   H1955     1.0  0.08710  0.52911  0.27451  1.0000
  C   C2478     1.0  0.05456  0.62736  0.30308  1.0000
  C   C2479     1.0  0.03182  0.56415  0.42005  1.0000
  C   C2480     1.0  0.04534  0.52269  0.25971  1.0000
  C   C2481     1.0  0.12876  0.58652  0.27481  1.0000
  H   H1956     1.0  0.03335  0.62465  0.30452  1.0000
  C   C2482     1.0  0.10217  0.72539  0.40282  1.0000
  C   C2483     1.0  0.01744  0.59404  0.36853  1.0000
  C   C2484     1.0  0.06843  0.59513  0.40595  1.0000
  H   H1957     1.0  0.14790  0.53573  0.24379  1.0000
  C   C2485     1.0  0.10918  0.58693  0.36500  1.0000
  C   C2486     1.0  0.03080  0.58752  0.43093  1.0000
  H   H1958     1.0  0.17982  0.72509  0.47693  1.0000
  H   H1959     1.0  0.01620  0.63472  0.36007  1.0000
  H   H1960     1.0  0.00987  0.73252  0.39980  1.0000
  C   C2487     1.0  0.03633  0.62159  0.46137  1.0000
  H   H1961     1.0  0.03255  0.61549  0.26281  1.0000
  H   H1962     1.0  0.09335  0.63666  0.45765  1.0000
  H   H1963     1.0  0.11772  0.57279  0.33569  1.0000
  H   H1964     1.0  0.12235  0.50453  0.24901  1.0000
  C   C2488     1.0  0.04020  0.62668  0.31009  1.0000
  H   H1965     1.0  0.07322  0.73341  0.44644  1.0000
  C   C2489     1.0  0.01448  0.60728  0.31990  1.0000
  C   C2490     1.0  0.11730  0.72282  0.40040  1.0000
  C   C2491     1.0  0.02045  0.57639  0.41880  1.0000
  H   H1966     1.0  0.03498  0.51137  0.33107  1.0000
  H   H1967     1.0  0.03011  0.64930  0.28440  1.0000
  C   C2492     1.0  0.22633  0.73730  0.46687  1.0000
  H   H1968     1.0  0.14615  0.51004  0.27613  1.0000
  C   C2493     1.0  0.04033  0.51666  0.44678  1.0000
  C   C2494     1.0  0.03203  0.52489  0.28370  1.0000
  C   C2495     1.0  0.04673  0.61994  0.46908  1.0000
  H   H1969     1.0  0.01680  0.54502  0.36068  1.0000
  H   H1970     1.0  0.06828  0.54082  0.29237  1.0000
  H   H1971     1.0  0.03512  0.53955  0.44261  1.0000
  H   H1972     1.0  0.07770  0.55604  0.36188  1.0000
  C   C2496     1.0  0.04182  0.50611  0.42728  1.0000
  H   H1973     1.0  0.02050  0.65487  0.31377  1.0000
  H   H1974     1.0  0.05866  0.62565  0.29230  1.0000
  C   C2497     1.0  0.03504  0.62799  0.32434  1.0000
  H   H1975     1.0  0.01184  0.57709  0.41372  1.0000
  C   C2498     1.0  0.01482  0.55119  0.39475  1.0000
  H   H1976     1.0  0.05225  0.55504  0.42658  1.0000
  C   C2499     1.0  0.12389  0.57635  0.28686  1.0000
  H   H1977     1.0  0.05444  0.57409  0.36392  1.0000
  H   H1978     1.0  0.03020  0.59639  0.43547  1.0000
  H   H1979     1.0  0.01701  0.57028  0.28960  1.0000
  C   C2500     1.0  0.02168  0.50637  0.24152  1.0000
  Fe  Fe172     1.0  0.01823  0.49867  0.40161  1.0000
  C   C2501     1.0  0.01914  0.60114  0.26440  1.0000
  C   C2502     1.0  0.01657  0.60069  0.37939  1.0000
  C   C2503     1.0  0.01623  0.61533  0.37622  1.0000
  H   H1980     1.0  0.06562  0.63351  0.32960  1.0000
  H   H1981     1.0  0.01605  0.59455  0.39026  1.0000
  H   H1982     1.0  0.01543  0.62057  0.38461  1.0000
  H   H1983     1.0  0.07064  0.49767  0.23805  1.0000
  C   C2504     1.0  0.00743  0.63956  0.41568  1.0000
  C   C2505     1.0  0.11366  0.57368  0.34672  1.0000
  C   C2506     1.0  0.08532  0.63666  0.46766  1.0000
  C   C2507     1.0  0.01645  0.62339  0.36227  1.0000
  H   H1984     1.0  0.05111  0.57544  0.43635  1.0000
  H   H1985     1.0  0.00368  0.63408  0.42655  1.0000
  P   P83       1.0  0.14343  0.72807  0.40105  1.0000
  H   H1986     1.0  0.01153  0.52301  0.34907  1.0000
  C   C2508     1.0  0.04734  0.55128  0.39630  1.0000
  C   C2509     1.0  0.00339  0.55176  0.41949  1.0000
  H   H1987     1.0  0.03532  0.57136  0.38602  1.0000
  C   C2510     1.0  0.05627  0.56503  0.37274  1.0000
  C   C2511     1.0  0.13636  0.50816  0.27478  1.0000
  H   H1988     1.0  0.14050  0.65689  0.48184  1.0000
  C   C2512     1.0  0.06820  0.73392  0.45747  1.0000
  H   H1989     1.0  0.01833  0.69488  0.46108  1.0000
  C   C2513     1.0  0.06938  0.55484  0.37157  1.0000
  C   C2514     1.0  0.10217  0.57663  0.37509  1.0000
  H   H1990     1.0  0.02047  0.50167  0.27268  1.0000
  C   C2515     1.0  0.05850  0.63164  0.32414  1.0000
  C   C2516     1.0  0.15864  0.59013  0.24010  1.0000
  H   H1991     1.0  0.22082  0.73425  0.46060  1.0000
  C   C2517     1.0  0.10242  0.58939  0.26110  1.0000
  H   H1992     1.0  0.03820  0.52087  0.40767  1.0000
  H   H1993     1.0  0.08168  0.53493  0.38175  1.0000
  H   H1994     1.0  0.03885  0.67563  0.45304  1.0000
  H   H1995     1.0  0.12001  0.59358  0.34310  1.0000
  H   H1996     1.0  0.07289  0.58318  0.37595  1.0000
  C   C2518     1.0  0.04423  0.63077  0.33122  1.0000
  C   C2519     1.0  0.02003  0.58803  0.42416  1.0000
  H   H1997     1.0  0.03844  0.62614  0.45001  1.0000
  C   C2520     1.0  0.05874  0.50868  0.30127  1.0000
  P   P84       1.0  0.09422  0.57853  0.39332  1.0000
  C   C2521     1.0  0.10357  0.58896  0.39826  1.0000
  C   C2522     1.0  0.10127  0.60382  0.39278  1.0000
  C   C2523     1.0  0.10842  0.61204  0.39646  1.0000
  C   C2524     1.0  0.11755  0.60560  0.40601  1.0000
  C   C2525     1.0  0.11973  0.59085  0.41171  1.0000
  C   C2526     1.0  0.11279  0.58252  0.40786  1.0000
  H   H1998     1.0  0.07408  0.59473  0.41397  1.0000
  C   C2527     1.0  0.09556  0.56090  0.40494  1.0000
  C   C2528     1.0  0.08407  0.55768  0.41644  1.0000
  C   C2529     1.0  0.08513  0.54388  0.42515  1.0000
  C   C2530     1.0  0.09773  0.53329  0.42257  1.0000
  C   C2531     1.0  0.10932  0.53647  0.41127  1.0000
  C   C2532     1.0  0.10827  0.55024  0.40250  1.0000
  H   H1999     1.0  0.16414  0.71035  0.47546  1.0000
  H   H2000     1.0  0.09388  0.60911  0.38571  1.0000
  H   H2001     1.0  0.10667  0.62348  0.39202  1.0000
  H   H2002     1.0  0.12261  0.61211  0.40929  1.0000
  H   H2003     1.0  0.12651  0.58595  0.41941  1.0000
  H   H2004     1.0  0.11441  0.57119  0.41265  1.0000
  H   H2005     1.0  0.09539  0.55692  0.37830  1.0000
  H   H2006     1.0  0.07624  0.54148  0.43407  1.0000
  H   H2007     1.0  0.09854  0.52267  0.42945  1.0000
  H   H2008     1.0  0.11915  0.52829  0.40935  1.0000
  H   H2009     1.0  0.11737  0.55260  0.39384  1.0000
  H   H2010     1.0  0.06258  0.53190  0.40369  1.0000
  H   H2011     1.0  0.19414  0.72566  0.43030  1.0000
  C   C2533     1.0  0.06375  0.62971  0.31015  1.0000
  H   H2012     1.0  0.12130  0.53743  0.27356  1.0000
  C   C2534     1.0  0.14975  0.72671  0.35914  1.0000
  H   H2013     1.0  0.04895  0.53604  0.27141  1.0000
  C   C2535     1.0  0.11105  0.54455  0.25558  1.0000
  C   C2536     1.0  0.16436  0.71355  0.38135  1.0000
  H   H2014     1.0  0.16581  0.52544  0.25900  1.0000
  C   C2537     1.0  0.03895  0.51979  0.41854  1.0000
  Fe  Fe173     1.0  0.02127  0.54252  0.48411  1.0000
  P   P85       1.0  0.13276  0.58281  0.25729  1.0000
  H   H2015     1.0  0.21301  0.73866  0.42728  1.0000
  C   C2538     1.0  0.15902  0.69059  0.43672  1.0000
  H   H2016     1.0  0.03505  0.65534  0.39487  1.0000
  C   C2539     1.0  0.16350  0.71094  0.41739  1.0000
  H   H2017     1.0  0.02082  0.65913  0.37672  1.0000
  H   H2018     1.0  0.08705  0.65704  0.46958  1.0000
  C   C2540     1.0  0.03737  0.53035  0.43808  1.0000
  H   H2019     1.0  0.01769  0.64377  0.48349  1.0000
  Fe  Fe174     1.0  0.11734  0.73234  0.48165  1.0000
  H   H2020     1.0  0.14406  0.73176  0.35055  1.0000
  H   H2021     1.0  0.16733  0.71387  0.34654  1.0000
  H   H2022     1.0  0.04039  0.51552  0.45785  1.0000
  H   H2023     1.0  0.05091  0.50296  0.30890  1.0000
  C   C2541     1.0  0.03080  0.58448  0.28783  1.0000
  C   C2542     1.0  0.14937  0.54212  0.25019  1.0000
  C   C2543     1.0  0.17016  0.71008  0.36797  1.0000
  H   H2024     1.0  0.15190  0.73734  0.42248  1.0000
  C   C2544     1.0  0.04538  0.56337  0.38516  1.0000
  C   C2545     1.0  0.04437  0.61354  0.48371  1.0000
  H   H2025     1.0  0.17855  0.69862  0.43069  1.0000
  H   H2026     1.0  0.03556  0.60998  0.39725  1.0000
  H   H2027     1.0  0.18031  0.70224  0.36622  1.0000
  H   H2028     1.0  0.17067  0.71805  0.41117  1.0000
  C   C2546     1.0  0.00628  0.68022  0.47693  1.0000
  C   C2547     1.0  0.00454  0.74096  0.40559  1.0000
  Fe  Fe175     1.0  0.14116  0.73063  0.45532  1.0000
  C   C2548     1.0  0.01114  0.65708  0.32229  1.0000
  C   C2549     1.0  0.11086  0.50373  0.27108  1.0000
  H   H2029     1.0  0.01156  0.67204  0.28568  1.0000
  C   C2550     1.0  0.06938  0.50197  0.29113  1.0000
  S   S344      1.0  0.10002  0.73187  0.47128  1.0000
  C   C2551     1.0  0.22085  0.73601  0.48156  1.0000
  C   C2552     1.0  0.12386  0.73179  0.40391  1.0000
  C   C2553     1.0  0.11194  0.50435  0.28459  1.0000
  H   H2030     1.0  0.09718  0.71830  0.40026  1.0000
  C   C2554     1.0  0.02108  0.61045  0.48269  1.0000
  H   H2031     1.0  0.00271  0.67620  0.45078  1.0000
  H   H2032     1.0  0.16890  0.53989  0.27410  1.0000
  H   H2033     1.0  0.05250  0.50118  0.48089  1.0000
  C   C2555     1.0  0.08533  0.52144  0.24600  1.0000
  C   C2556     1.0  0.11592  0.58624  0.25166  1.0000
  C   C2557     1.0  0.14352  0.59473  0.24446  1.0000
  C   C2558     1.0  0.15115  0.72361  0.38375  1.0000
  H   H2034     1.0  0.15450  0.56466  0.27345  1.0000
  H   H2035     1.0  0.02106  0.70328  0.48440  1.0000
  C   C2559     1.0  0.15942  0.53628  0.25887  1.0000
  C   C2560     1.0  0.08992  0.59275  0.24237  1.0000
  C   C2561     1.0  0.01003  0.70645  0.42116  1.0000
  S   S345      1.0  0.00231  0.53012  0.32264  1.0000
  C   C2562     1.0  0.00353  0.67127  0.32212  1.0000
  H   H2036     1.0  0.12521  0.50749  0.29676  1.0000
  C   C2563     1.0  0.14392  0.73021  0.37250  1.0000
  C   C2564     1.0  0.00589  0.66580  0.48330  1.0000
  C   C2565     1.0  0.02514  0.49359  0.33440  1.0000
  H   H2037     1.0  0.08173  0.73877  0.41087  1.0000
  H   H2038     1.0  0.10297  0.50315  0.29375  1.0000
  H   H2039     1.0  0.02231  0.49734  0.32409  1.0000
  C   C2566     1.0  0.08949  0.59277  0.25643  1.0000
  H   H2040     1.0  0.12504  0.61247  0.24176  1.0000
  C   C2567     1.0  0.16667  0.70935  0.48560  1.0000
  C   C2568     1.0  0.01501  0.64165  0.68282  1.0000
  H   H2041     1.0  0.00861  0.49580  0.62134  1.0000
  S   S346      1.0  0.14614  0.72224  0.59814  1.0000
  C   C2569     1.0  0.03619  0.60928  0.54114  1.0000
  C   C2570     1.0  0.03248  0.60670  0.58475  1.0000
  H   H2042     1.0  0.15120  0.61498  0.55394  1.0000
  C   C2571     1.0  0.00685  0.68370  0.65596  1.0000
  H   H2043     1.0  0.07873  0.63880  0.70782  1.0000
  H   H2044     1.0  0.05862  0.51518  0.71900  1.0000
  C   C2572     1.0  0.00892  0.63413  0.69622  1.0000
  H   H2045     1.0  0.12327  0.65128  0.57016  1.0000
  S   S347      1.0  0.11496  0.55373  0.71715  1.0000
  S   S348      1.0  0.09655  0.54709  0.69825  1.0000
  Fe  Fe176     1.0  0.10525  0.53581  0.71773  1.0000
  Fe  Fe177     1.0  0.02787  0.56111  0.49969  1.0000
  Fe  Fe178     1.0  0.10437  0.56580  0.69883  1.0000
  S   S349      1.0  0.11709  0.57642  0.67790  1.0000
  Fe  Fe179     1.0  0.07406  0.67533  0.61501  1.0000
  S   S350      1.0  0.07154  0.65346  0.62750  1.0000
  S   S351      1.0  0.05606  0.69517  0.61433  1.0000
  Fe  Fe180     1.0  0.10618  0.66498  0.60306  1.0000
  S   S352      1.0  0.10639  0.64188  0.61432  1.0000
  S   S353      1.0  0.12474  0.67312  0.58671  1.0000
  Fe  Fe181     1.0  0.08525  0.64609  0.60778  1.0000
  S   S354      1.0  0.07586  0.63227  0.60023  1.0000
  Fe  Fe182     1.0  0.09266  0.65122  0.63313  1.0000
  S   S355      1.0  0.09323  0.64288  0.65651  1.0000
  S   S356      1.0  0.08626  0.66822  0.59484  1.0000
  S   S357      1.0  0.09404  0.67404  0.62230  1.0000
  H   H2046     1.0  0.08701  0.66176  0.51754  1.0000
  C   C2573     1.0  0.08586  0.64272  0.55185  1.0000
  H   H2047     1.0  0.13678  0.61952  0.53599  1.0000
  S   S358      1.0  0.05848  0.50751  0.68853  1.0000
  C   C2574     1.0  0.06940  0.52336  0.55224  1.0000
  C   C2575     1.0  0.08462  0.70780  0.58493  1.0000
  H   H2048     1.0  0.03506  0.49496  0.57546  1.0000
  Fe  Fe183     1.0  0.05372  0.50495  0.66893  1.0000
  S   S359      1.0  0.05074  0.52367  0.65057  1.0000
  P   P86       1.0  0.15796  0.68523  0.52633  1.0000
  S   S360      1.0  0.00708  0.55979  0.49548  1.0000
  Fe  Fe184     1.0  0.10402  0.57237  0.56465  1.0000
  S   S361      1.0  0.08966  0.56471  0.58548  1.0000
  S   S362      1.0  0.11774  0.58654  0.56561  1.0000
  Fe  Fe185     1.0  0.09300  0.55694  0.54922  1.0000
  S   S363      1.0  0.07776  0.54805  0.56897  1.0000
  S   S364      1.0  0.09311  0.55248  0.52847  1.0000
  Fe  Fe186     1.0  0.07258  0.57011  0.57300  1.0000
  Fe  Fe187     1.0  0.09640  0.54358  0.57941  1.0000
  S   S365      1.0  0.10234  0.52405  0.59627  1.0000
  S   S366      1.0  0.08638  0.57941  0.55240  1.0000
  S   S367      1.0  0.11228  0.55066  0.55931  1.0000
  C   C2576     1.0  0.10937  0.54833  0.65734  1.0000
  H   H2049     1.0  0.06609  0.59245  0.52041  1.0000
  H   H2050     1.0  0.04570  0.60899  0.60589  1.0000
  C   C2577     1.0  0.04943  0.56613  0.53332  1.0000
  C   C2578     1.0  0.06366  0.56337  0.53518  1.0000
  C   C2579     1.0  0.07528  0.55616  0.52613  1.0000
  H   H2051     1.0  0.08954  0.53535  0.64300  1.0000
  C   C2580     1.0  0.11233  0.61239  0.53340  1.0000
  C   C2581     1.0  0.02047  0.55599  0.67777  1.0000
  H   H2052     1.0  0.06565  0.56688  0.54357  1.0000
  S   S368      1.0  0.02349  0.50373  0.71833  1.0000
  H   H2053     1.0  0.21852  0.68931  0.51602  1.0000
  C   C2582     1.0  0.06538  0.52384  0.63578  1.0000
  C   C2583     1.0  0.07904  0.51490  0.63676  1.0000
  C   C2584     1.0  0.09061  0.51537  0.62471  1.0000
  C   C2585     1.0  0.08841  0.52455  0.61168  1.0000
  C   C2586     1.0  0.07481  0.53364  0.61082  1.0000
  C   C2587     1.0  0.06330  0.53319  0.62283  1.0000
  H   H2054     1.0  0.07190  0.68968  0.53935  1.0000
  H   H2055     1.0  0.10119  0.50848  0.62543  1.0000
  H   H2056     1.0  0.07301  0.54079  0.60083  1.0000
  H   H2057     1.0  0.05271  0.54004  0.62203  1.0000
  C   C2588     1.0  0.08787  0.61988  0.59048  1.0000
  C   C2589     1.0  0.08206  0.61155  0.58537  1.0000
  C   C2590     1.0  0.09126  0.60147  0.57764  1.0000
  C   C2591     1.0  0.10634  0.59953  0.57504  1.0000
  C   C2592     1.0  0.11221  0.60799  0.58000  1.0000
  C   C2593     1.0  0.10296  0.61819  0.58773  1.0000
  H   H2058     1.0  0.07040  0.61293  0.58733  1.0000
  H   H2059     1.0  0.08659  0.59526  0.57362  1.0000
  H   H2060     1.0  0.12386  0.60653  0.57802  1.0000
  H   H2061     1.0  0.10750  0.62465  0.59161  1.0000
  C   C2594     1.0  0.03987  0.69381  0.61114  1.0000
  C   C2595     1.0  0.02912  0.70629  0.60877  1.0000
  C   C2596     1.0  0.03740  0.68063  0.61120  1.0000
  H   H2062     1.0  0.04564  0.67092  0.61309  1.0000
  C   C2597     1.0  0.21362  0.69919  0.51969  1.0000
  H   H2063     1.0  0.00510  0.58663  0.61292  1.0000
  H   H2064     1.0  0.01772  0.62694  0.58585  1.0000
  H   H2065     1.0  0.18726  0.71255  0.54597  1.0000
  C   C2598     1.0  0.12901  0.69767  0.52434  1.0000
  H   H2066     1.0  0.09529  0.59350  0.61848  1.0000
  C   C2599     1.0  0.11056  0.50278  0.71423  1.0000
  C   C2600     1.0  0.23109  0.74096  0.51882  1.0000
  H   H2067     1.0  0.11412  0.61107  0.54390  1.0000
  H   H2068     1.0  0.01389  0.62300  0.70003  1.0000
  C   C2601     1.0  0.09210  0.50030  0.70392  1.0000
  C   C2602     1.0  0.09735  0.50838  0.70993  1.0000
  C   C2603     1.0  0.05447  0.60712  0.56630  1.0000
  H   H2069     1.0  0.08349  0.68800  0.51440  1.0000
  C   C2604     1.0  0.11166  0.60041  0.52921  1.0000
  C   C2605     1.0  0.21876  0.71161  0.51238  1.0000
  C   C2606     1.0  0.10030  0.62451  0.66236  1.0000
  C   C2607     1.0  0.11090  0.61657  0.65320  1.0000
  C   C2608     1.0  0.11621  0.60185  0.65816  1.0000
  C   C2609     1.0  0.11082  0.59500  0.67221  1.0000
  C   C2610     1.0  0.10038  0.60300  0.68142  1.0000
  C   C2611     1.0  0.09518  0.61774  0.67650  1.0000
  H   H2070     1.0  0.11495  0.62175  0.64229  1.0000
  H   H2071     1.0  0.12427  0.59570  0.65099  1.0000
  H   H2072     1.0  0.09636  0.59787  0.69233  1.0000
  H   H2073     1.0  0.08710  0.62390  0.68362  1.0000
  C   C2612     1.0  0.13899  0.70941  0.59491  1.0000
  C   C2613     1.0  0.13870  0.70928  0.58106  1.0000
  C   C2614     1.0  0.13412  0.69821  0.57863  1.0000
  C   C2615     1.0  0.12936  0.68748  0.59008  1.0000
  C   C2616     1.0  0.12891  0.68803  0.60401  1.0000
  C   C2617     1.0  0.13386  0.69889  0.60639  1.0000
  H   H2074     1.0  0.14243  0.71745  0.57216  1.0000
  H   H2075     1.0  0.13429  0.69795  0.56786  1.0000
  H   H2076     1.0  0.12531  0.67977  0.61290  1.0000
  H   H2077     1.0  0.13397  0.69898  0.61714  1.0000
  H   H2078     1.0  0.01051  0.59575  0.55622  1.0000
  H   H2079     1.0  0.09588  0.51400  0.66171  1.0000
  C   C2618     1.0  0.11339  0.53600  0.66757  1.0000
  C   C2619     1.0  0.18273  0.65240  0.50720  1.0000
  C   C2620     1.0  0.20162  0.49814  0.68468  1.0000
  C   C2621     1.0  0.14197  0.62400  0.55345  1.0000
  C   C2622     1.0  0.14387  0.64024  0.67042  1.0000
  H   H2080     1.0  0.02250  0.65573  0.53011  1.0000
  H   H2081     1.0  0.19377  0.64960  0.50115  1.0000
  C   C2623     1.0  0.02608  0.59983  0.63978  1.0000
  H   H2082     1.0  0.03113  0.60898  0.55230  1.0000
  C   C2624     1.0  0.16591  0.51990  0.69416  1.0000
  C   C2625     1.0  0.17222  0.52732  0.68067  1.0000
  C   C2626     1.0  0.16350  0.53831  0.67251  1.0000
  C   C2627     1.0  0.14847  0.54191  0.67771  1.0000
  C   C2628     1.0  0.14217  0.53462  0.69113  1.0000
  C   C2629     1.0  0.15087  0.52384  0.69941  1.0000
  H   H2083     1.0  0.07665  0.50746  0.60177  1.0000
  C   C2630     1.0  0.17234  0.52483  0.72223  1.0000
  C   C2631     1.0  0.09534  0.57930  0.49285  1.0000
  C   C2632     1.0  0.16916  0.52899  0.73519  1.0000
  H   H2084     1.0  0.16837  0.54407  0.66214  1.0000
  H   H2085     1.0  0.14167  0.55045  0.67144  1.0000
  H   H2086     1.0  0.13053  0.53737  0.69518  1.0000
  H   H2087     1.0  0.14583  0.51847  0.70991  1.0000
  C   C2633     1.0  0.07427  0.49922  0.56635  1.0000
  H   H2088     1.0  0.17464  0.53262  0.71235  1.0000
  C   C2634     1.0  0.09658  0.71382  0.57759  1.0000
  H   H2089     1.0  0.08056  0.59511  0.66971  1.0000
  H   H2090     1.0  0.16630  0.70283  0.56413  1.0000
  C   C2635     1.0  0.13848  0.68882  0.53304  1.0000
  H   H2091     1.0  0.01545  0.59777  0.64533  1.0000
  C   C2636     1.0  0.05629  0.73544  0.48603  1.0000
  C   C2637     1.0  0.10836  0.52370  0.66930  1.0000
  C   C2638     1.0  0.11760  0.68365  0.55197  1.0000
  C   C2639     1.0  0.10828  0.69226  0.54317  1.0000
  C   C2640     1.0  0.11396  0.69939  0.52944  1.0000
  H   H2092     1.0  0.10290  0.54668  0.61407  1.0000
  H   H2093     1.0  0.04050  0.57187  0.54020  1.0000
  C   C2641     1.0  0.17430  0.67028  0.54698  1.0000
  C   C2642     1.0  0.17970  0.66889  0.55893  1.0000
  C   C2643     1.0  0.17682  0.68062  0.56509  1.0000
  C   C2644     1.0  0.05834  0.55430  0.51354  1.0000
  H   H2094     1.0  0.03452  0.51433  0.63230  1.0000
  C   C2645     1.0  0.00424  0.52944  0.71400  1.0000
  C   C2646     1.0  0.04303  0.49252  0.60584  1.0000
  H   H2095     1.0  0.13310  0.70340  0.51369  1.0000
  Fe  Fe188     1.0  0.15253  0.73966  0.57914  1.0000
  H   H2096     1.0  0.11313  0.67843  0.56276  1.0000
  H   H2097     1.0  0.01786  0.65749  0.50660  1.0000
  H   H2098     1.0  0.10671  0.70641  0.52277  1.0000
  C   C2647     1.0  0.09967  0.52357  0.66048  1.0000
  H   H2099     1.0  0.17643  0.66096  0.54260  1.0000
  H   H2100     1.0  0.18593  0.65865  0.56358  1.0000
  H   H2101     1.0  0.18081  0.67955  0.57447  1.0000
  C   C2648     1.0  0.03424  0.64935  0.64107  1.0000
  H   H2102     1.0  0.05231  0.52353  0.60398  1.0000
  C   C2649     1.0  0.02407  0.63907  0.62802  1.0000
  C   C2650     1.0  0.05797  0.50647  0.51543  1.0000
  C   C2651     1.0  0.08277  0.65806  0.52883  1.0000
  C   C2652     1.0  0.07416  0.70815  0.57777  1.0000
  S   S369      1.0  0.01056  0.65254  0.59832  1.0000
  C   C2653     1.0  0.10672  0.62754  0.51120  1.0000
  C   C2654     1.0  0.21995  0.50634  0.69624  1.0000
  C   C2655     1.0  0.05563  0.67419  0.57592  1.0000
  C   C2656     1.0  0.06221  0.68572  0.56864  1.0000
  S   S370      1.0  0.08334  0.57517  0.71245  1.0000
  H   H2103     1.0  0.05281  0.51767  0.51514  1.0000
  H   H2104     1.0  0.05644  0.55085  0.50510  1.0000
  C   C2657     1.0  0.04468  0.73689  0.56554  1.0000
  C   C2658     1.0  0.12894  0.62296  0.68262  1.0000
  H   H2105     1.0  0.22779  0.71113  0.50322  1.0000
  C   C2659     1.0  0.00593  0.49997  0.61093  1.0000
  H   H2106     1.0  0.06874  0.55386  0.65067  1.0000
  H   H2107     1.0  0.12022  0.53605  0.67432  1.0000
  C   C2660     1.0  0.13317  0.66026  0.49124  1.0000
  C   C2661     1.0  0.05550  0.67948  0.65096  1.0000
  C   C2662     1.0  0.06281  0.67063  0.66146  1.0000
  C   C2663     1.0  0.05628  0.66051  0.67218  1.0000
  H   H2108     1.0  0.06067  0.68722  0.64258  1.0000
  H   H2109     1.0  0.07369  0.67141  0.66110  1.0000
  H   H2110     1.0  0.06216  0.65348  0.68011  1.0000
  C   C2664     1.0  0.13365  0.63296  0.67044  1.0000
  H   H2111     1.0  0.17591  0.70648  0.52153  1.0000
  H   H2112     1.0  0.18382  0.52480  0.67644  1.0000
  C   C2665     1.0  0.17563  0.71761  0.48639  1.0000
  C   C2666     1.0  0.08776  0.58151  0.65470  1.0000
  H   H2113     1.0  0.13331  0.58043  0.73159  1.0000
  C   C2667     1.0  0.01349  0.69262  0.60627  1.0000
  H   H2114     1.0  0.22707  0.50944  0.70078  1.0000
  C   C2668     1.0  0.02409  0.52697  0.54733  1.0000
  C   C2669     1.0  0.02023  0.65524  0.64812  1.0000
  H   H2115     1.0  0.00674  0.52790  0.51664  1.0000
  C   C2670     1.0  0.04173  0.67809  0.65102  1.0000
  C   C2671     1.0  0.17896  0.71636  0.49941  1.0000
  C   C2672     1.0  0.10033  0.60062  0.72182  1.0000
  S   S371      1.0  0.08457  0.54245  0.73301  1.0000
  C   C2673     1.0  0.07429  0.69922  0.53157  1.0000
  H   H2116     1.0  0.03132  0.62763  0.50806  1.0000
  C   C2674     1.0  0.14915  0.73768  0.52130  1.0000
  H   H2117     1.0  0.01954  0.62664  0.53359  1.0000
  H   H2118     1.0  0.09668  0.69356  0.54714  1.0000
  C   C2675     1.0  0.09589  0.53578  0.65004  1.0000
  C   C2676     1.0  0.04960  0.62192  0.56139  1.0000
  H   H2119     1.0  0.08710  0.57190  0.66305  1.0000
  H   H2120     1.0  0.02647  0.50758  0.52326  1.0000
  C   C2677     1.0  0.08074  0.72344  0.51094  1.0000
  H   H2121     1.0  0.08073  0.50776  0.64679  1.0000
  H   H2122     1.0  0.00662  0.73388  0.55479  1.0000
  H   H2123     1.0  0.12179  0.54549  0.59196  1.0000
  H   H2124     1.0  0.02984  0.60274  0.50146  1.0000
  H   H2125     1.0  0.15142  0.64039  0.51927  1.0000
  C   C2678     1.0  0.05341  0.51234  0.60428  1.0000
  C   C2679     1.0  0.08373  0.59474  0.65853  1.0000
  C   C2680     1.0  0.01155  0.65679  0.52905  1.0000
  C   C2681     1.0  0.16379  0.66871  0.52019  1.0000
  C   C2682     1.0  0.17312  0.64354  0.50970  1.0000
  H   H2126     1.0  0.03766  0.65136  0.68090  1.0000
  H   H2127     1.0  0.02460  0.63618  0.67634  1.0000
  C   C2683     1.0  0.04964  0.61014  0.51224  1.0000
  C   C2684     1.0  0.00650  0.53873  0.53257  1.0000
  C   C2685     1.0  0.04558  0.59941  0.57756  1.0000
  H   H2128     1.0  0.15427  0.69341  0.49691  1.0000
  H   H2129     1.0  0.11609  0.69054  0.50361  1.0000
  H   H2130     1.0  0.07376  0.68426  0.56765  1.0000
  H   H2131     1.0  0.06198  0.66407  0.58072  1.0000
  H   H2132     1.0  0.00682  0.70988  0.52712  1.0000
  C   C2686     1.0  0.00436  0.71122  0.51690  1.0000
  C   C2687     1.0  0.02347  0.56148  0.58773  1.0000
  S   S372      1.0  0.01756  0.52068  0.48647  1.0000
  H   H2133     1.0  0.10777  0.59263  0.51298  1.0000
  Fe  Fe189     1.0  0.04032  0.49633  0.70019  1.0000
  H   H2134     1.0  0.10308  0.61684  0.49700  1.0000
  H   H2135     1.0  0.22082  0.49211  0.66881  1.0000
  H   H2136     1.0  0.11331  0.55779  0.65622  1.0000
  H   H2137     1.0  0.08948  0.70938  0.49625  1.0000
  H   H2138     1.0  0.03998  0.52485  0.57693  1.0000
  C   C2688     1.0  0.12876  0.67481  0.49143  1.0000
  H   H2139     1.0  0.06473  0.60167  0.56088  1.0000
  C   C2689     1.0  0.01537  0.70595  0.50607  1.0000
  H   H2140     1.0  0.08145  0.54559  0.50864  1.0000
  H   H2141     1.0  0.15724  0.64322  0.68258  1.0000
  C   C2690     1.0  0.09232  0.58084  0.64026  1.0000
  H   H2142     1.0  0.15618  0.70534  0.54341  1.0000
  C   C2691     1.0  0.11084  0.55324  0.61112  1.0000
  H   H2143     1.0  0.10435  0.63803  0.50428  1.0000
  H   H2144     1.0  0.10561  0.57715  0.49587  1.0000
  C   C2692     1.0  0.08393  0.60740  0.64801  1.0000
  S   S373      1.0  0.04974  0.58064  0.58210  1.0000
  C   C2693     1.0  0.03859  0.56080  0.71574  1.0000
  H   H2145     1.0  0.05598  0.63707  0.50295  1.0000
  C   C2694     1.0  0.02790  0.62153  0.58023  1.0000
  H   H2146     1.0  0.08204  0.50478  0.70043  1.0000
  C   C2695     1.0  0.05244  0.73621  0.59991  1.0000
  H   H2147     1.0  0.03644  0.68477  0.64251  1.0000
  C   C2696     1.0  0.12795  0.65012  0.50302  1.0000
  P   P87       1.0  0.11064  0.64152  0.52991  1.0000
  C   C2697     1.0  0.14841  0.56124  0.70590  1.0000
  H   H2148     1.0  0.10467  0.71353  0.58317  1.0000
  C   C2698     1.0  0.09184  0.64824  0.53749  1.0000
  C   C2699     1.0  0.07137  0.59438  0.49133  1.0000
  H   H2149     1.0  0.05845  0.62857  0.67003  1.0000
  C   C2700     1.0  0.03245  0.68884  0.57145  1.0000
  H   H2150     1.0  0.00410  0.56201  0.71422  1.0000
  C   C2701     1.0  0.11413  0.66911  0.51537  1.0000
  H   H2151     1.0  0.06101  0.67048  0.52805  1.0000
  H   H2152     1.0  0.13765  0.59425  0.68586  1.0000
  C   C2702     1.0  0.01247  0.70720  0.49283  1.0000
  C   C2703     1.0  0.16412  0.69869  0.51102  1.0000
  H   H2153     1.0  0.06410  0.60697  0.61921  1.0000
  H   H2154     1.0  0.03219  0.71059  0.56024  1.0000
  C   C2704     1.0  0.03893  0.70049  0.56439  1.0000
  H   H2155     1.0  0.02551  0.63304  0.62010  1.0000
  C   C2705     1.0  0.03767  0.54762  0.57014  1.0000
  C   C2706     1.0  0.13428  0.62020  0.69496  1.0000
  C   C2707     1.0  0.10845  0.60196  0.51606  1.0000
  P   P88       1.0  0.02348  0.51912  0.60627  1.0000
  C   C2708     1.0  0.10785  0.61135  0.71377  1.0000
  H   H2156     1.0  0.10616  0.58994  0.72594  1.0000
  P   P89       1.0  0.17674  0.50569  0.70511  1.0000
  H   H2157     1.0  0.12099  0.61746  0.68246  1.0000
  H   H2158     1.0  0.00949  0.57813  0.67371  1.0000
  H   H2159     1.0  0.00778  0.71544  0.60447  1.0000
  C   C2709     1.0  0.11937  0.67923  0.50353  1.0000
  C   C2710     1.0  0.00951  0.57326  0.72668  1.0000
  H   H2160     1.0  0.08345  0.70284  0.59622  1.0000
  H   H2161     1.0  0.01443  0.54975  0.60821  1.0000
  C   C2711     1.0  0.06806  0.66291  0.53468  1.0000
  C   C2712     1.0  0.01497  0.52259  0.62386  1.0000
  H   H2162     1.0  0.04417  0.57243  0.72774  1.0000
  H   H2163     1.0  0.00687  0.50130  0.69998  1.0000
  C   C2713     1.0  0.17322  0.70699  0.51166  1.0000
  P   P90       1.0  0.06248  0.71398  0.55377  1.0000
  H   H2164     1.0  0.05425  0.59193  0.54563  1.0000
  H   H2165     1.0  0.08459  0.51577  0.56597  1.0000
  H   H2166     1.0  0.05609  0.62769  0.55214  1.0000
  S   S374      1.0  0.04146  0.54248  0.49020  1.0000
  C   C2714     1.0  0.01617  0.52219  0.64788  1.0000
  S   S375      1.0  0.11769  0.51305  0.72094  1.0000
  H   H2167     1.0  0.03252  0.52630  0.72466  1.0000
  C   C2715     1.0  0.04117  0.50705  0.60566  1.0000
  H   H2168     1.0  0.06421  0.61438  0.69328  1.0000
  C   C2716     1.0  0.02721  0.55790  0.71200  1.0000
  H   H2169     1.0  0.04951  0.73190  0.57468  1.0000
  C   C2717     1.0  0.04675  0.56165  0.52246  1.0000
  H   H2170     1.0  0.06486  0.70364  0.58379  1.0000
  S   S376      1.0  0.02878  0.64699  0.56084  1.0000
  S   S377      1.0  0.17373  0.73643  0.56319  1.0000
  H   H2171     1.0  0.07227  0.73476  0.52782  1.0000
  C   C2718     1.0  0.14935  0.63752  0.68261  1.0000
  C   C2719     1.0  0.16992  0.50076  0.73505  1.0000
  H   H2172     1.0  0.05420  0.52801  0.53897  1.0000
  S   S378      1.0  0.02884  0.56506  0.52043  1.0000
  C   C2720     1.0  0.04873  0.73046  0.55381  1.0000
  C   C2721     1.0  0.15887  0.64722  0.51743  1.0000
  C   C2722     1.0  0.04931  0.59972  0.53736  1.0000
  H   H2173     1.0  0.02237  0.51956  0.65600  1.0000
  H   H2174     1.0  0.07174  0.53392  0.54856  1.0000
  C   C2723     1.0  0.04179  0.73684  0.54233  1.0000
  H   H2175     1.0  0.08080  0.61767  0.65098  1.0000
  H   H2176     1.0  0.10859  0.65598  0.55234  1.0000
  H   H2177     1.0  0.05091  0.66147  0.55362  1.0000
  H   H2178     1.0  0.14452  0.63087  0.57103  1.0000
  H   H2179     1.0  0.09247  0.63454  0.55856  1.0000
  C   C2724     1.0  0.13365  0.62652  0.54338  1.0000
  H   H2180     1.0  0.10694  0.67267  0.52471  1.0000
  C   C2725     1.0  0.08416  0.71025  0.50715  1.0000
  C   C2726     1.0  0.07255  0.55142  0.51548  1.0000
  C   C2727     1.0  0.09237  0.59363  0.62973  1.0000
  H   H2181     1.0  0.15440  0.49716  0.69635  1.0000
  H   H2182     1.0  0.13965  0.67508  0.55402  1.0000
  C   C2728     1.0  0.07580  0.71415  0.56306  1.0000
  C   C2729     1.0  0.04081  0.67569  0.57715  1.0000
  C   C2730     1.0  0.19607  0.71219  0.53662  1.0000
  H   H2183     1.0  0.05221  0.73593  0.49717  1.0000
  C   C2731     1.0  0.09808  0.72023  0.56308  1.0000
  C   C2732     1.0  0.08830  0.60684  0.63362  1.0000
  C   C2733     1.0  0.13133  0.57021  0.60290  1.0000
  C   C2734     1.0  0.12072  0.57083  0.61556  1.0000
  C   C2735     1.0  0.07888  0.56558  0.63030  1.0000
  C   C2736     1.0  0.06750  0.55982  0.64009  1.0000
  C   C2737     1.0  0.05440  0.56166  0.63619  1.0000
  C   C2738     1.0  0.05261  0.56936  0.62254  1.0000
  C   C2739     1.0  0.06368  0.57559  0.61303  1.0000
  C   C2740     1.0  0.07670  0.57383  0.61690  1.0000
  C   C2741     1.0  0.04239  0.65925  0.67244  1.0000
  C   C2742     1.0  0.07114  0.64752  0.55763  1.0000
  H   H2184     1.0  0.13959  0.56100  0.58432  1.0000
  H   H2185     1.0  0.13914  0.57694  0.59957  1.0000
  H   H2186     1.0  0.12066  0.57785  0.62208  1.0000
  H   H2187     1.0  0.04581  0.55681  0.64364  1.0000
  H   H2188     1.0  0.04275  0.57051  0.61919  1.0000
  H   H2189     1.0  0.06220  0.58198  0.60265  1.0000
  H   H2190     1.0  0.08505  0.57894  0.60936  1.0000
  C   C2743     1.0  0.02413  0.68003  0.60888  1.0000
  C   C2744     1.0  0.02067  0.54894  0.59757  1.0000
  C   C2745     1.0  0.20115  0.72461  0.52934  1.0000
  H   H2191     1.0  0.08721  0.59945  0.49918  1.0000
  C   C2746     1.0  0.12157  0.55251  0.59858  1.0000
  C   C2747     1.0  0.17273  0.51067  0.72205  1.0000
  C   C2748     1.0  0.01275  0.53839  0.54362  1.0000
  C   C2749     1.0  0.00815  0.65259  0.64533  1.0000
  C   C2750     1.0  0.22559  0.50068  0.68402  1.0000
  C   C2751     1.0  0.05389  0.69903  0.56293  1.0000
  C   C2752     1.0  0.06726  0.50260  0.50303  1.0000
  H   H2192     1.0  0.02085  0.69003  0.57283  1.0000
  H   H2193     1.0  0.05624  0.59143  0.70454  1.0000
  C   C2753     1.0  0.03155  0.60858  0.49042  1.0000
  H   H2194     1.0  0.11122  0.51427  0.67745  1.0000
  H   H2195     1.0  0.01955  0.57172  0.59083  1.0000
  H   H2196     1.0  0.23707  0.49943  0.67905  1.0000
  H   H2197     1.0  0.14912  0.56961  0.68344  1.0000
  C   C2754     1.0  0.19585  0.50395  0.69688  1.0000
  H   H2198     1.0  0.11345  0.58992  0.53630  1.0000
  C   C2755     1.0  0.03644  0.61978  0.51615  1.0000
  C   C2756     1.0  0.13504  0.58945  0.70887  1.0000
  C   C2757     1.0  0.14382  0.56436  0.71944  1.0000
  C   C2758     1.0  0.10030  0.54840  0.64871  1.0000
  H   H2199     1.0  0.04310  0.58253  0.69260  1.0000
  H   H2200     1.0  0.04450  0.54712  0.55963  1.0000
  C   C2759     1.0  0.03501  0.66800  0.66179  1.0000
  C   C2760     1.0  0.02635  0.53562  0.59369  1.0000
  H   H2201     1.0  0.15332  0.55034  0.70478  1.0000
  C   C2761     1.0  0.11049  0.62594  0.52420  1.0000
  C   C2762     1.0  0.15418  0.65973  0.52269  1.0000
  C   C2763     1.0  0.13822  0.63292  0.56308  1.0000
  H   H2202     1.0  0.05355  0.72492  0.60062  1.0000
  C   C2764     1.0  0.13167  0.56116  0.59435  1.0000
  P   P91       1.0  0.09561  0.56409  0.63511  1.0000
  C   C2765     1.0  0.02953  0.60322  0.62484  1.0000
  H   H2203     1.0  0.03085  0.71645  0.60889  1.0000
  H   H2204     1.0  0.00921  0.54732  0.54886  1.0000
  H   H2205     1.0  0.19824  0.68990  0.53746  1.0000
  H   H2206     1.0  0.08937  0.72516  0.54450  1.0000
  H   H2207     1.0  0.09119  0.51898  0.71112  1.0000
  H   H2208     1.0  0.01184  0.52546  0.58027  1.0000
  C   C2766     1.0  0.12138  0.63791  0.54300  1.0000
  C   C2767     1.0  0.02300  0.51918  0.63440  1.0000
  C   C2768     1.0  0.17809  0.66495  0.51241  1.0000
  H   H2209     1.0  0.02960  0.55070  0.70497  1.0000
  C   C2769     1.0  0.14609  0.57209  0.69389  1.0000
  C   C2770     1.0  0.02273  0.51609  0.52908  1.0000
  Fe  Fe190     1.0  0.07632  0.55532  0.71341  1.0000
  C   C2771     1.0  0.07097  0.71243  0.53552  1.0000
  C   C2772     1.0  0.01008  0.64472  0.63513  1.0000
  H   H2210     1.0  0.02159  0.60382  0.61897  1.0000
  H   H2211     1.0  0.04456  0.62002  0.65831  1.0000
  H   H2212     1.0  0.05568  0.56954  0.67085  1.0000
  H   H2213     1.0  0.04701  0.63705  0.62533  1.0000
  C   C2773     1.0  0.03616  0.64134  0.63100  1.0000
  H   H2214     1.0  0.05659  0.54354  0.67688  1.0000
  C   C2774     1.0  0.03186  0.56083  0.57400  1.0000
  H   H2215     1.0  0.14882  0.62578  0.70421  1.0000
  C   C2775     1.0  0.12620  0.64443  0.56260  1.0000
  C   C2776     1.0  0.02936  0.51590  0.53987  1.0000
  H   H2216     1.0  0.02616  0.70087  0.50796  1.0000
  C   C2777     1.0  0.03505  0.53505  0.57997  1.0000
  C   C2778     1.0  0.13704  0.73318  0.53088  1.0000
  H   H2217     1.0  0.09003  0.73783  0.59536  1.0000
  C   C2779     1.0  0.13944  0.58614  0.69534  1.0000
  H   H2218     1.0  0.12925  0.63512  0.66106  1.0000
  H   H2219     1.0  0.02893  0.52701  0.55574  1.0000
  C   C2780     1.0  0.20225  0.69949  0.53179  1.0000
  H   H2220     1.0  0.03430  0.57055  0.56654  1.0000
  H   H2221     1.0  0.18562  0.67179  0.51029  1.0000
  C   C2781     1.0  0.08086  0.69817  0.51744  1.0000
  H   H2222     1.0  0.03576  0.66670  0.58274  1.0000
  H   H2223     1.0  0.05854  0.60000  0.64550  1.0000
  H   H2224     1.0  0.03423  0.53480  0.68095  1.0000
  C   C2782     1.0  0.05603  0.60012  0.52299  1.0000
  H   H2225     1.0  0.14307  0.66234  0.52859  1.0000
  H   H2226     1.0  0.08339  0.73282  0.50297  1.0000
  H   H2227     1.0  0.02567  0.60084  0.59362  1.0000
  C   C2783     1.0  0.14456  0.62757  0.69486  1.0000
  C   C2784     1.0  0.06230  0.65775  0.54910  1.0000
  H   H2228     1.0  0.00906  0.53264  0.72070  1.0000
  C   C2785     1.0  0.10585  0.61556  0.50709  1.0000
  S   S379      1.0  0.05651  0.55328  0.70787  1.0000
  H   H2229     1.0  0.02214  0.66983  0.60922  1.0000
  C   C2786     1.0  0.11009  0.56272  0.61947  1.0000
  H   H2230     1.0  0.06557  0.61963  0.72204  1.0000
  C   C2787     1.0  0.01603  0.70571  0.60629  1.0000
  H   H2231     1.0  0.11101  0.72978  0.60662  1.0000
  H   H2232     1.0  0.13158  0.63888  0.50268  1.0000
  C   C2788     1.0  0.09992  0.62520  0.70891  1.0000
  C   C2789     1.0  0.02973  0.61929  0.53056  1.0000
  C   C2790     1.0  0.08778  0.72037  0.55580  1.0000
  C   C2791     1.0  0.11803  0.65452  0.51500  1.0000
  C   C2792     1.0  0.11786  0.64699  0.55254  1.0000
  C   C2793     1.0  0.05937  0.51996  0.54694  1.0000
  C   C2794     1.0  0.03608  0.62906  0.56813  1.0000
  H   H2233     1.0  0.04369  0.65098  0.64327  1.0000
  C   C2795     1.0  0.21230  0.72450  0.51698  1.0000
  C   C2796     1.0  0.07673  0.51307  0.56202  1.0000
  S   S380      1.0  0.16408  0.73830  0.52730  1.0000
  H   H2234     1.0  0.15466  0.59864  0.72050  1.0000
  H   H2235     1.0  0.04433  0.73186  0.53335  1.0000
  C   C2797     1.0  0.05345  0.60507  0.62499  1.0000
  C   C2798     1.0  0.05017  0.60132  0.63991  1.0000
  C   C2799     1.0  0.03623  0.59932  0.64744  1.0000
  C   C2800     1.0  0.03543  0.56994  0.72505  1.0000
  P   P92       1.0  0.03180  0.59478  0.66673  1.0000
  C   C2801     1.0  0.03251  0.57578  0.67193  1.0000
  C   C2802     1.0  0.04342  0.60026  0.67428  1.0000
  C   C2803     1.0  0.04662  0.59244  0.68744  1.0000
  C   C2804     1.0  0.05399  0.59757  0.69430  1.0000
  C   C2805     1.0  0.05829  0.61056  0.68804  1.0000
  C   C2806     1.0  0.05503  0.61853  0.67496  1.0000
  C   C2807     1.0  0.04744  0.61350  0.66819  1.0000
  C   C2808     1.0  0.01985  0.57072  0.67440  1.0000
  H   H2236     1.0  0.06653  0.64310  0.56870  1.0000
  C   C2809     1.0  0.03375  0.54621  0.67839  1.0000
  C   C2810     1.0  0.04637  0.55116  0.67601  1.0000
  C   C2811     1.0  0.04578  0.56590  0.67273  1.0000
  H   H2237     1.0  0.01387  0.59070  0.69556  1.0000
  C   C2812     1.0  0.16292  0.69514  0.54752  1.0000
  C   C2813     1.0  0.00796  0.51650  0.58784  1.0000
  C   C2814     1.0  0.01142  0.52753  0.52537  1.0000
  C   C2815     1.0  0.06764  0.62522  0.48644  1.0000
  H   H2238     1.0  0.17671  0.63384  0.50562  1.0000
  C   C2816     1.0  0.13264  0.68190  0.54697  1.0000
  C   C2817     1.0  0.16854  0.69375  0.55931  1.0000
  C   C2818     1.0  0.06723  0.50324  0.60307  1.0000
  H   H2239     1.0  0.08838  0.61665  0.62546  1.0000
  C   C2819     1.0  0.25487  0.73515  0.52437  1.0000
  H   H2240     1.0  0.14748  0.64803  0.66097  1.0000
  C   C2820     1.0  0.16594  0.68347  0.54111  1.0000
  C   C2821     1.0  0.07122  0.64815  0.48711  1.0000
  C   C2822     1.0  0.00885  0.65773  0.51577  1.0000
  Fe  Fe191     1.0  0.00833  0.65397  0.57642  1.0000
  C   C2823     1.0  0.00753  0.57374  0.63355  1.0000
  H   H2241     1.0  0.10540  0.63380  0.70298  1.0000
  C   C2824     1.0  0.08474  0.62814  0.71176  1.0000
  C   C2825     1.0  0.00889  0.65616  0.67789  1.0000
  H   H2242     1.0  0.01900  0.57340  0.63136  1.0000
  C   C2826     1.0  0.01275  0.56420  0.71733  1.0000
  C   C2827     1.0  0.04310  0.60612  0.61746  1.0000
  H   H2243     1.0  0.10735  0.72497  0.55751  1.0000
  P   P93       1.0  0.12741  0.60775  0.71084  1.0000
  C   C2828     1.0  0.01411  0.60434  0.67441  1.0000
  P   P94       1.0  0.01764  0.66583  0.66093  1.0000
  H   H2244     1.0  0.20111  0.51221  0.71225  1.0000
  H   H2245     1.0  0.01118  0.62031  0.65514  1.0000
  C   C2829     1.0  0.07734  0.61736  0.71973  1.0000
  H   H2246     1.0  0.00692  0.56098  0.65492  1.0000
  C   C2830     1.0  0.00675  0.61671  0.66634  1.0000
  C   C2831     1.0  0.02086  0.57607  0.73064  1.0000
  C   C2832     1.0  0.08513  0.60367  0.72486  1.0000
  C   C2833     1.0  0.00926  0.51578  0.71109  1.0000
  C   C2834     1.0  0.07443  0.72450  0.52508  1.0000
  H   H2247     1.0  0.00969  0.69089  0.67325  1.0000
  C   C2835     1.0  0.20515  0.50796  0.70269  1.0000
  H   H2248     1.0  0.00856  0.61264  0.57110  1.0000
  C   C2836     1.0  0.09246  0.56933  0.48725  1.0000
  H   H2249     1.0  0.14517  0.55590  0.72883  1.0000
  C   C2837     1.0  0.01146  0.51150  0.60133  1.0000
  H   H2250     1.0  0.19626  0.73433  0.53333  1.0000
  P   P95       1.0  0.21935  0.74036  0.50818  1.0000
  H   H2251     1.0  0.07225  0.73735  0.58410  1.0000
  H   H2252     1.0  0.18562  0.72300  0.50015  1.0000
  C   C2838     1.0  0.05393  0.51905  0.72877  1.0000
  C   C2839     1.0  0.16099  0.69989  0.49782  1.0000
  C   C2840     1.0  0.08487  0.59182  0.49481  1.0000
  H   H2253     1.0  0.03223  0.73813  0.61557  1.0000
  C   C2841     1.0  0.03914  0.52537  0.73199  1.0000
  H   H2254     1.0  0.01064  0.55212  0.67999  1.0000
  H   H2255     1.0  0.11661  0.72789  0.53305  1.0000
  H   H2256     1.0  0.07941  0.59537  0.73130  1.0000
  H   H2257     1.0  0.26643  0.73061  0.52185  1.0000
  C   C2842     1.0  0.24604  0.73486  0.51572  1.0000
  S   S381      1.0  0.11230  0.73269  0.50492  1.0000
  C   C2843     1.0  0.00274  0.60409  0.57534  1.0000
  C   C2844     1.0  0.10780  0.74096  0.60144  1.0000
  C   C2845     1.0  0.13702  0.57835  0.72095  1.0000
  H   H2258     1.0  0.01150  0.60609  0.48775  1.0000
  C   C2846     1.0  0.05635  0.50623  0.55174  1.0000
  C   C2847     1.0  0.00823  0.60009  0.68906  1.0000
  C   C2848     1.0  0.13209  0.60937  0.72644  1.0000
  H   H2259     1.0  0.06902  0.51077  0.49331  1.0000
  P   P96       1.0  0.04430  0.50133  0.54420  1.0000
  C   C2849     1.0  0.21643  0.49656  0.67825  1.0000
  C   C2850     1.0  0.12661  0.73466  0.51099  1.0000
  C   C2851     1.0  0.22763  0.74044  0.48964  1.0000
  C   C2852     1.0  0.12585  0.73159  0.52569  1.0000
  C   C2853     1.0  0.14634  0.60364  0.72845  1.0000
  P   P97       1.0  0.05811  0.61079  0.49356  1.0000
  H   H2260     1.0  0.19465  0.49487  0.68013  1.0000
  H   H2261     1.0  0.25086  0.72980  0.50672  1.0000
  C   C2854     1.0  0.05560  0.49600  0.52810  1.0000
  C   C2855     1.0  0.13874  0.73911  0.50142  1.0000
  C   C2856     1.0  0.14996  0.74063  0.50658  1.0000
  Fe  Fe192     1.0  0.09344  0.56149  0.73084  1.0000
  H   H2262     1.0  0.13643  0.73062  0.54225  1.0000
  H   H2263     1.0  0.21102  0.73202  0.48650  1.0000
  H   H2264     1.0  0.06371  0.71243  0.49072  1.0000
  C   C2857     1.0  0.00309  0.51189  0.70214  1.0000
  C   C2858     1.0  0.00491  0.69382  0.66403  1.0000
  H   H2265     1.0  0.00624  0.49370  0.49787  1.0000
  S   S382      1.0  0.03420  0.49576  0.68058  1.0000
  C   C2859     1.0  0.06423  0.49575  0.56114  1.0000
  C   C2860     1.0  0.00374  0.59465  0.56693  1.0000
  H   H2266     1.0  0.06847  0.65705  0.49226  1.0000
  H   H2267     1.0  0.00223  0.65629  0.55138  1.0000
  H   H2268     1.0  0.11041  0.62011  0.73579  1.0000
  C   C2861     1.0  0.06413  0.63678  0.49312  1.0000
  H   H2269     1.0  0.00274  0.68073  0.63686  1.0000
  H   H2270     1.0  0.07432  0.51406  0.73497  1.0000
  H   H2271     1.0  0.16895  0.53986  0.73539  1.0000
  H   H2272     1.0  0.14397  0.49588  0.73563  1.0000
  C   C2862     1.0  0.24875  0.74115  0.53637  1.0000
  H   H2273     1.0  0.03147  0.49137  0.49483  1.0000
  H   H2274     1.0  0.10048  0.55954  0.48588  1.0000
  C   C2863     1.0  0.06852  0.58426  0.48582  1.0000
  H   H2275     1.0  0.17471  0.50505  0.94928  1.0000
  C   C2864     1.0  0.30973  0.64154  0.98038  1.0000
  C   C2865     1.0  0.14873  0.55233  0.91091  1.0000
  H   H2276     1.0  0.05655  0.55196  0.74844  1.0000
  Fe  Fe193     1.0  0.39573  0.64729  0.95574  1.0000
  S   S383      1.0  0.39488  0.62656  0.95160  1.0000
  C   C2866     1.0  0.04673  0.53105  0.79314  1.0000
  Fe  Fe194     1.0  0.39014  0.66415  0.92693  1.0000
  S   S384      1.0  0.38858  0.64494  0.92028  1.0000
  S   S385      1.0  0.38823  0.68587  0.91171  1.0000
  Fe  Fe195     1.0  0.37543  0.63899  0.94251  1.0000
  S   S386      1.0  0.35492  0.63012  0.95037  1.0000
  Fe  Fe196     1.0  0.40802  0.63367  0.92989  1.0000
  S   S387      1.0  0.42590  0.61788  0.91895  1.0000
  S   S388      1.0  0.37520  0.65926  0.94848  1.0000
  S   S389      1.0  0.41072  0.65337  0.93460  1.0000
  Fe  Fe197     1.0  0.29793  0.55633  0.94360  1.0000
  S   S390      1.0  0.32100  0.55556  0.93136  1.0000
  S   S391      1.0  0.27996  0.55039  0.93741  1.0000
  Fe  Fe198     1.0  0.30324  0.56569  0.96810  1.0000
  S   S392      1.0  0.32660  0.56535  0.95760  1.0000
  C   C2867     1.0  0.12505  0.61586  0.74950  1.0000
  Fe  Fe199     1.0  0.31904  0.57623  0.93753  1.0000
  S   S393      1.0  0.33116  0.59322  0.92298  1.0000
  Fe  Fe200     1.0  0.32700  0.54491  0.95244  1.0000
  S   S394      1.0  0.34657  0.52668  0.95444  1.0000
  S   S395      1.0  0.29525  0.57807  0.94816  1.0000
  S   S396      1.0  0.30415  0.54417  0.96449  1.0000
  H   H2277     1.0  0.13881  0.54283  0.93238  1.0000
  C   C2868     1.0  0.43038  0.57551  0.95970  1.0000
  C   C2869     1.0  0.16615  0.51912  0.74804  1.0000
  C   C2870     1.0  0.17740  0.51894  0.87438  1.0000
  H   H2278     1.0  0.41320  0.49526  0.93506  1.0000
  H   H2279     1.0  0.15486  0.50939  0.87302  1.0000
  H   H2280     1.0  0.36335  0.56575  0.91656  1.0000
  C   C2871     1.0  0.31805  0.53672  0.86694  1.0000
  S   S397      1.0  0.09277  0.56969  0.74975  1.0000
  C   C2872     1.0  0.13559  0.51723  0.86477  1.0000
  H   H2281     1.0  0.12776  0.50538  0.91601  1.0000
  C   C2873     1.0  0.47544  0.64333  0.89816  1.0000
  H   H2282     1.0  0.49007  0.71519  0.91897  1.0000
  Fe  Fe201     1.0  0.16103  0.53116  0.78259  1.0000
  S   S398      1.0  0.16278  0.53212  0.80424  1.0000
  H   H2283     1.0  0.16961  0.57421  0.83265  1.0000
  H   H2284     1.0  0.25635  0.50965  0.92281  1.0000
  H   H2285     1.0  0.09276  0.54459  0.77823  1.0000
  H   H2286     1.0  0.15856  0.55911  0.88890  1.0000
  Fe  Fe202     1.0  0.18500  0.51787  0.79983  1.0000
  S   S399      1.0  0.20659  0.51895  0.80329  1.0000
  H   H2287     1.0  0.47656  0.59316  0.91753  1.0000
  Fe  Fe203     1.0  0.26337  0.51713  0.88055  1.0000
  S   S400      1.0  0.23907  0.52276  0.88833  1.0000
  S   S401      1.0  0.28087  0.52560  0.88469  1.0000
  H   H2288     1.0  0.04326  0.50627  0.77763  1.0000
  C   C2874     1.0  0.36015  0.54465  0.91874  1.0000
  C   C2875     1.0  0.27463  0.49552  0.94964  1.0000
  Fe  Fe204     1.0  0.23763  0.51967  0.86720  1.0000
  S   S402      1.0  0.22031  0.53393  0.85529  1.0000
  H   H2289     1.0  0.36616  0.53964  0.92711  1.0000
  H   H2290     1.0  0.12354  0.50249  0.75485  1.0000
  S   S403      1.0  0.26185  0.51636  0.85863  1.0000
  C   C2876     1.0  0.48935  0.63667  0.87583  1.0000
  C   C2877     1.0  0.31737  0.59215  0.89494  1.0000
  C   C2878     1.0  0.08925  0.51639  0.89471  1.0000
  H   H2291     1.0  0.13220  0.52628  0.96839  1.0000
  C   C2879     1.0  0.26350  0.50348  0.94264  1.0000
  C   C2880     1.0  0.35333  0.53658  0.91444  1.0000
  S   S404      1.0  0.16387  0.49559  0.92790  1.0000
  C   C2881     1.0  0.30820  0.54912  0.87025  1.0000
  C   C2882     1.0  0.07508  0.50622  0.92905  1.0000
  C   C2883     1.0  0.20393  0.50405  0.91715  1.0000
  C   C2884     1.0  0.18880  0.50573  0.92007  1.0000
  H   H2292     1.0  0.32749  0.51714  0.91849  1.0000
  H   H2293     1.0  0.11968  0.50208  0.78327  1.0000
  H   H2294     1.0  0.19688  0.56674  0.86194  1.0000
  H   H2295     1.0  0.20868  0.51333  0.91368  1.0000
  H   H2296     1.0  0.18181  0.51635  0.91891  1.0000
  C   C2885     1.0  0.49916  0.66783  0.97316  1.0000
  H   H2297     1.0  0.11552  0.50165  0.85595  1.0000
  C   C2886     1.0  0.20956  0.52207  0.81870  1.0000
  C   C2887     1.0  0.22228  0.51445  0.82361  1.0000
  C   C2888     1.0  0.22558  0.51764  0.83506  1.0000
  C   C2889     1.0  0.21643  0.52885  0.84134  1.0000
  C   C2890     1.0  0.20387  0.53651  0.83626  1.0000
  C   C2891     1.0  0.20027  0.53300  0.82522  1.0000
  C   C2892     1.0  0.29087  0.60564  0.97105  1.0000
  H   H2298     1.0  0.23537  0.51170  0.83875  1.0000
  H   H2299     1.0  0.19691  0.54524  0.84087  1.0000
  H   H2300     1.0  0.19064  0.53917  0.82134  1.0000
  H   H2301     1.0  0.34882  0.57741  0.89840  1.0000
  C   C2893     1.0  0.05341  0.57215  0.75358  1.0000
  C   C2894     1.0  0.14984  0.60380  0.74099  1.0000
  H   H2302     1.0  0.31463  0.52948  0.86291  1.0000
  H   H2303     1.0  0.44555  0.53583  0.97456  1.0000
  H   H2304     1.0  0.09849  0.51558  0.81085  1.0000
  C   C2895     1.0  0.12149  0.61565  0.73700  1.0000
  C   C2896     1.0  0.10963  0.56412  0.75474  1.0000
  C   C2897     1.0  0.12773  0.56931  0.76358  1.0000
  C   C2898     1.0  0.11424  0.57345  0.75976  1.0000
  H   H2305     1.0  0.13145  0.57679  0.76695  1.0000
  H   H2306     1.0  0.10754  0.58403  0.76035  1.0000
  H   H2307     1.0  0.03914  0.50095  0.75780  1.0000
  C   C2899     1.0  0.18175  0.55302  0.86782  1.0000
  C   C2900     1.0  0.33342  0.58919  0.86124  1.0000
  C   C2901     1.0  0.07367  0.50966  0.88392  1.0000
  C   C2902     1.0  0.48686  0.68636  0.89523  1.0000
  H   H2308     1.0  0.15894  0.55389  0.84739  1.0000
  H   H2309     1.0  0.43000  0.65410  0.97996  1.0000
  H   H2310     1.0  0.28345  0.57734  0.91744  1.0000
  C   C2903     1.0  0.28058  0.54264  0.92318  1.0000
  C   C2904     1.0  0.29367  0.53713  0.91445  1.0000
  C   C2905     1.0  0.29356  0.53155  0.90301  1.0000
  C   C2906     1.0  0.28040  0.53140  0.90012  1.0000
  C   C2907     1.0  0.26733  0.53652  0.90913  1.0000
  C   C2908     1.0  0.26743  0.54205  0.92060  1.0000
  H   H2311     1.0  0.30386  0.53734  0.91636  1.0000
  H   H2312     1.0  0.30375  0.52745  0.89628  1.0000
  H   H2313     1.0  0.25712  0.53657  0.90701  1.0000
  H   H2314     1.0  0.25724  0.54624  0.92731  1.0000
  H   H2315     1.0  0.16075  0.59895  0.74267  1.0000
  C   C2909     1.0  0.05230  0.50140  0.79598  1.0000
  H   H2316     1.0  0.08428  0.54002  0.86338  1.0000
  C   C2910     1.0  0.39869  0.69726  0.91252  1.0000
  C   C2911     1.0  0.40277  0.69623  0.92514  1.0000
  C   C2912     1.0  0.41062  0.70581  0.92564  1.0000
  C   C2913     1.0  0.41512  0.71595  0.91337  1.0000
  C   C2914     1.0  0.41122  0.71686  0.90071  1.0000
  C   C2915     1.0  0.40270  0.70779  0.90041  1.0000
  H   H2317     1.0  0.39954  0.68830  0.93459  1.0000
  H   H2318     1.0  0.41314  0.70540  0.93559  1.0000
  Fe  Fe205     1.0  0.43868  0.73886  0.89430  1.0000
  C   C2916     1.0  0.33451  0.63388  0.98341  1.0000
  C   C2917     1.0  0.34906  0.61944  0.94260  1.0000
  C   C2918     1.0  0.35530  0.61757  0.92864  1.0000
  C   C2919     1.0  0.34976  0.60953  0.92272  1.0000
  C   C2920     1.0  0.33812  0.60306  0.93077  1.0000
  C   C2921     1.0  0.33204  0.60477  0.94478  1.0000
  C   C2922     1.0  0.33743  0.61296  0.95064  1.0000
  H   H2319     1.0  0.36423  0.62254  0.92233  1.0000
  H   H2320     1.0  0.35452  0.60830  0.91187  1.0000
  H   H2321     1.0  0.32316  0.59981  0.95111  1.0000
  H   H2322     1.0  0.33255  0.61428  0.96146  1.0000
  C   C2923     1.0  0.46557  0.59657  0.93858  1.0000
  H   H2323     1.0  0.37656  0.69841  0.95322  1.0000
  H   H2324     1.0  0.01513  0.52014  0.79100  1.0000
  C   C2924     1.0  0.44082  0.60925  0.92688  1.0000
  C   C2925     1.0  0.45406  0.60370  0.91838  1.0000
  C   C2926     1.0  0.46635  0.59734  0.92421  1.0000
  C   C2927     1.0  0.02959  0.56468  0.77471  1.0000
  H   H2325     1.0  0.45486  0.60454  0.90718  1.0000
  C   C2928     1.0  0.27771  0.49591  0.92092  1.0000
  C   C2929     1.0  0.00604  0.55109  0.76676  1.0000
  C   C2930     1.0  0.47742  0.69765  0.90113  1.0000
  C   C2931     1.0  0.08096  0.50699  0.89482  1.0000
  H   H2326     1.0  0.28093  0.49932  0.80394  1.0000
  C   C2932     1.0  0.34711  0.53678  0.97698  1.0000
  C   C2933     1.0  0.35494  0.52826  0.96715  1.0000
  C   C2934     1.0  0.36941  0.52117  0.96752  1.0000
  C   C2935     1.0  0.18273  0.49364  0.92436  1.0000
  S   S405      1.0  0.17717  0.49739  0.80852  1.0000
  H   H2327     1.0  0.33577  0.54163  0.97738  1.0000
  H   H2328     1.0  0.37548  0.51438  0.96009  1.0000
  H   H2329     1.0  0.46910  0.53052  0.98567  1.0000
  H   H2330     1.0  0.02175  0.53644  0.74601  1.0000
  C   C2936     1.0  0.12555  0.54276  0.86132  1.0000
  C   C2937     1.0  0.05600  0.50690  0.80551  1.0000
  H   H2331     1.0  0.32702  0.59626  0.88932  1.0000
  C   C2938     1.0  0.07478  0.52160  0.87264  1.0000
  H   H2332     1.0  0.10976  0.49272  0.88799  1.0000
  C   C2939     1.0  0.15470  0.55039  0.89695  1.0000
  H   H2333     1.0  0.16378  0.49758  0.75799  1.0000
  C   C2940     1.0  0.12882  0.49925  0.90827  1.0000
  C   C2941     1.0  0.32949  0.50674  0.91606  1.0000
  H   H2334     1.0  0.47487  0.65716  0.87725  1.0000
  S   S406      1.0  0.23751  0.49628  0.87497  1.0000
  H   H2335     1.0  0.18039  0.52226  0.85152  1.0000
  H   H2336     1.0  0.39940  0.70878  0.89068  1.0000
  H   H2337     1.0  0.22967  0.50614  0.81847  1.0000
  C   C2942     1.0  0.11640  0.51318  0.82039  1.0000
  P   P98       1.0  0.03444  0.53756  0.76930  1.0000
  C   C2943     1.0  0.08319  0.53093  0.87230  1.0000
  C   C2944     1.0  0.05331  0.52170  0.80403  1.0000
  C   C2945     1.0  0.34867  0.68418  0.97651  1.0000
  C   C2946     1.0  0.18411  0.51565  0.86099  1.0000
  H   H2338     1.0  0.48197  0.65610  0.98169  1.0000
  H   H2339     1.0  0.30535  0.61206  0.97925  1.0000
  C   C2947     1.0  0.32429  0.64247  0.97553  1.0000
  H   H2340     1.0  0.41486  0.49730  0.95861  1.0000
  C   C2948     1.0  0.14787  0.53253  0.86992  1.0000
  P   P99       1.0  0.33197  0.56700  0.88540  1.0000
  C   C2949     1.0  0.34632  0.68919  0.95192  1.0000
  C   C2950     1.0  0.03323  0.49266  0.76003  1.0000
  H   H2341     1.0  0.15284  0.49296  0.98021  1.0000
  Fe  Fe206     1.0  0.48137  0.59056  0.96726  1.0000
  C   C2951     1.0  0.48686  0.73476  0.95631  1.0000
  C   C2952     1.0  0.04997  0.55899  0.75540  1.0000
  H   H2342     1.0  0.05640  0.52588  0.81139  1.0000
  H   H2343     1.0  0.04773  0.59174  0.76091  1.0000
  C   C2953     1.0  0.34356  0.50007  0.91006  1.0000
  S   S407      1.0  0.46127  0.59651  0.98371  1.0000
  H   H2344     1.0  0.06274  0.57497  0.74547  1.0000
  C   C2954     1.0  0.35860  0.55933  0.91280  1.0000
  C   C2955     1.0  0.32060  0.50522  0.95184  1.0000
  H   H2345     1.0  0.18588  0.54668  0.87717  1.0000
  C   C2956     1.0  0.15553  0.53738  0.89357  1.0000
  C   C2957     1.0  0.31795  0.50002  0.91896  1.0000
  C   C2958     1.0  0.49910  0.72333  0.95588  1.0000
  C   C2959     1.0  0.23005  0.49442  0.78275  1.0000
  C   C2960     1.0  0.47947  0.64674  0.88320  1.0000
  C   C2961     1.0  0.42687  0.71528  0.96385  1.0000
  C   C2962     1.0  0.42504  0.72485  0.95084  1.0000
  P   P100      1.0  0.44313  0.70132  0.96482  1.0000
  C   C2963     1.0  0.09774  0.50408  0.84632  1.0000
  C   C2964     1.0  0.43837  0.68629  0.96212  1.0000
  H   H2346     1.0  0.09072  0.50019  0.85631  1.0000
  H   H2347     1.0  0.05605  0.50159  0.94501  1.0000
  C   C2965     1.0  0.42901  0.66401  0.95808  1.0000
  C   C2966     1.0  0.43123  0.67572  0.94682  1.0000
  C   C2967     1.0  0.43610  0.68676  0.94875  1.0000
  H   H2348     1.0  0.14187  0.60976  0.76135  1.0000
  H   H2349     1.0  0.14836  0.56228  0.91351  1.0000
  H   H2350     1.0  0.41064  0.66698  0.88704  1.0000
  H   H2351     1.0  0.23267  0.50007  0.78916  1.0000
  C   C2968     1.0  0.14381  0.52326  0.96769  1.0000
  C   C2969     1.0  0.45853  0.70563  0.95092  1.0000
  C   C2970     1.0  0.46078  0.71965  0.94654  1.0000
  H   H2352     1.0  0.01069  0.51274  0.74648  1.0000
  S   S408      1.0  0.48152  0.58894  0.94521  1.0000
  C   C2971     1.0  0.47986  0.69832  0.93297  1.0000
  C   C2972     1.0  0.46840  0.69489  0.94431  1.0000
  H   H2353     1.0  0.18848  0.58089  0.83990  1.0000
  H   H2354     1.0  0.33438  0.60651  0.84260  1.0000
  H   H2355     1.0  0.16362  0.52238  0.75807  1.0000
  C   C2973     1.0  0.47220  0.72306  0.93507  1.0000
  C   C2974     1.0  0.31985  0.49337  0.96340  1.0000
  C   C2975     1.0  0.20121  0.49561  0.87162  1.0000
  H   H2356     1.0  0.48081  0.70759  0.89921  1.0000
  H   H2357     1.0  0.42476  0.65570  0.95678  1.0000
  H   H2358     1.0  0.42882  0.67633  0.93673  1.0000
  H   H2359     1.0  0.43761  0.69591  0.93997  1.0000
  H   H2360     1.0  0.48165  0.72875  0.84005  1.0000
  H   H2361     1.0  0.30391  0.56210  0.90403  1.0000
  H   H2362     1.0  0.36805  0.65793  0.98125  1.0000
  H   H2363     1.0  0.36317  0.69816  0.93579  1.0000
  H   H2364     1.0  0.42073  0.68729  0.88626  1.0000
  C   C2976     1.0  0.13919  0.60986  0.75153  1.0000
  C   C2977     1.0  0.14330  0.54143  0.92153  1.0000
  C   C2978     1.0  0.45221  0.60175  0.94721  1.0000
  H   H2365     1.0  0.46704  0.68394  0.94765  1.0000
  C   C2979     1.0  0.19606  0.50412  0.85961  1.0000
  H   H2366     1.0  0.22309  0.51212  0.95792  1.0000
  C   C2980     1.0  0.34060  0.59782  0.84928  1.0000
  H   H2367     1.0  0.40804  0.58248  0.96935  1.0000
  C   C2981     1.0  0.26515  0.61403  0.98004  1.0000
  S   S409      1.0  0.13955  0.50768  0.83298  1.0000
  P   P101      1.0  0.09973  0.51200  0.90815  1.0000
  C   C2982     1.0  0.49104  0.61956  0.89824  1.0000
  C   C2983     1.0  0.12506  0.52919  0.86040  1.0000
  H   H2368     1.0  0.06740  0.50224  0.88415  1.0000
  C   C2984     1.0  0.42170  0.57723  0.98462  1.0000
  C   C2985     1.0  0.22295  0.50237  0.77178  1.0000
  H   H2369     1.0  0.43363  0.72456  0.94130  1.0000
  C   C2986     1.0  0.21894  0.49538  0.76372  1.0000
  H   H2370     1.0  0.13524  0.50672  0.86398  1.0000
  H   H2371     1.0  0.32165  0.59125  0.86368  1.0000
  H   H2372     1.0  0.34757  0.54062  0.87547  1.0000
  H   H2373     1.0  0.27408  0.60002  0.96528  1.0000
  C   C2987     1.0  0.35663  0.57538  0.86649  1.0000
  C   C2988     1.0  0.10242  0.52828  0.91052  1.0000
  C   C2989     1.0  0.09327  0.53488  0.92155  1.0000
  C   C2990     1.0  0.09530  0.54765  0.92309  1.0000
  C   C2991     1.0  0.10637  0.55398  0.91358  1.0000
  C   C2992     1.0  0.11544  0.54752  0.90253  1.0000
  C   C2993     1.0  0.11357  0.53466  0.90108  1.0000
  C   C2994     1.0  0.16650  0.55707  0.85122  1.0000
  H   H2374     1.0  0.36132  0.60203  0.83672  1.0000
  H   H2375     1.0  0.01073  0.55899  0.75814  1.0000
  C   C2995     1.0  0.44855  0.69715  0.98162  1.0000
  H   H2376     1.0  0.04479  0.54246  0.79227  1.0000
  H   H2377     1.0  0.19847  0.49208  0.89434  1.0000
  H   H2378     1.0  0.12076  0.52968  0.89257  1.0000
  H   H2379     1.0  0.33995  0.52421  0.86602  1.0000
  H   H2380     1.0  0.06098  0.49973  0.81407  1.0000
  C   C2996     1.0  0.09817  0.49232  0.93448  1.0000
  C   C2997     1.0  0.11179  0.50494  0.84610  1.0000
  H   H2381     1.0  0.31988  0.58098  0.97716  1.0000
  P   P102      1.0  0.16285  0.53469  0.87556  1.0000
  C   C2998     1.0  0.30638  0.49224  0.97283  1.0000
  H   H2382     1.0  0.29958  0.59912  0.96469  1.0000
  H   H2383     1.0  0.08456  0.53024  0.92897  1.0000
  H   H2384     1.0  0.35252  0.50520  0.90798  1.0000
  H   H2385     1.0  0.10792  0.56387  0.91477  1.0000
  H   H2386     1.0  0.12403  0.55240  0.89518  1.0000
  C   C2999     1.0  0.40167  0.72472  0.97451  1.0000
  H   H2387     1.0  0.07881  0.51060  0.77126  1.0000
  H   H2388     1.0  0.34583  0.63448  0.97954  1.0000
  C   C3000     1.0  0.48157  0.71245  0.92815  1.0000
  H   H2389     1.0  0.06940  0.52342  0.86400  1.0000
  C   C3001     1.0  0.19437  0.49861  0.88504  1.0000
  H   H2390     1.0  0.18530  0.52805  0.93946  1.0000
  P   P103      1.0  0.19309  0.50838  0.96589  1.0000
  H   H2391     1.0  0.22007  0.51397  0.76995  1.0000
  C   C3002     1.0  0.17380  0.51447  0.96659  1.0000
  C   C3003     1.0  0.16785  0.51128  0.95697  1.0000
  C   C3004     1.0  0.15296  0.51580  0.95740  1.0000
  H   H2392     1.0  0.30711  0.50551  0.92339  1.0000
  H   H2393     1.0  0.02045  0.56186  0.78309  1.0000
  C   C3005     1.0  0.19684  0.50978  0.98208  1.0000
  C   C3006     1.0  0.04587  0.51071  0.78499  1.0000
  H   H2394     1.0  0.49749  0.68766  0.88874  1.0000
  C   C3007     1.0  0.30444  0.57296  0.90328  1.0000
  H   H2395     1.0  0.19715  0.49199  0.83244  1.0000
  H   H2396     1.0  0.20166  0.50215  0.84915  1.0000
  C   C3008     1.0  0.20312  0.51895  0.95039  1.0000
  C   C3009     1.0  0.21772  0.51872  0.94947  1.0000
  C   C3010     1.0  0.22542  0.52707  0.93762  1.0000
  C   C3011     1.0  0.21873  0.53549  0.92652  1.0000
  C   C3012     1.0  0.20424  0.53581  0.92734  1.0000
  C   C3013     1.0  0.19645  0.52762  0.93922  1.0000
  C   C3014     1.0  0.01496  0.53935  0.77408  1.0000
  C   C3015     1.0  0.35577  0.59529  0.84595  1.0000
  C   C3016     1.0  0.36378  0.58404  0.85453  1.0000
  Fe  Fe207     1.0  0.46819  0.73234  0.87473  1.0000
  H   H2397     1.0  0.08034  0.49742  0.90320  1.0000
  C   C3017     1.0  0.48295  0.73870  0.83242  1.0000
  H   H2398     1.0  0.14849  0.51294  0.95013  1.0000
  H   H2399     1.0  0.35769  0.49811  0.95026  1.0000
  C   C3018     1.0  0.18799  0.56443  0.85922  1.0000
  H   H2400     1.0  0.37744  0.49502  0.92912  1.0000
  S   S410      1.0  0.46133  0.73700  0.89655  1.0000
  C   C3019     1.0  0.46352  0.69630  0.90909  1.0000
  H   H2401     1.0  0.29719  0.55142  0.86876  1.0000
  C   C3020     1.0  0.30582  0.60068  0.90278  1.0000
  H   H2402     1.0  0.34071  0.68876  0.94423  1.0000
  C   C3021     1.0  0.34122  0.68397  0.96653  1.0000
  H   H2403     1.0  0.23658  0.52710  0.93693  1.0000
  H   H2404     1.0  0.22479  0.54174  0.91723  1.0000
  H   H2405     1.0  0.19910  0.54224  0.91865  1.0000
  Fe  Fe208     1.0  0.15477  0.51169  0.81142  1.0000
  C   C3022     1.0  0.41345  0.50680  0.95014  1.0000
  C   C3023     1.0  0.41260  0.50567  0.93683  1.0000
  C   C3024     1.0  0.41094  0.51795  0.92588  1.0000
  C   C3025     1.0  0.41014  0.53136  0.92826  1.0000
  C   C3026     1.0  0.41093  0.53255  0.94164  1.0000
  C   C3027     1.0  0.41246  0.52018  0.95261  1.0000
  P   P104      1.0  0.40925  0.54996  0.94482  1.0000
  C   C3028     1.0  0.41497  0.54729  0.96115  1.0000
  C   C3029     1.0  0.42147  0.55924  0.93037  1.0000
  C   C3030     1.0  0.43523  0.55155  0.92454  1.0000
  C   C3031     1.0  0.44524  0.55870  0.91416  1.0000
  C   C3032     1.0  0.44155  0.57357  0.90937  1.0000
  C   C3033     1.0  0.42776  0.58124  0.91476  1.0000
  C   C3034     1.0  0.41774  0.57415  0.92517  1.0000
  C   C3035     1.0  0.40466  0.54905  0.97386  1.0000
  C   C3036     1.0  0.13682  0.54442  0.86624  1.0000
  C   C3037     1.0  0.35897  0.69452  0.94715  1.0000
  C   C3038     1.0  0.43415  0.53968  0.97428  1.0000
  C   C3039     1.0  0.42975  0.54238  0.96151  1.0000
  C   C3040     1.0  0.39057  0.55985  0.94683  1.0000
  C   C3041     1.0  0.37983  0.55396  0.94536  1.0000
  C   C3042     1.0  0.36531  0.56129  0.94767  1.0000
  C   C3043     1.0  0.36135  0.57450  0.95153  1.0000
  C   C3044     1.0  0.37191  0.58046  0.95302  1.0000
  C   C3045     1.0  0.38645  0.57307  0.95091  1.0000
  S   S411      1.0  0.48602  0.71438  0.86758  1.0000
  C   C3046     1.0  0.09033  0.50279  0.92505  1.0000
  H   H2406     1.0  0.41026  0.51707  0.91557  1.0000
  H   H2407     1.0  0.40876  0.54082  0.91974  1.0000
  H   H2408     1.0  0.41284  0.52078  0.96312  1.0000
  H   H2409     1.0  0.43834  0.54004  0.92819  1.0000
  H   H2410     1.0  0.45594  0.55274  0.90996  1.0000
  H   H2411     1.0  0.44936  0.57919  0.90152  1.0000
  H   H2412     1.0  0.42487  0.59278  0.91102  1.0000
  H   H2413     1.0  0.40723  0.58049  0.92908  1.0000
  H   H2414     1.0  0.39311  0.55209  0.97420  1.0000
  C   C3047     1.0  0.49880  0.71085  0.96680  1.0000
  C   C3048     1.0  0.30309  0.49172  0.87666  1.0000
  H   H2415     1.0  0.36775  0.68928  0.97892  1.0000
  H   H2416     1.0  0.43795  0.54046  0.95206  1.0000
  H   H2417     1.0  0.38246  0.54354  0.94285  1.0000
  H   H2418     1.0  0.35710  0.55656  0.94671  1.0000
  C   C3049     1.0  0.12133  0.50899  0.83309  1.0000
  H   H2419     1.0  0.49557  0.73044  0.98551  1.0000
  H   H2420     1.0  0.39440  0.57758  0.95272  1.0000
  C   C3050     1.0  0.14689  0.51885  0.86963  1.0000
  H   H2421     1.0  0.33096  0.50684  0.94498  1.0000
  H   H2422     1.0  0.13831  0.53550  0.75784  1.0000
  C   C3051     1.0  0.13167  0.54607  0.75840  1.0000
  H   H2423     1.0  0.01839  0.58314  0.73786  1.0000
  H   H2424     1.0  0.30213  0.64803  0.97389  1.0000
  H   H2425     1.0  0.43133  0.62553  0.97874  1.0000
  H   H2426     1.0  0.39429  0.67697  0.96910  1.0000
  C   C3052     1.0  0.47457  0.73376  0.96742  1.0000
  C   C3053     1.0  0.26498  0.50356  0.92832  1.0000
  C   C3054     1.0  0.34352  0.55788  0.89795  1.0000
  H   H2427     1.0  0.08824  0.55265  0.93166  1.0000
  S   S412      1.0  0.44588  0.73252  0.87315  1.0000
  C   C3055     1.0  0.32636  0.55500  0.87848  1.0000
  H   H2428     1.0  0.15026  0.51654  0.90188  1.0000
  H   H2429     1.0  0.45356  0.56881  0.95252  1.0000
  C   C3056     1.0  0.09041  0.52834  0.88329  1.0000
  H   H2430     1.0  0.36878  0.59077  0.95593  1.0000
  C   C3057     1.0  0.27645  0.60610  0.97142  1.0000
  H   H2431     1.0  0.36303  0.56665  0.87293  1.0000
  C   C3058     1.0  0.44465  0.57091  0.96150  1.0000
  H   H2432     1.0  0.45350  0.72803  0.95171  1.0000
  C   C3059     1.0  0.29462  0.51424  0.95880  1.0000
  C   C3060     1.0  0.30799  0.51551  0.94947  1.0000
  C   C3061     1.0  0.06274  0.51843  0.73776  1.0000
  H   H2433     1.0  0.33908  0.53690  0.90161  1.0000
  C   C3062     1.0  0.17062  0.54954  0.86414  1.0000
  S   S413      1.0  0.40042  0.64530  0.97714  1.0000
  C   C3063     1.0  0.00855  0.52921  0.78510  1.0000
  C   C3064     1.0  0.31669  0.57827  0.89496  1.0000
  C   C3065     1.0  0.34138  0.57804  0.87004  1.0000
  H   H2434     1.0  0.47566  0.64235  0.95420  1.0000
  S   S414      1.0  0.07617  0.50505  0.83354  1.0000
  H   H2435     1.0  0.48714  0.69009  0.92760  1.0000
  C   C3066     1.0  0.09301  0.50776  0.83357  1.0000
  H   H2436     1.0  0.11733  0.55201  0.85796  1.0000
  C   C3067     1.0  0.11867  0.49219  0.89258  1.0000
  C   C3068     1.0  0.36656  0.69460  0.95697  1.0000
  H   H2437     1.0  0.14247  0.53164  0.98575  1.0000
  H   H2438     1.0  0.44281  0.68317  0.89478  1.0000
  H   H2439     1.0  0.16871  0.52419  0.98477  1.0000
  H   H2440     1.0  0.30669  0.61116  0.90314  1.0000
  H   H2441     1.0  0.28496  0.52249  0.95710  1.0000
  H   H2442     1.0  0.30861  0.52483  0.94074  1.0000
  H   H2443     1.0  0.30373  0.50100  0.89327  1.0000
  C   C3069     1.0  0.13642  0.55556  0.76311  1.0000
  H   H2444     1.0  0.02643  0.58523  0.77957  1.0000
  C   C3070     1.0  0.03299  0.57790  0.77280  1.0000
  C   C3071     1.0  0.46799  0.64224  0.94834  1.0000
  C   C3072     1.0  0.45679  0.63504  0.95527  1.0000
  C   C3073     1.0  0.44683  0.63484  0.94789  1.0000
  C   C3074     1.0  0.44826  0.64138  0.93343  1.0000
  C   C3075     1.0  0.45937  0.64874  0.92636  1.0000
  C   C3076     1.0  0.46930  0.64909  0.93391  1.0000
  P   P105      1.0  0.46218  0.65624  0.90741  1.0000
  C   C3077     1.0  0.44590  0.65991  0.90073  1.0000
  C   C3078     1.0  0.46825  0.67246  0.90471  1.0000
  C   C3079     1.0  0.45907  0.68364  0.91112  1.0000
  C   C3080     1.0  0.08444  0.52863  0.77425  1.0000
  S   S415      1.0  0.18397  0.51869  0.77748  1.0000
  H   H2445     1.0  0.11520  0.52754  0.78406  1.0000
  C   C3081     1.0  0.48231  0.67380  0.89696  1.0000
  C   C3082     1.0  0.43880  0.67398  0.89532  1.0000
  H   H2446     1.0  0.06877  0.51436  0.92206  1.0000
  Fe  Fe209     1.0  0.24109  0.49903  0.89511  1.0000
  C   C3083     1.0  0.42797  0.65096  0.89526  1.0000
  C   C3084     1.0  0.44061  0.64842  0.90020  1.0000
  H   H2447     1.0  0.45609  0.70517  0.91347  1.0000
  C   C3085     1.0  0.48119  0.62960  0.90565  1.0000
  C   C3086     1.0  0.44753  0.56963  0.97473  1.0000
  H   H2448     1.0  0.45578  0.62957  0.96636  1.0000
  H   H2449     1.0  0.43791  0.62961  0.95342  1.0000
  H   H2450     1.0  0.44076  0.64045  0.92788  1.0000
  H   H2451     1.0  0.47821  0.65439  0.92860  1.0000
  H   H2452     1.0  0.44825  0.68275  0.91726  1.0000
  H   H2453     1.0  0.02373  0.49411  0.78186  1.0000
  C   C3087     1.0  0.04495  0.58160  0.76229  1.0000
  C   C3088     1.0  0.18335  0.57230  0.84674  1.0000
  H   H2454     1.0  0.11678  0.62045  0.75773  1.0000
  H   H2455     1.0  0.13708  0.55499  0.86689  1.0000
  C   C3089     1.0  0.48637  0.70977  0.97778  1.0000
  H   H2456     1.0  0.42371  0.64205  0.89530  1.0000
  H   H2457     1.0  0.44614  0.63744  0.90381  1.0000
  H   H2458     1.0  0.47795  0.62642  0.91717  1.0000
  C   C3090     1.0  0.47431  0.72128  0.97813  1.0000
  H   H2459     1.0  0.17767  0.51263  0.89681  1.0000
  C   C3091     1.0  0.17269  0.56855  0.84269  1.0000
  H   H2460     1.0  0.21288  0.50153  0.75563  1.0000
  C   C3092     1.0  0.11846  0.55048  0.75388  1.0000
  C   C3093     1.0  0.41894  0.57862  0.97119  1.0000
  H   H2461     1.0  0.12361  0.51654  0.81036  1.0000
  C   C3094     1.0  0.14961  0.52631  0.97745  1.0000
  H   H2462     1.0  0.11663  0.52791  0.85615  1.0000
  H   H2463     1.0  0.23381  0.49883  0.98312  1.0000
  H   H2464     1.0  0.35006  0.58002  0.95358  1.0000
  H   H2465     1.0  0.16703  0.49547  0.85434  1.0000
  H   H2466     1.0  0.42946  0.61181  0.94809  1.0000
  C   C3095     1.0  0.10219  0.51270  0.82067  1.0000
  H   H2467     1.0  0.47362  0.73400  0.93135  1.0000
  C   C3096     1.0  0.05674  0.52404  0.75000  1.0000
  C   C3097     1.0  0.08691  0.51422  0.77380  1.0000
  H   H2468     1.0  0.09321  0.49425  0.74962  1.0000
  C   C3098     1.0  0.14370  0.52865  0.91815  1.0000
  H   H2469     1.0  0.06380  0.52389  0.75656  1.0000
  H   H2470     1.0  0.41444  0.72478  0.89125  1.0000
  H   H2471     1.0  0.07469  0.53616  0.77169  1.0000
  C   C3099     1.0  0.31237  0.55834  0.87580  1.0000
  C   C3100     1.0  0.42066  0.66498  0.89050  1.0000
  H   H2472     1.0  0.28475  0.60191  0.91711  1.0000
  C   C3101     1.0  0.29284  0.58156  0.91099  1.0000
  S   S416      1.0  0.15390  0.55137  0.76660  1.0000
  C   C3102     1.0  0.03807  0.55512  0.76598  1.0000
  C   C3103     1.0  0.33645  0.54293  0.87437  1.0000
  C   C3104     1.0  0.42625  0.67644  0.89026  1.0000
  C   C3105     1.0  0.14980  0.52662  0.90425  1.0000
  H   H2473     1.0  0.35402  0.52536  0.91963  1.0000
  H   H2474     1.0  0.42822  0.57695  0.94930  1.0000
  C   C3106     1.0  0.36150  0.68940  0.97156  1.0000
  C   C3107     1.0  0.29354  0.59541  0.91077  1.0000
  H   H2475     1.0  0.30459  0.56801  0.87800  1.0000
  H   H2476     1.0  0.11496  0.54320  0.75003  1.0000
  C   C3108     1.0  0.04188  0.53041  0.75335  1.0000
  S   S417      1.0  0.42514  0.72764  0.91440  1.0000
  H   H2477     1.0  0.37554  0.58205  0.85193  1.0000
  C   C3109     1.0  0.18255  0.51028  0.88642  1.0000
  C   C3110     1.0  0.09462  0.53340  0.77797  1.0000
  S   S418      1.0  0.26527  0.49343  0.88855  1.0000
  C   C3111     1.0  0.04292  0.52563  0.78352  1.0000
  H   H2478     1.0  0.13952  0.52016  0.92637  1.0000
  C   C3112     1.0  0.03311  0.53115  0.74414  1.0000
  C   C3113     1.0  0.34494  0.54316  0.90415  1.0000
  C   C3114     1.0  0.09972  0.50458  0.77677  1.0000
  C   C3115     1.0  0.10731  0.52380  0.78118  1.0000
  C   C3116     1.0  0.33223  0.53370  0.86885  1.0000
  S   S419      1.0  0.15134  0.51170  0.79005  1.0000
  H   H2479     1.0  0.42038  0.60698  0.97686  1.0000
  H   H2480     1.0  0.32784  0.64953  0.96543  1.0000
  H   H2481     1.0  0.25376  0.50959  0.94833  1.0000
  C   C3117     1.0  0.35032  0.56592  0.90248  1.0000
  H   H2482     1.0  0.09703  0.53556  0.88269  1.0000
  C   C3118     1.0  0.10983  0.50942  0.78068  1.0000
  H   H2483     1.0  0.45139  0.60093  0.95837  1.0000
  C   C3119     1.0  0.43980  0.60794  0.94139  1.0000
  H   H2484     1.0  0.32246  0.50378  0.98385  1.0000
  H   H2485     1.0  0.26201  0.67468  0.97030  1.0000
  C   C3120     1.0  0.16455  0.52200  0.97689  1.0000
  C   C3121     1.0  0.29384  0.50269  0.97056  1.0000
  H   H2486     1.0  0.39459  0.69474  0.98222  1.0000
  H   H2487     1.0  0.33161  0.67962  0.96988  1.0000
  H   H2488     1.0  0.30193  0.50190  0.86900  1.0000
  Fe  Fe210     1.0  0.17452  0.49913  0.78649  1.0000
  C   C3122     1.0  0.43177  0.66322  0.97124  1.0000
  C   C3123     1.0  0.37349  0.60727  0.97967  1.0000
  C   C3124     1.0  0.38640  0.60346  0.98446  1.0000
  C   C3125     1.0  0.06782  0.49907  0.94209  1.0000
  H   H2489     1.0  0.49180  0.67821  0.97125  1.0000
  C   C3126     1.0  0.11705  0.50055  0.90234  1.0000
  C   C3127     1.0  0.41494  0.71504  0.97553  1.0000
  C   C3128     1.0  0.49358  0.65547  0.97903  1.0000
  C   C3129     1.0  0.12663  0.49151  0.75368  1.0000
  H   H2490     1.0  0.48974  0.66530  0.89212  1.0000
  H   H2491     1.0  0.38714  0.51734  0.97788  1.0000
  H   H2492     1.0  0.39315  0.61115  0.98163  1.0000
  C   C3130     1.0  0.37602  0.52284  0.97755  1.0000
  C   C3131     1.0  0.29407  0.61295  0.97940  1.0000
  H   H2493     1.0  0.49532  0.60896  0.90412  1.0000
  H   H2494     1.0  0.20165  0.53087  0.97327  1.0000
  C   C3132     1.0  0.33341  0.49924  0.98534  1.0000
  C   C3133     1.0  0.27349  0.49338  0.80342  1.0000
  H   H2495     1.0  0.27340  0.49542  0.96073  1.0000
  S   S420      1.0  0.49283  0.60583  0.96993  1.0000
  C   C3134     1.0  0.30397  0.49118  0.89049  1.0000
  C   C3135     1.0  0.39631  0.67342  0.97975  1.0000
  H   H2496     1.0  0.37018  0.61788  0.97333  1.0000
  H   H2497     1.0  0.35474  0.60052  0.97931  1.0000
  H   H2498     1.0  0.28035  0.49556  0.78064  1.0000
  C   C3136     1.0  0.43585  0.67458  0.97344  1.0000
  H   H2499     1.0  0.27865  0.49635  0.90980  1.0000
  C   C3137     1.0  0.20061  0.52218  0.98260  1.0000
  H   H2500     1.0  0.27724  0.65023  0.97406  1.0000
  Fe  Fe211     1.0  0.26168  0.49302  0.86757  1.0000
  C   C3138     1.0  0.26375  0.66918  0.98089  1.0000
  H   H2501     1.0  0.25398  0.61419  0.98048  1.0000
  H   H2502     1.0  0.43649  0.67438  0.98407  1.0000
  C   C3139     1.0  0.49514  0.62308  0.88334  1.0000
  C   C3140     1.0  0.16635  0.50510  0.74797  1.0000
  C   C3141     1.0  0.27242  0.65531  0.98307  1.0000
  H   H2503     1.0  0.49239  0.63936  0.86427  1.0000
  H   H2504     1.0  0.28356  0.50207  0.97810  1.0000
  H   H2505     1.0  0.45867  0.56668  0.97587  1.0000
  H   H2506     1.0  0.46311  0.67707  0.97815  1.0000
  H   H2507     1.0  0.50037  0.73255  0.87472  1.0000
  C   C3142     1.0  0.41175  0.73451  0.94980  1.0000
  C   C3143     1.0  0.40008  0.73451  0.96165  1.0000
  C   C3144     1.0  0.36477  0.59742  0.98300  1.0000
  H   H2508     1.0  0.39254  0.72430  0.98363  1.0000
  S   S421      1.0  0.49204  0.57171  0.98228  1.0000
  C   C3145     1.0  0.27316  0.49124  0.79031  1.0000
  H   H2509     1.0  0.41577  0.70708  0.98534  1.0000
  C   C3146     1.0  0.45862  0.68435  0.98532  1.0000
  S   S422      1.0  0.44097  0.78742  0.08171  1.0000
  S   S423      1.0  0.45108  0.85201  0.18578  1.0000
  C   C3147     1.0  0.48892  0.80591  0.09992  1.0000
  C   C3148     1.0  0.47418  0.84604  0.00670  1.0000
  S   S424      1.0  0.46906  0.84160  0.05645  1.0000
  C   C3149     1.0  0.44850  0.86289  0.22364  1.0000
  C   C3150     1.0  0.46976  0.92088  0.17365  1.0000
  C   C3151     1.0  0.46962  0.79490  0.12418  1.0000
  C   C3152     1.0  0.38801  0.74848  0.08937  1.0000
  C   C3153     1.0  0.48322  0.78637  0.11960  1.0000
  H   H2510     1.0  0.49677  0.77210  0.22353  1.0000
  H   H2511     1.0  0.48112  0.91320  0.19068  1.0000
  C   C3154     1.0  0.46553  0.80903  0.11659  1.0000
  C   C3155     1.0  0.44203  0.83625  0.11101  1.0000
  H   H2512     1.0  0.46227  0.79039  0.13361  1.0000
  C   C3156     1.0  0.47536  0.81456  0.10449  1.0000
  C   C3157     1.0  0.48704  0.87566  0.17693  1.0000
  C   C3158     1.0  0.47750  0.87976  0.16774  1.0000
  C   C3159     1.0  0.46632  0.87255  0.17056  1.0000
  C   C3160     1.0  0.46504  0.86095  0.18226  1.0000
  C   C3161     1.0  0.47479  0.85670  0.19124  1.0000
  C   C3162     1.0  0.48553  0.86430  0.18880  1.0000
  H   H2513     1.0  0.47865  0.88854  0.15855  1.0000
  H   H2514     1.0  0.45882  0.87579  0.16355  1.0000
  H   H2515     1.0  0.47400  0.84763  0.20014  1.0000
  H   H2516     1.0  0.44506  0.80307  0.15276  1.0000
  Fe  Fe212     1.0  0.45683  0.82968  0.19890  1.0000
  H   H2517     1.0  0.43182  0.81492  0.06460  1.0000
  C   C3163     1.0  0.46847  0.76867  0.16392  1.0000
  H   H2518     1.0  0.42698  0.78543  0.11308  1.0000
  C   C3164     1.0  0.47858  0.75354  0.21775  1.0000
  C   C3165     1.0  0.44926  0.80215  0.07482  1.0000
  C   C3166     1.0  0.46269  0.80175  0.07733  1.0000
  C   C3167     1.0  0.46920  0.81362  0.07122  1.0000
  C   C3168     1.0  0.46200  0.82606  0.06306  1.0000
  C   C3169     1.0  0.44851  0.82647  0.06076  1.0000
  C   C3170     1.0  0.44223  0.81452  0.06650  1.0000
  H   H2519     1.0  0.46813  0.79226  0.08384  1.0000
  H   H2520     1.0  0.47960  0.81327  0.07307  1.0000
  H   H2521     1.0  0.44287  0.83607  0.05453  1.0000
  H   H2522     1.0  0.44963  0.91658  0.22971  1.0000
  H   H2523     1.0  0.44478  0.80019  0.10811  1.0000
  C   C3171     1.0  0.44429  0.83656  0.09648  1.0000
  H   H2524     1.0  0.48888  0.78038  0.03306  1.0000
  H   H2525     1.0  0.42322  0.87082  0.11067  1.0000
  C   C3172     1.0  0.40374  0.91493  0.23278  1.0000
  C   C3173     1.0  0.39936  0.96381  0.21106  1.0000
  C   C3174     1.0  0.45957  0.77956  0.03329  1.0000
  C   C3175     1.0  0.49048  0.74954  0.20687  1.0000
  H   H2526     1.0  0.45920  0.78978  0.02572  1.0000
  C   C3176     1.0  0.43594  0.80062  0.11747  1.0000
  H   H2527     1.0  0.43685  0.93779  0.20292  1.0000
  H   H2528     1.0  0.43199  0.96182  0.18731  1.0000
  H   H2529     1.0  0.48253  0.89115  0.08549  1.0000
  C   C3177     1.0  0.46912  0.76724  0.02935  1.0000
  H   H2530     1.0  0.45537  0.75676  0.22557  1.0000
  C   C3178     1.0  0.46085  0.86242  0.22821  1.0000
  H   H2531     1.0  0.48398  0.87505  0.21628  1.0000
  C   C3179     1.0  0.48450  0.93408  0.17848  1.0000
  C   C3180     1.0  0.46673  0.93192  0.16199  1.0000
  H   H2532     1.0  0.47089  0.95223  0.14901  1.0000
  H   H2533     1.0  0.48014  0.76637  0.16247  1.0000
  C   C3181     1.0  0.47098  0.82430  0.99609  1.0000
  H   H2534     1.0  0.47810  0.78761  0.05617  1.0000
  C   C3182     1.0  0.43474  0.80928  0.12680  1.0000
  H   H2535     1.0  0.48715  0.95097  0.10953  1.0000
  H   H2536     1.0  0.44356  0.78830  0.05023  1.0000
  C   C3183     1.0  0.42631  0.94489  0.20529  1.0000
  H   H2537     1.0  0.47457  0.88305  0.99579  1.0000
  C   C3184     1.0  0.49492  0.86791  0.99052  1.0000
  C   C3185     1.0  0.47266  0.94397  0.15845  1.0000
  H   H2538     1.0  0.44961  0.85907  0.21419  1.0000
  C   C3186     1.0  0.43348  0.90450  0.21090  1.0000
  H   H2539     1.0  0.44782  0.80769  0.17462  1.0000
  H   H2540     1.0  0.37770  0.91363  0.21702  1.0000
  C   C3187     1.0  0.45964  0.77636  0.17426  1.0000
  C   C3188     1.0  0.49865  0.78225  0.06229  1.0000
  C   C3189     1.0  0.34525  0.74604  0.13697  1.0000
  H   H2541     1.0  0.47993  0.75721  0.22634  1.0000
  C   C3190     1.0  0.45399  0.82773  0.16409  1.0000
  H   H2542     1.0  0.46027  0.93087  0.15534  1.0000
  H   H2543     1.0  0.48945  0.83199  0.21806  1.0000
  H   H2544     1.0  0.37467  0.75948  0.11720  1.0000
  H   H2545     1.0  0.40379  0.80192  0.15050  1.0000
  C   C3191     1.0  0.43839  0.77342  0.16843  1.0000
  H   H2546     1.0  0.43119  0.84841  0.12743  1.0000
  C   C3192     1.0  0.45124  0.76550  0.05674  1.0000
  H   H2547     1.0  0.41580  0.74827  0.10344  1.0000
  S   S425      1.0  0.50074  0.88475  0.17396  1.0000
  C   C3193     1.0  0.44969  0.81540  0.16460  1.0000
  H   H2548     1.0  0.46112  0.74305  0.06062  1.0000
  C   C3194     1.0  0.46076  0.75318  0.05287  1.0000
  C   C3195     1.0  0.50017  0.80755  0.01236  1.0000
  H   H2549     1.0  0.47541  0.85420  0.01116  1.0000
  H   H2550     1.0  0.42671  0.77511  0.17034  1.0000
  C   C3196     1.0  0.46233  0.74864  0.20639  1.0000
  S   S426      1.0  0.49701  0.78941  0.99809  1.0000
  S   S427      1.0  0.43932  0.75872  0.14850  1.0000
  Fe  Fe213     1.0  0.44696  0.80952  0.22619  1.0000
  C   C3197     1.0  0.49390  0.88625  0.08523  1.0000
  C   C3198     1.0  0.46710  0.83542  0.01584  1.0000
  H   H2551     1.0  0.37892  0.74354  0.09143  1.0000
  C   C3199     1.0  0.48879  0.85695  0.12681  1.0000
  C   C3200     1.0  0.42923  0.86129  0.10668  1.0000
  C   C3201     1.0  0.46999  0.75401  0.03924  1.0000
  H   H2552     1.0  0.46320  0.83541  0.02713  1.0000
  C   C3202     1.0  0.41017  0.96802  0.19933  1.0000
  H   H2553     1.0  0.42301  0.90502  0.20906  1.0000
  H   H2554     1.0  0.39667  0.92676  0.21321  1.0000
  Fe  Fe214     1.0  0.45169  0.75391  0.12681  1.0000
  C   C3203     1.0  0.41090  0.76204  0.08398  1.0000
  C   C3204     1.0  0.48813  0.74491  0.19585  1.0000
  C   C3205     1.0  0.45664  0.83765  0.15121  1.0000
  H   H2555     1.0  0.47141  0.85771  0.22243  1.0000
  C   C3206     1.0  0.40196  0.76588  0.07426  1.0000
  H   H2556     1.0  0.38362  0.76204  0.06939  1.0000
  C   C3207     1.0  0.42362  0.95855  0.19641  1.0000
  C   C3208     1.0  0.49063  0.87804  0.22134  1.0000
  H   H2557     1.0  0.47140  0.90283  0.21639  1.0000
  H   H2558     1.0  0.44444  0.76483  0.06740  1.0000
  H   H2559     1.0  0.46919  0.88963  0.19963  1.0000
  C   C3209     1.0  0.47053  0.94019  0.21083  1.0000
  H   H2560     1.0  0.49142  0.74568  0.12954  1.0000
  C   C3210     1.0  0.44452  0.77873  0.17650  1.0000
  C   C3211     1.0  0.41546  0.94060  0.21709  1.0000
  S   S428      1.0  0.46090  0.82542  0.22077  1.0000
  H   H2561     1.0  0.43758  0.78444  0.18456  1.0000
  C   C3212     1.0  0.42582  0.79225  0.12022  1.0000
  C   C3213     1.0  0.45958  0.89574  0.20553  1.0000
  C   C3214     1.0  0.49138  0.96430  0.19019  1.0000
  C   C3215     1.0  0.43396  0.84858  0.11614  1.0000
  H   H2562     1.0  0.42122  0.81725  0.14539  1.0000
  H   H2563     1.0  0.45544  0.82947  0.17369  1.0000
  S   S429      1.0  0.47645  0.81340  0.19146  1.0000
  C   C3216     1.0  0.47361  0.86393  0.10962  1.0000
  C   C3217     1.0  0.47981  0.85089  0.10544  1.0000
  C   C3218     1.0  0.44591  0.89641  0.20353  1.0000
  C   C3219     1.0  0.43211  0.86166  0.09211  1.0000
  C   C3220     1.0  0.46238  0.76369  0.15564  1.0000
  H   H2564     1.0  0.47871  0.79581  0.15138  1.0000
  H   H2565     1.0  0.48348  0.82013  0.14437  1.0000
  C   C3221     1.0  0.45015  0.82303  0.13927  1.0000
  H   H2566     1.0  0.46560  0.87187  0.10433  1.0000
  H   H2567     1.0  0.47658  0.84875  0.09690  1.0000
  C   C3222     1.0  0.35369  0.75610  0.12945  1.0000
  S   S430      1.0  0.46575  0.79113  0.22126  1.0000
  C   C3223     1.0  0.39053  0.75909  0.07694  1.0000
  C   C3224     1.0  0.48943  0.79749  0.14562  1.0000
  H   H2568     1.0  0.49704  0.74210  0.18713  1.0000
  C   C3225     1.0  0.46255  0.93886  0.22496  1.0000
  Fe  Fe215     1.0  0.46173  0.79790  0.19893  1.0000
  C   C3226     1.0  0.44729  0.76593  0.15793  1.0000
  H   H2569     1.0  0.47587  0.76826  0.01865  1.0000
  C   C3227     1.0  0.42274  0.81016  0.13840  1.0000
  C   C3228     1.0  0.41273  0.80162  0.14124  1.0000
  H   H2570     1.0  0.40678  0.78573  0.13454  1.0000
  H   H2571     1.0  0.46017  0.84711  0.15090  1.0000
  H   H2572     1.0  0.39352  0.94706  0.22898  1.0000
  C   C3229     1.0  0.46083  0.90308  0.21498  1.0000
  H   H2573     1.0  0.48328  0.89301  0.01087  1.0000
  H   H2574     1.0  0.49298  0.86110  0.19583  1.0000
  C   C3230     1.0  0.45494  0.83520  0.13877  1.0000
  C   C3231     1.0  0.43465  0.86776  0.23153  1.0000
  H   H2575     1.0  0.47346  0.87717  0.12336  1.0000
  H   H2576     1.0  0.44147  0.84949  0.07579  1.0000
  H   H2577     1.0  0.46572  0.91124  0.17597  1.0000
  C   C3232     1.0  0.39718  0.74428  0.09902  1.0000
  C   C3233     1.0  0.43949  0.84927  0.08705  1.0000
  C   C3234     1.0  0.44797  0.81293  0.15221  1.0000
  S   S431      1.0  0.46825  0.78224  0.18423  1.0000
  C   C3235     1.0  0.47802  0.86690  0.12036  1.0000
  S   S432      1.0  0.46437  0.76929  0.11103  1.0000
  H   H2578     1.0  0.47265  0.82543  0.09851  1.0000
  C   C3236     1.0  0.41435  0.79255  0.13223  1.0000
  C   C3237     1.0  0.40195  0.95013  0.21984  1.0000
  H   H2579     1.0  0.41966  0.76742  0.08203  1.0000
  C   C3238     1.0  0.49125  0.92329  0.21890  1.0000
  S   S433      1.0  0.44170  0.81485  0.20453  1.0000
  C   C3239     1.0  0.49285  0.79183  0.10744  1.0000
  H   H2580     1.0  0.48624  0.77546  0.12544  1.0000
  H   H2581     1.0  0.48214  0.96292  0.19893  1.0000
  Fe  Fe216     1.0  0.47930  0.80771  0.21389  1.0000
  H   H2582     1.0  0.38899  0.97118  0.21355  1.0000
  Fe  Fe217     1.0  0.45251  0.76817  0.09554  1.0000
  C   C3240     1.0  0.49692  0.98110  0.22628  1.0000
  C   C3241     1.0  0.45073  0.77872  0.04703  1.0000
  P   P106      1.0  0.41889  0.92330  0.22908  1.0000
  P   P107      1.0  0.44807  0.81980  0.12320  1.0000
  H   H2583     1.0  0.45743  0.84277  0.12879  1.0000
  C   C3242     1.0  0.50105  0.83016  0.21682  1.0000
  H   H2584     1.0  0.44966  0.82696  0.09244  1.0000
  C   C3243     1.0  0.43468  0.91187  0.22044  1.0000
  H   H2585     1.0  0.40391  0.77413  0.06467  1.0000
  P   P108      1.0  0.49559  0.93542  0.18949  1.0000
  H   H2586     1.0  0.42848  0.87148  0.08474  1.0000
  C   C3244     1.0  0.49038  0.84077  0.11207  1.0000
  C   C3245     1.0  0.48570  0.87904  0.99700  1.0000
  C   C3246     1.0  0.47851  0.92201  0.18193  1.0000
  H   H2587     1.0  0.46007  0.81631  0.01764  1.0000
  H   H2588     1.0  0.48848  0.98651  0.19053  1.0000
  C   C3247     1.0  0.49385  0.95661  0.23453  1.0000
  S   S434      1.0  0.43855  0.75408  0.11163  1.0000
  C   C3248     1.0  0.44844  0.91100  0.22247  1.0000
  S   S435      1.0  0.46920  0.74997  0.08748  1.0000
  C   C3249     1.0  0.38442  0.91081  0.22473  1.0000
  H   H2589     1.0  0.48633  0.95433  0.16334  1.0000
  H   H2590     1.0  0.48953  0.80649  0.01882  1.0000
  C   C3250     1.0  0.36828  0.75154  0.12297  1.0000
  H   H2591     1.0  0.50010  0.85102  0.21942  1.0000
  C   C3251     1.0  0.49981  0.95294  0.18364  1.0000
  H   H2592     1.0  0.44499  0.89060  0.19625  1.0000
  C   C3252     1.0  0.48509  0.93272  0.20771  1.0000
  H   H2593     1.0  0.49643  0.81003  0.09047  1.0000
  S   S436      1.0  0.49155  0.91285  0.13893  1.0000
  C   C3253     1.0  0.46535  0.82465  0.01050  1.0000
  H   H2594     1.0  0.39008  0.74704  0.13746  1.0000
  S   S437      1.0  0.49075  0.89961  0.10665  1.0000
  C   C3254     1.0  0.46456  0.75316  0.21745  1.0000
  Fe  Fe218     1.0  0.47995  0.74971  0.10461  1.0000
  H   H2595     1.0  0.49416  0.78595  0.07216  1.0000
  H   H2596     1.0  0.34892  0.76744  0.12862  1.0000
  H   H2597     1.0  0.46936  0.75777  0.14775  1.0000
  C   C3255     1.0  0.48154  0.94506  0.16663  1.0000
  C   C3256     1.0  0.47965  0.84593  0.99212  1.0000
  C   C3257     1.0  0.47413  0.74441  0.19566  1.0000
  C   C3258     1.0  0.49543  0.94861  0.10020  1.0000
  H   H2598     1.0  0.33393  0.74958  0.14196  1.0000
  C   C3259     1.0  0.49568  0.77893  0.04038  1.0000
  C   C3260     1.0  0.48966  0.78321  0.05332  1.0000
  H   H2599     1.0  0.47008  0.81564  0.99211  1.0000
  H   H2600     1.0  0.49230  0.85970  0.13482  1.0000
  C   C3261     1.0  0.49056  0.88467  0.00564  1.0000
  C   C3262     1.0  0.39508  0.91838  0.22273  1.0000
  H   H2601     1.0  0.45140  0.94486  0.22732  1.0000
  Fe  Fe219     1.0  0.49299  0.83745  0.05503  1.0000
  H   H2602     1.0  0.40813  0.97865  0.19256  1.0000
  H   H2603     1.0  0.40693  0.74728  0.15154  1.0000
  H   H2604     1.0  0.46543  0.94726  0.20233  1.0000
  H   H2605     1.0  0.49817  0.83062  0.18199  1.0000
  C   C3263     1.0  0.49494  0.97773  0.18550  1.0000
  H   H2606     1.0  0.48831  0.74938  0.05672  1.0000
  H   H2607     1.0  0.49680  0.87694  0.06730  1.0000
  C   C3264     1.0  0.49218  0.81124  0.14168  1.0000
  C   C3265     1.0  0.40859  0.75121  0.09623  1.0000
  C   C3266     1.0  0.48312  0.92168  0.23299  1.0000
  C   C3267     1.0  0.47813  0.83487  0.98691  1.0000
  H   H2608     1.0  0.49524  0.83075  0.10863  1.0000
  H   H2609     1.0  0.49870  0.77510  0.14565  1.0000
  H   H2610     1.0  0.42514  0.86769  0.22816  1.0000
  H   H2611     1.0  0.45143  0.74883  0.20588  1.0000
  H   H2612     1.0  0.48637  0.93216  0.09815  1.0000
  H   H2613     1.0  0.49853  0.76901  0.18115  1.0000
  C   C3268     1.0  0.49510  0.84383  0.12265  1.0000
  H   H2614     1.0  0.49630  0.82334  0.16110  1.0000
  C   C3269     1.0  0.49500  0.93800  0.09382  1.0000
  C   C3270     1.0  0.50062  0.88833  0.09487  1.0000
  C   C3271     1.0  0.50064  0.78581  0.14247  1.0000
  H   H2615     1.0  0.47233  0.74135  0.18685  1.0000
  H   H2616     1.0  0.50161  0.82321  0.02250  1.0000
  H   H2617     1.0  0.50154  0.74572  0.14958  1.0000
  C   C3272     1.0  0.50148  0.75006  0.01097  1.0000
  C   C3273     1.0  0.41909  0.93946  0.24793  1.0000
  H   H2618     1.0  0.31988  0.91663  0.29345  1.0000
  Fe  Fe220     1.0  0.21465  0.77948  0.44718  1.0000
  S   S438      1.0  0.23619  0.78469  0.44488  1.0000
  S   S439      1.0  0.21418  0.76132  0.43802  1.0000
  Fe  Fe221     1.0  0.19815  0.80441  0.46078  1.0000
  S   S440      1.0  0.21783  0.81203  0.45974  1.0000
  S   S441      1.0  0.17593  0.81624  0.46945  1.0000
  Fe  Fe222     1.0  0.22505  0.80757  0.43779  1.0000
  S   S442      1.0  0.23518  0.82211  0.41813  1.0000
  Fe  Fe223     1.0  0.22745  0.78879  0.46701  1.0000
  H   H2619     1.0  0.25249  0.94101  0.33435  1.0000
  S   S443      1.0  0.20436  0.80212  0.43818  1.0000
  S   S444      1.0  0.20697  0.78130  0.47000  1.0000
  H   H2620     1.0  0.28358  0.82361  0.45042  1.0000
  H   H2621     1.0  0.45341  0.88227  0.30052  1.0000
  Fe  Fe224     1.0  0.07770  0.82870  0.47121  1.0000
  S   S445      1.0  0.08358  0.82812  0.44798  1.0000
  P   P109      1.0  0.47767  0.97534  0.25256  1.0000
  H   H2622     1.0  0.11899  0.80902  0.40556  1.0000
  H   H2623     1.0  0.34728  0.88561  0.42476  1.0000
  H   H2624     1.0  0.27029  0.92174  0.42553  1.0000
  H   H2625     1.0  0.29567  0.85063  0.37056  1.0000
  H   H2626     1.0  0.16968  0.77993  0.48209  1.0000
  H   H2627     1.0  0.06129  0.75677  0.45251  1.0000
  C   C3274     1.0  0.48104  0.97195  0.32229  1.0000
  H   H2628     1.0  0.26931  0.90118  0.44612  1.0000
  C   C3275     1.0  0.01071  0.75282  0.40259  1.0000
  C   C3276     1.0  0.48856  0.87485  0.23625  1.0000
  Fe  Fe225     1.0  0.41299  0.89009  0.30514  1.0000
  S   S446      1.0  0.41343  0.88604  0.28408  1.0000
  S   S447      1.0  0.42332  0.90714  0.30597  1.0000
  Fe  Fe226     1.0  0.39391  0.86916  0.32201  1.0000
  S   S448      1.0  0.39264  0.86319  0.30243  1.0000
  S   S449      1.0  0.38364  0.86053  0.34488  1.0000
  Fe  Fe227     1.0  0.41648  0.86287  0.29533  1.0000
  S   S450      1.0  0.43478  0.84623  0.28608  1.0000
  Fe  Fe228     1.0  0.38967  0.88682  0.29292  1.0000
  S   S451      1.0  0.37299  0.89849  0.27983  1.0000
  S   S452      1.0  0.41808  0.86689  0.31576  1.0000
  S   S453      1.0  0.38889  0.89281  0.31307  1.0000
  Fe  Fe229     1.0  0.30327  0.87725  0.37748  1.0000
  S   S454      1.0  0.27984  0.87675  0.38728  1.0000
  S   S455      1.0  0.31525  0.86988  0.35711  1.0000
  Fe  Fe230     1.0  0.30561  0.89096  0.39960  1.0000
  S   S456      1.0  0.28254  0.89186  0.41151  1.0000
  S   S457      1.0  0.32286  0.89840  0.40405  1.0000
  Fe  Fe231     1.0  0.28648  0.86964  0.40828  1.0000
  S   S458      1.0  0.27838  0.85329  0.42742  1.0000
  Fe  Fe232     1.0  0.27744  0.89900  0.38980  1.0000
  S   S459      1.0  0.25664  0.91407  0.38525  1.0000
  S   S460      1.0  0.31018  0.86806  0.39829  1.0000
  S   S461      1.0  0.30026  0.90020  0.37805  1.0000
  Fe  Fe233     1.0  0.44251  0.94683  0.35788  1.0000
  S   S462      1.0  0.46228  0.93575  0.34419  1.0000
  S   S463      1.0  0.42511  0.96390  0.34884  1.0000
  Fe  Fe234     1.0  0.45057  0.92874  0.38548  1.0000
  S   S464      1.0  0.47121  0.91612  0.37411  1.0000
  S   S465      1.0  0.44630  0.92344  0.40946  1.0000
  Fe  Fe235     1.0  0.47387  0.93737  0.35972  1.0000
  Fe  Fe236     1.0  0.45758  0.91570  0.35976  1.0000
  S   S466      1.0  0.45908  0.89564  0.35295  1.0000
  S   S467      1.0  0.45446  0.95016  0.37226  1.0000
  S   S468      1.0  0.43669  0.92661  0.37229  1.0000
  Fe  Fe237     1.0  0.35334  0.95276  0.43174  1.0000
  S   S469      1.0  0.33306  0.95553  0.44894  1.0000
  S   S470      1.0  0.35443  0.96955  0.41136  1.0000
  Fe  Fe238     1.0  0.36848  0.92605  0.44956  1.0000
  S   S471      1.0  0.34955  0.92647  0.46836  1.0000
  S   S472      1.0  0.38838  0.90835  0.45119  1.0000
  Fe  Fe239     1.0  0.33571  0.93185  0.45240  1.0000
  S   S473      1.0  0.31574  0.92252  0.45764  1.0000
  Fe  Fe240     1.0  0.34841  0.95008  0.46340  1.0000
  S   S474      1.0  0.35501  0.92933  0.43389  1.0000
  S   S475      1.0  0.36856  0.94923  0.44585  1.0000
  C   C3277     1.0  0.44656  0.84797  0.41767  1.0000
  C   C3278     1.0  0.48505  0.82110  0.25130  1.0000
  H   H2629     1.0  0.26174  0.80182  0.41788  1.0000
  C   C3279     1.0  0.43005  0.91858  0.41997  1.0000
  C   C3280     1.0  0.43037  0.90965  0.43349  1.0000
  C   C3281     1.0  0.41761  0.90616  0.44266  1.0000
  C   C3282     1.0  0.40426  0.91209  0.43871  1.0000
  C   C3283     1.0  0.40385  0.92092  0.42509  1.0000
  C   C3284     1.0  0.41684  0.92386  0.41557  1.0000
  H   H2630     1.0  0.44053  0.90552  0.43694  1.0000
  H   H2631     1.0  0.41799  0.89945  0.45317  1.0000
  H   H2632     1.0  0.39358  0.92547  0.42189  1.0000
  H   H2633     1.0  0.41658  0.93045  0.40500  1.0000
  C   C3285     1.0  0.31844  0.90654  0.41851  1.0000
  C   C3286     1.0  0.32606  0.91670  0.41764  1.0000
  C   C3287     1.0  0.32407  0.92250  0.42937  1.0000
  C   C3288     1.0  0.31522  0.91751  0.44237  1.0000
  C   C3289     1.0  0.30699  0.90776  0.44319  1.0000
  C   C3290     1.0  0.30850  0.90234  0.43116  1.0000
  H   H2634     1.0  0.33369  0.91999  0.40787  1.0000
  H   H2635     1.0  0.32948  0.93081  0.42836  1.0000
  H   H2636     1.0  0.29993  0.90402  0.45315  1.0000
  H   H2637     1.0  0.30261  0.89443  0.43185  1.0000
  C   C3291     1.0  0.33095  0.98169  0.39905  1.0000
  C   C3292     1.0  0.34025  0.96904  0.40445  1.0000
  C   C3293     1.0  0.33772  0.95576  0.40512  1.0000
  C   C3294     1.0  0.32580  0.95507  0.40064  1.0000
  C   C3295     1.0  0.33879  0.92416  0.31315  1.0000
  H   H2638     1.0  0.34503  0.94600  0.40899  1.0000
  H   H2639     1.0  0.32384  0.94481  0.40112  1.0000
  C   C3296     1.0  0.25201  0.96219  0.36710  1.0000
  C   C3297     1.0  0.24311  0.95470  0.36485  1.0000
  C   C3298     1.0  0.24482  0.93994  0.37039  1.0000
  C   C3299     1.0  0.25573  0.93243  0.37785  1.0000
  C   C3300     1.0  0.26521  0.93971  0.37952  1.0000
  C   C3301     1.0  0.26325  0.95467  0.37425  1.0000
  H   H2640     1.0  0.23449  0.96044  0.35927  1.0000
  H   H2641     1.0  0.23753  0.93434  0.36902  1.0000
  H   H2642     1.0  0.27372  0.93392  0.38522  1.0000
  C   C3302     1.0  0.31570  0.88366  0.47720  1.0000
  C   C3303     1.0  0.43229  0.90376  0.31982  1.0000
  C   C3304     1.0  0.43781  0.88974  0.32665  1.0000
  C   C3305     1.0  0.44600  0.88730  0.33686  1.0000
  C   C3306     1.0  0.44835  0.89887  0.34055  1.0000
  C   C3307     1.0  0.44231  0.91289  0.33414  1.0000
  C   C3308     1.0  0.43450  0.91532  0.32362  1.0000
  H   H2643     1.0  0.43616  0.88077  0.32377  1.0000
  H   H2644     1.0  0.45063  0.87645  0.34181  1.0000
  H   H2645     1.0  0.44389  0.92189  0.33702  1.0000
  H   H2646     1.0  0.43023  0.92621  0.31838  1.0000
  C   C3309     1.0  0.36466  0.86335  0.34817  1.0000
  C   C3310     1.0  0.35781  0.86523  0.33710  1.0000
  C   C3311     1.0  0.34263  0.86727  0.33989  1.0000
  C   C3312     1.0  0.33424  0.86765  0.35373  1.0000
  C   C3313     1.0  0.34112  0.86588  0.36476  1.0000
  C   C3314     1.0  0.35632  0.86357  0.36202  1.0000
  H   H2647     1.0  0.36428  0.86495  0.32645  1.0000
  H   H2648     1.0  0.33737  0.86862  0.33132  1.0000
  H   H2649     1.0  0.33480  0.86624  0.37543  1.0000
  H   H2650     1.0  0.36159  0.86219  0.37059  1.0000
  C   C3315     1.0  0.42654  0.96090  0.30379  1.0000
  C   C3316     1.0  0.43912  0.95980  0.32186  1.0000
  C   C3317     1.0  0.42580  0.96264  0.33151  1.0000
  C   C3318     1.0  0.41288  0.96450  0.32732  1.0000
  C   C3319     1.0  0.41322  0.96352  0.31352  1.0000
  H   H2651     1.0  0.44911  0.95865  0.32492  1.0000
  C   C3320     1.0  0.23966  0.74661  0.48273  1.0000
  C   C3321     1.0  0.15268  0.74549  0.41273  1.0000
  C   C3322     1.0  0.37701  0.94468  0.25884  1.0000
  C   C3323     1.0  0.28755  0.77763  0.40074  1.0000
  C   C3324     1.0  0.46918  0.87003  0.26454  1.0000
  C   C3325     1.0  0.37478  0.91616  0.27168  1.0000
  C   C3326     1.0  0.38433  0.92206  0.27508  1.0000
  C   C3327     1.0  0.38532  0.93634  0.26878  1.0000
  H   H2652     1.0  0.39080  0.91572  0.28276  1.0000
  H   H2653     1.0  0.39262  0.94081  0.27156  1.0000
  C   C3328     1.0  0.43007  0.82082  0.25666  1.0000
  C   C3329     1.0  0.44347  0.81930  0.25976  1.0000
  C   C3330     1.0  0.44458  0.82699  0.26903  1.0000
  C   C3331     1.0  0.43249  0.83672  0.27478  1.0000
  C   C3332     1.0  0.41903  0.83832  0.27168  1.0000
  C   C3333     1.0  0.41780  0.83020  0.26279  1.0000
  H   H2654     1.0  0.45291  0.81191  0.25528  1.0000
  H   H2655     1.0  0.45486  0.82539  0.27179  1.0000
  H   H2656     1.0  0.40960  0.84567  0.27625  1.0000
  H   H2657     1.0  0.40743  0.83130  0.26045  1.0000
  H   H2658     1.0  0.16439  0.75180  0.45847  1.0000
  C   C3334     1.0  0.36789  0.93857  0.25502  1.0000
  C   C3335     1.0  0.29524  0.84058  0.37833  1.0000
  H   H2659     1.0  0.33288  0.76071  0.43025  1.0000
  H   H2660     1.0  0.03817  0.86581  0.46079  1.0000
  C   C3336     1.0  0.48233  0.95451  0.27732  1.0000
  C   C3337     1.0  0.01964  0.86118  0.45667  1.0000
  H   H2661     1.0  0.32683  0.96993  0.31587  1.0000
  C   C3338     1.0  0.24691  0.83091  0.42096  1.0000
  C   C3339     1.0  0.24787  0.83055  0.43473  1.0000
  C   C3340     1.0  0.25725  0.83780  0.43664  1.0000
  C   C3341     1.0  0.26591  0.84518  0.42482  1.0000
  C   C3342     1.0  0.26502  0.84543  0.41108  1.0000
  C   C3343     1.0  0.25549  0.83837  0.40916  1.0000
  H   H2662     1.0  0.24143  0.82471  0.44390  1.0000
  H   H2663     1.0  0.25794  0.83749  0.44731  1.0000
  H   H2664     1.0  0.27182  0.85085  0.40192  1.0000
  H   H2665     1.0  0.25474  0.83870  0.39851  1.0000
  C   C3344     1.0  0.17485  0.83468  0.46306  1.0000
  C   C3345     1.0  0.18524  0.83990  0.45143  1.0000
  C   C3346     1.0  0.18454  0.85469  0.44692  1.0000
  C   C3347     1.0  0.42728  0.86893  0.43456  1.0000
  H   H2666     1.0  0.29050  0.93806  0.26636  1.0000
  C   C3348     1.0  0.36958  0.86365  0.27308  1.0000
  H   H2667     1.0  0.19384  0.83256  0.44591  1.0000
  H   H2668     1.0  0.19260  0.85871  0.43800  1.0000
  H   H2669     1.0  0.38288  0.90014  0.42869  1.0000
  C   C3349     1.0  0.27578  0.80415  0.45811  1.0000
  H   H2670     1.0  0.19358  0.95934  0.47383  1.0000
  S   S476      1.0  0.42846  0.81054  0.24567  1.0000
  C   C3350     1.0  0.11504  0.74327  0.41004  1.0000
  C   C3351     1.0  0.18598  0.75632  0.45008  1.0000
  C   C3352     1.0  0.33622  0.90128  0.30366  1.0000
  H   H2671     1.0  0.31127  0.95009  0.25668  1.0000
  C   C3353     1.0  0.27112  0.90816  0.47372  1.0000
  H   H2672     1.0  0.43383  0.90630  0.27539  1.0000
  H   H2673     1.0  0.18381  0.76480  0.45566  1.0000
  H   H2674     1.0  0.41924  0.86164  0.35542  1.0000
  C   C3354     1.0  0.09432  0.78231  0.44190  1.0000
  C   C3355     1.0  0.08950  0.79394  0.43139  1.0000
  C   C3356     1.0  0.08705  0.80799  0.43300  1.0000
  C   C3357     1.0  0.08865  0.81048  0.44547  1.0000
  C   C3358     1.0  0.09379  0.79887  0.45587  1.0000
  C   C3359     1.0  0.09678  0.78478  0.45401  1.0000
  H   H2675     1.0  0.08771  0.79209  0.42196  1.0000
  H   H2676     1.0  0.08324  0.81693  0.42487  1.0000
  H   H2677     1.0  0.09553  0.80074  0.46531  1.0000
  H   H2678     1.0  0.10078  0.77586  0.46202  1.0000
  H   H2679     1.0  0.43869  0.92606  0.47784  1.0000
  H   H2680     1.0  0.42166  0.90171  0.36906  1.0000
  H   H2681     1.0  0.35109  0.94237  0.28666  1.0000
  H   H2682     1.0  0.19719  0.86452  0.46669  1.0000
  H   H2683     1.0  0.35052  0.76308  0.40689  1.0000
  H   H2684     1.0  0.34267  0.96166  0.37331  1.0000
  C   C3360     1.0  0.40601  0.88292  0.35117  1.0000
  C   C3361     1.0  0.41168  0.87025  0.36006  1.0000
  C   C3362     1.0  0.40742  0.86865  0.37488  1.0000
  C   C3363     1.0  0.39749  0.87974  0.38082  1.0000
  C   C3364     1.0  0.39169  0.89252  0.37193  1.0000
  C   C3365     1.0  0.39609  0.89397  0.35705  1.0000
  P   P110      1.0  0.37788  0.90647  0.37944  1.0000
  C   C3366     1.0  0.36161  0.90986  0.37284  1.0000
  C   C3367     1.0  0.37292  0.90054  0.39862  1.0000
  C   C3368     1.0  0.36101  0.89406  0.40506  1.0000
  C   C3369     1.0  0.35686  0.89005  0.41994  1.0000
  C   C3370     1.0  0.36472  0.89224  0.42848  1.0000
  C   C3371     1.0  0.37684  0.89829  0.42212  1.0000
  C   C3372     1.0  0.38090  0.90247  0.40727  1.0000
  C   C3373     1.0  0.34979  0.92100  0.37646  1.0000
  C   C3374     1.0  0.33664  0.92281  0.37273  1.0000
  C   C3375     1.0  0.33520  0.91363  0.36521  1.0000
  C   C3376     1.0  0.34691  0.90265  0.36137  1.0000
  C   C3377     1.0  0.36000  0.90061  0.36533  1.0000
  C   C3378     1.0  0.38396  0.92301  0.37556  1.0000
  C   C3379     1.0  0.39608  0.92569  0.36456  1.0000
  C   C3380     1.0  0.40044  0.93860  0.36157  1.0000
  C   C3381     1.0  0.39281  0.94895  0.36953  1.0000
  C   C3382     1.0  0.38088  0.94633  0.38063  1.0000
  C   C3383     1.0  0.37651  0.93341  0.38369  1.0000
  H   H2685     1.0  0.40907  0.88410  0.33969  1.0000
  H   H2686     1.0  0.41181  0.85880  0.38176  1.0000
  H   H2687     1.0  0.39432  0.87823  0.39231  1.0000
  H   H2688     1.0  0.39155  0.90345  0.34992  1.0000
  H   H2689     1.0  0.35468  0.89236  0.39867  1.0000
  H   H2690     1.0  0.39006  0.90749  0.40260  1.0000
  H   H2691     1.0  0.35040  0.92796  0.38270  1.0000
  H   H2692     1.0  0.32738  0.93101  0.37616  1.0000
  H   H2693     1.0  0.32490  0.91474  0.36271  1.0000
  H   H2694     1.0  0.34569  0.89542  0.35571  1.0000
  H   H2695     1.0  0.36856  0.89152  0.36284  1.0000
  H   H2696     1.0  0.40221  0.91800  0.35812  1.0000
  H   H2697     1.0  0.40977  0.94062  0.35302  1.0000
  H   H2698     1.0  0.39614  0.95903  0.36701  1.0000
  H   H2699     1.0  0.37490  0.95439  0.38679  1.0000
  H   H2700     1.0  0.36733  0.93159  0.39245  1.0000
  C   C3384     1.0  0.33272  0.83789  0.33743  1.0000
  C   C3385     1.0  0.33538  0.83347  0.35116  1.0000
  C   C3386     1.0  0.34929  0.82622  0.35320  1.0000
  C   C3387     1.0  0.36064  0.82365  0.34146  1.0000
  C   C3388     1.0  0.35827  0.82884  0.32753  1.0000
  C   C3389     1.0  0.34407  0.83542  0.32566  1.0000
  P   P111      1.0  0.37295  0.82602  0.31223  1.0000
  C   C3390     1.0  0.37245  0.80961  0.30834  1.0000
  C   C3391     1.0  0.37103  0.84066  0.29691  1.0000
  C   C3392     1.0  0.37826  0.83854  0.28314  1.0000
  C   C3393     1.0  0.42197  0.92570  0.24522  1.0000
  C   C3394     1.0  0.33316  0.98796  0.33367  1.0000
  C   C3395     1.0  0.36249  0.86586  0.28674  1.0000
  C   C3396     1.0  0.36329  0.85446  0.29863  1.0000
  C   C3397     1.0  0.38044  0.79643  0.31465  1.0000
  C   C3398     1.0  0.38015  0.78372  0.31152  1.0000
  C   C3399     1.0  0.37173  0.78408  0.30223  1.0000
  C   C3400     1.0  0.36349  0.79713  0.29617  1.0000
  C   C3401     1.0  0.36377  0.80986  0.29928  1.0000
  C   C3402     1.0  0.39061  0.82492  0.31505  1.0000
  C   C3403     1.0  0.40318  0.81825  0.30638  1.0000
  C   C3404     1.0  0.41695  0.81815  0.30779  1.0000
  C   C3405     1.0  0.41830  0.82483  0.31772  1.0000
  C   C3406     1.0  0.40588  0.83160  0.32628  1.0000
  C   C3407     1.0  0.39208  0.83181  0.32485  1.0000
  H   H2701     1.0  0.32192  0.84358  0.33591  1.0000
  H   H2702     1.0  0.32668  0.83591  0.36017  1.0000
  H   H2703     1.0  0.35134  0.82285  0.36385  1.0000
  H   H2704     1.0  0.37129  0.81784  0.34328  1.0000
  H   H2705     1.0  0.34180  0.83891  0.31510  1.0000
  H   H2706     1.0  0.38475  0.82810  0.28156  1.0000
  H   H2707     1.0  0.23266  0.97612  0.40041  1.0000
  C   C3408     1.0  0.06131  0.74720  0.46099  1.0000
  H   H2708     1.0  0.35678  0.87654  0.28814  1.0000
  H   H2709     1.0  0.35826  0.85660  0.30913  1.0000
  H   H2710     1.0  0.38699  0.79598  0.32190  1.0000
  H   H2711     1.0  0.38653  0.77360  0.31622  1.0000
  H   H2712     1.0  0.37161  0.77424  0.29970  1.0000
  H   H2713     1.0  0.35695  0.79740  0.28898  1.0000
  H   H2714     1.0  0.35729  0.81988  0.29452  1.0000
  H   H2715     1.0  0.40242  0.81351  0.29821  1.0000
  H   H2716     1.0  0.42660  0.81342  0.30074  1.0000
  H   H2717     1.0  0.42899  0.82525  0.31834  1.0000
  H   H2718     1.0  0.40692  0.83721  0.33365  1.0000
  H   H2719     1.0  0.38267  0.83791  0.33096  1.0000
  C   C3409     1.0  0.38407  0.96115  0.48066  1.0000
  C   C3410     1.0  0.15814  0.76855  0.40006  1.0000
  H   H2720     1.0  0.23293  0.97184  0.29256  1.0000
  H   H2721     1.0  0.16164  0.77799  0.39987  1.0000
  C   C3411     1.0  0.30592  0.99114  0.47404  1.0000
  C   C3412     1.0  0.28431  0.94466  0.28639  1.0000
  H   H2722     1.0  0.34309  0.78049  0.38561  1.0000
  H   H2723     1.0  0.33428  0.98697  0.27085  1.0000
  C   C3413     1.0  0.05500  0.74803  0.47530  1.0000
  C   C3414     1.0  0.13597  0.79829  0.43336  1.0000
  C   C3415     1.0  0.13002  0.80737  0.42191  1.0000
  C   C3416     1.0  0.12392  0.80191  0.41413  1.0000
  C   C3417     1.0  0.12987  0.77822  0.42893  1.0000
  H   H2724     1.0  0.42833  0.93056  0.28011  1.0000
  C   C3418     1.0  0.16314  0.80422  0.43048  1.0000
  C   C3419     1.0  0.17244  0.79081  0.42939  1.0000
  C   C3420     1.0  0.18594  0.78987  0.41978  1.0000
  C   C3421     1.0  0.19019  0.80232  0.41108  1.0000
  C   C3422     1.0  0.18089  0.81571  0.41191  1.0000
  C   C3423     1.0  0.16734  0.81667  0.42147  1.0000
  C   C3424     1.0  0.24504  0.74803  0.46801  1.0000
  C   C3425     1.0  0.41144  0.93857  0.45302  1.0000
  H   H2725     1.0  0.16870  0.79442  0.45803  1.0000
  C   C3426     1.0  0.46422  0.82838  0.40825  1.0000
  H   H2726     1.0  0.13014  0.81866  0.41897  1.0000
  C   C3427     1.0  0.24855  0.94758  0.32502  1.0000
  H   H2727     1.0  0.27166  0.80559  0.46897  1.0000
  H   H2728     1.0  0.16922  0.78108  0.43598  1.0000
  H   H2729     1.0  0.19321  0.77949  0.41927  1.0000
  H   H2730     1.0  0.20080  0.80159  0.40388  1.0000
  H   H2731     1.0  0.18424  0.82537  0.40525  1.0000
  C   C3428     1.0  0.27500  0.94635  0.43601  1.0000
  C   C3429     1.0  0.28302  0.94496  0.42231  1.0000
  C   C3430     1.0  0.27590  0.94833  0.41115  1.0000
  H   H2732     1.0  0.02082  0.75335  0.39473  1.0000
  C   C3431     1.0  0.25262  0.95446  0.42732  1.0000
  C   C3432     1.0  0.25985  0.95118  0.43850  1.0000
  C   C3433     1.0  0.22596  0.95837  0.41710  1.0000
  C   C3434     1.0  0.21876  0.94714  0.42048  1.0000
  C   C3435     1.0  0.21281  0.94495  0.41033  1.0000
  C   C3436     1.0  0.21390  0.95404  0.39679  1.0000
  C   C3437     1.0  0.22088  0.96535  0.39340  1.0000
  C   C3438     1.0  0.22704  0.96743  0.40343  1.0000
  H   H2733     1.0  0.40977  0.99069  0.42301  1.0000
  H   H2734     1.0  0.29479  0.94145  0.42023  1.0000
  C   C3439     1.0  0.28612  0.80063  0.42983  1.0000
  H   H2735     1.0  0.25382  0.95261  0.44905  1.0000
  H   H2736     1.0  0.20737  0.93618  0.41296  1.0000
  H   H2737     1.0  0.20943  0.95229  0.38886  1.0000
  H   H2738     1.0  0.49106  0.88422  0.41999  1.0000
  C   C3440     1.0  0.09990  0.74580  0.41243  1.0000
  S   S477      1.0  0.39227  0.99106  0.29079  1.0000
  S   S478      1.0  0.05824  0.84417  0.48030  1.0000
  C   C3441     1.0  0.49876  0.84165  0.25241  1.0000
  H   H2739     1.0  0.45389  0.93462  0.27679  1.0000
  P   P112      1.0  0.42379  0.96171  0.43606  1.0000
  C   C3442     1.0  0.42244  0.94600  0.45041  1.0000
  C   C3443     1.0  0.41526  0.96149  0.42234  1.0000
  C   C3444     1.0  0.40004  0.96451  0.42481  1.0000
  C   C3445     1.0  0.39328  0.96427  0.41438  1.0000
  C   C3446     1.0  0.40160  0.96128  0.40131  1.0000
  C   C3447     1.0  0.41673  0.95876  0.39855  1.0000
  C   C3448     1.0  0.42358  0.95873  0.40906  1.0000
  H   H2740     1.0  0.21774  0.93999  0.43087  1.0000
  C   C3449     1.0  0.44277  0.96186  0.42871  1.0000
  C   C3450     1.0  0.27406  0.79231  0.45448  1.0000
  C   C3451     1.0  0.45272  0.94912  0.42622  1.0000
  Fe  Fe241     1.0  0.11062  0.74722  0.45301  1.0000
  C   C3452     1.0  0.21738  0.87236  0.48218  1.0000
  H   H2741     1.0  0.39338  0.96686  0.43489  1.0000
  H   H2742     1.0  0.38156  0.96640  0.41645  1.0000
  H   H2743     1.0  0.39632  0.96105  0.39327  1.0000
  H   H2744     1.0  0.42316  0.95647  0.38837  1.0000
  H   H2745     1.0  0.43533  0.95635  0.40675  1.0000
  C   C3453     1.0  0.46715  0.86294  0.42682  1.0000
  C   C3454     1.0  0.12672  0.96814  0.47458  1.0000
  H   H2746     1.0  0.44907  0.93924  0.42865  1.0000
  C   C3455     1.0  0.39133  0.89577  0.24640  1.0000
  H   H2747     1.0  0.02250  0.84037  0.43378  1.0000
  C   C3456     1.0  0.01541  0.85411  0.44873  1.0000
  H   H2748     1.0  0.33094  0.85449  0.48526  1.0000
  C   C3457     1.0  0.27905  0.93385  0.33931  1.0000
  H   H2749     1.0  0.15449  0.77604  0.37872  1.0000
  P   P113      1.0  0.29315  0.79797  0.41176  1.0000
  H   H2750     1.0  0.45946  0.97960  0.31824  1.0000
  H   H2751     1.0  0.35553  0.90852  0.32298  1.0000
  H   H2752     1.0  0.16018  0.82712  0.42170  1.0000
  C   C3458     1.0  0.26650  0.79319  0.41228  1.0000
  H   H2753     1.0  0.00408  0.85444  0.44980  1.0000
  H   H2754     1.0  0.41921  0.95173  0.26253  1.0000
  H   H2755     1.0  0.35348  0.88872  0.31419  1.0000
  H   H2756     1.0  0.28213  0.94735  0.40051  1.0000
  C   C3459     1.0  0.16356  0.84428  0.46984  1.0000
  H   H2757     1.0  0.43044  0.90309  0.25310  1.0000
  H   H2758     1.0  0.15420  0.86632  0.47069  1.0000
  H   H2759     1.0  0.25397  0.75331  0.46269  1.0000
  C   C3460     1.0  0.49801  0.98747  0.30983  1.0000
  C   C3461     1.0  0.31135  0.78697  0.41027  1.0000
  C   C3462     1.0  0.32924  0.97964  0.29371  1.0000
  C   C3463     1.0  0.16224  0.96439  0.48252  1.0000
  C   C3464     1.0  0.40177  0.87265  0.44671  1.0000
  H   H2760     1.0  0.42300  0.86939  0.46947  1.0000
  C   C3465     1.0  0.41443  0.97748  0.44317  1.0000
  C   C3466     1.0  0.41028  0.92679  0.46451  1.0000
  C   C3467     1.0  0.27843  0.96697  0.31872  1.0000
  H   H2761     1.0  0.12392  0.79210  0.46532  1.0000
  H   H2762     1.0  0.28293  0.76215  0.39231  1.0000
  P   P114      1.0  0.44123  0.86661  0.41864  1.0000
  H   H2763     1.0  0.49688  0.92984  0.31726  1.0000
  H   H2764     1.0  0.39043  0.87484  0.44638  1.0000
  C   C3468     1.0  0.28393  0.82034  0.38973  1.0000
  C   C3469     1.0  0.43008  0.91555  0.26751  1.0000
  C   C3470     1.0  0.40552  0.87206  0.45934  1.0000
  H   H2765     1.0  0.24218  0.74494  0.44859  1.0000
  C   C3471     1.0  0.46679  0.88453  0.26489  1.0000
  H   H2766     1.0  0.16054  0.75836  0.42160  1.0000
  C   C3472     1.0  0.25388  0.95575  0.48226  1.0000
  C   C3473     1.0  0.46960  0.93512  0.28772  1.0000
  H   H2767     1.0  0.48880  0.94838  0.24223  1.0000
  H   H2768     1.0  0.27542  0.93917  0.29055  1.0000
  C   C3474     1.0  0.26136  0.91642  0.42857  1.0000
  C   C3475     1.0  0.40562  0.98949  0.46301  1.0000
  H   H2769     1.0  0.44073  0.94701  0.45779  1.0000
  S   S479      1.0  0.24197  0.78047  0.48290  1.0000
  C   C3476     1.0  0.15921  0.79047  0.46463  1.0000
  P   P115      1.0  0.14537  0.80501  0.44223  1.0000
  C   C3477     1.0  0.02588  0.84618  0.43947  1.0000
  C   C3478     1.0  0.45945  0.86709  0.24063  1.0000
  C   C3479     1.0  0.29178  0.92346  0.31882  1.0000
  Fe  Fe242     1.0  0.15565  0.92371  0.47386  1.0000
  H   H2770     1.0  0.22675  0.94465  0.33459  1.0000
  H   H2771     1.0  0.29113  0.90619  0.47947  1.0000
  C   C3480     1.0  0.04497  0.85211  0.44599  1.0000
  H   H2772     1.0  0.45678  0.85678  0.29994  1.0000
  C   C3481     1.0  0.27729  0.98386  0.43653  1.0000
  C   C3482     1.0  0.48162  0.88084  0.41973  1.0000
  C   C3483     1.0  0.12274  0.85000  0.45084  1.0000
  H   H2773     1.0  0.43422  0.81703  0.42994  1.0000
  C   C3484     1.0  0.15749  0.75753  0.41230  1.0000
  C   C3485     1.0  0.47023  0.98171  0.31579  1.0000
  H   H2774     1.0  0.40945  0.87150  0.42469  1.0000
  C   C3486     1.0  0.42012  0.86962  0.45972  1.0000
  H   H2775     1.0  0.45867  0.95565  0.25762  1.0000
  S   S480      1.0  0.34267  0.96192  0.48107  1.0000
  C   C3487     1.0  0.16435  0.95000  0.48222  1.0000
  C   C3488     1.0  0.27837  0.77083  0.39787  1.0000
  H   H2776     1.0  0.29267  0.82070  0.42570  1.0000
  H   H2777     1.0  0.04402  0.82153  0.47731  1.0000
  H   H2778     1.0  0.42232  0.89515  0.41313  1.0000
  H   H2779     1.0  0.43701  0.87756  0.36839  1.0000
  H   H2780     1.0  0.38991  0.88700  0.25560  1.0000
  C   C3489     1.0  0.45700  0.87228  0.41903  1.0000
  C   C3490     1.0  0.43724  0.83861  0.42512  1.0000
  C   C3491     1.0  0.41259  0.87096  0.43439  1.0000
  C   C3492     1.0  0.46007  0.84276  0.40920  1.0000
  C   C3493     1.0  0.26708  0.97926  0.31931  1.0000
  H   H2781     1.0  0.02714  0.77258  0.46094  1.0000
  H   H2782     1.0  0.05645  0.85109  0.44513  1.0000
  C   C3494     1.0  0.29375  0.81479  0.39880  1.0000
  C   C3495     1.0  0.20246  0.74160  0.43413  1.0000
  C   C3496     1.0  0.29319  0.97856  0.32567  1.0000
  H   H2783     1.0  0.15577  0.82687  0.44841  1.0000
  P   P116      1.0  0.04680  0.76522  0.48006  1.0000
  C   C3497     1.0  0.23383  0.94967  0.32524  1.0000
  C   C3498     1.0  0.42476  0.89482  0.37872  1.0000
  H   H2784     1.0  0.41410  0.91048  0.39154  1.0000
  C   C3499     1.0  0.13604  0.78361  0.43670  1.0000
  P   P117      1.0  0.47530  0.86466  0.24766  1.0000
  C   C3500     1.0  0.29139  0.96661  0.32223  1.0000
  C   C3501     1.0  0.46487  0.95189  0.26587  1.0000
  H   H2785     1.0  0.48990  0.96018  0.27799  1.0000
  H   H2786     1.0  0.47863  0.96224  0.32979  1.0000
  C   C3502     1.0  0.32847  0.81650  0.48491  1.0000
  C   C3503     1.0  0.42055  0.89971  0.39136  1.0000
  H   H2787     1.0  0.11974  0.75018  0.41318  1.0000
  H   H2788     1.0  0.45814  0.80797  0.41497  1.0000
  C   C3504     1.0  0.33992  0.88593  0.47600  1.0000
  C   C3505     1.0  0.44541  0.87193  0.24853  1.0000
  H   H2789     1.0  0.48791  0.91430  0.24156  1.0000
  P   P118      1.0  0.27676  0.95211  0.31278  1.0000
  P   P119      1.0  0.00618  0.87262  0.46756  1.0000
  H   H2790     1.0  0.13206  0.85624  0.48214  1.0000
  C   C3506     1.0  0.33537  0.97786  0.27977  1.0000
  C   C3507     1.0  0.01380  0.88748  0.48329  1.0000
  H   H2791     1.0  0.38022  0.98204  0.33441  1.0000
  C   C3508     1.0  0.43311  0.87222  0.24399  1.0000
  C   C3509     1.0  0.43351  0.88116  0.37832  1.0000
  C   C3510     1.0  0.30459  0.95067  0.26726  1.0000
  H   H2792     1.0  0.42239  0.87536  0.25048  1.0000
  H   H2793     1.0  0.44377  0.87486  0.25856  1.0000
  H   H2794     1.0  0.20746  0.98444  0.42589  1.0000
  H   H2795     1.0  0.49715  0.87548  0.25371  1.0000
  S   S481      1.0  0.17279  0.90360  0.47708  1.0000
  H   H2796     1.0  0.48557  0.93919  0.38149  1.0000
  H   H2797     1.0  0.48371  0.96174  0.41223  1.0000
  Fe  Fe243     1.0  0.16092  0.89489  0.46644  1.0000
  H   H2798     1.0  0.44550  0.86214  0.38963  1.0000
  H   H2799     1.0  0.46670  0.84895  0.27719  1.0000
  C   C3511     1.0  0.34587  0.83015  0.42914  1.0000
  C   C3512     1.0  0.33899  0.83388  0.41773  1.0000
  C   C3513     1.0  0.32399  0.83521  0.42041  1.0000
  C   C3514     1.0  0.31582  0.83311  0.43442  1.0000
  C   C3515     1.0  0.32259  0.82955  0.44593  1.0000
  C   C3516     1.0  0.33773  0.82786  0.44321  1.0000
  P   P120      1.0  0.31193  0.82637  0.46398  1.0000
  C   C3517     1.0  0.29515  0.83997  0.46498  1.0000
  C   C3518     1.0  0.30848  0.80849  0.46913  1.0000
  H   H2800     1.0  0.29509  0.92417  0.30746  1.0000
  C   C3519     1.0  0.32968  0.76843  0.42100  1.0000
  H   H2801     1.0  0.04879  0.83856  0.43138  1.0000
  H   H2802     1.0  0.40265  0.96643  0.33486  1.0000
  C   C3520     1.0  0.31230  0.79992  0.45907  1.0000
  C   C3521     1.0  0.29509  0.85407  0.45699  1.0000
  C   C3522     1.0  0.28241  0.86484  0.45853  1.0000
  C   C3523     1.0  0.26976  0.86167  0.46820  1.0000
  C   C3524     1.0  0.49507  0.94374  0.37822  1.0000
  C   C3525     1.0  0.28216  0.83683  0.47413  1.0000
  C   C3526     1.0  0.49935  0.81703  0.25303  1.0000
  C   C3527     1.0  0.23733  0.96497  0.30157  1.0000
  C   C3528     1.0  0.46030  0.98564  0.24882  1.0000
  C   C3529     1.0  0.29170  0.90885  0.34267  1.0000
  H   H2803     1.0  0.30314  0.97833  0.32844  1.0000
  H   H2804     1.0  0.47463  0.82445  0.40163  1.0000
  H   H2805     1.0  0.35750  0.82910  0.42705  1.0000
  H   H2806     1.0  0.34524  0.83584  0.40682  1.0000
  H   H2807     1.0  0.31860  0.83809  0.41163  1.0000
  H   H2808     1.0  0.30418  0.83441  0.43627  1.0000
  H   H2809     1.0  0.34326  0.82486  0.45190  1.0000
  C   C3530     1.0  0.49805  0.87835  0.24228  1.0000
  H   H2810     1.0  0.27771  0.78126  0.43787  1.0000
  C   C3531     1.0  0.30437  0.82230  0.39746  1.0000
  H   H2811     1.0  0.03451  0.82003  0.45772  1.0000
  H   H2812     1.0  0.31729  0.80382  0.44804  1.0000
  H   H2813     1.0  0.30478  0.85678  0.44947  1.0000
  H   H2814     1.0  0.00846  0.77330  0.40720  1.0000
  C   C3532     1.0  0.26907  0.97992  0.45035  1.0000
  S   S482      1.0  0.09248  0.83257  0.48247  1.0000
  H   H2815     1.0  0.27247  0.91761  0.46529  1.0000
  H   H2816     1.0  0.31171  0.99071  0.39043  1.0000
  H   H2817     1.0  0.25991  0.84517  0.48357  1.0000
  H   H2818     1.0  0.45960  0.89999  0.27822  1.0000
  H   H2819     1.0  0.31808  0.85162  0.46876  1.0000
  C   C3533     1.0  0.03287  0.82073  0.47931  1.0000
  H   H2820     1.0  0.28153  0.82611  0.48007  1.0000
  C   C3534     1.0  0.12351  0.95841  0.46891  1.0000
  S   S483      1.0  0.26360  0.99025  0.38939  1.0000
  H   H2821     1.0  0.30190  0.96484  0.29518  1.0000
  S   S484      1.0  0.24805  0.98098  0.36163  1.0000
  C   C3535     1.0  0.28473  0.83315  0.37952  1.0000
  C   C3536     1.0  0.43113  0.92950  0.47087  1.0000
  C   C3537     1.0  0.22822  0.95833  0.31352  1.0000
  H   H2822     1.0  0.29917  0.77410  0.39725  1.0000
  C   C3538     1.0  0.18448  0.91492  0.43438  1.0000
  C   C3539     1.0  0.18219  0.92597  0.44131  1.0000
  C   C3540     1.0  0.19285  0.92655  0.44771  1.0000
  C   C3541     1.0  0.20579  0.91607  0.44716  1.0000
  C   C3542     1.0  0.20823  0.90497  0.44015  1.0000
  C   C3543     1.0  0.19745  0.90446  0.43377  1.0000
  P   P121      1.0  0.22513  0.89166  0.43948  1.0000
  C   C3544     1.0  0.23938  0.90126  0.43528  1.0000
  C   C3545     1.0  0.22538  0.87888  0.45636  1.0000
  C   C3546     1.0  0.21672  0.88239  0.46924  1.0000
  H   H2823     1.0  0.25995  0.86994  0.46959  1.0000
  H   H2824     1.0  0.21678  0.96000  0.31376  1.0000
  C   C3547     1.0  0.23499  0.85515  0.46956  1.0000
  C   C3548     1.0  0.23466  0.86525  0.45666  1.0000
  C   C3549     1.0  0.24991  0.89712  0.44351  1.0000
  C   C3550     1.0  0.26084  0.90471  0.44016  1.0000
  C   C3551     1.0  0.47970  0.94240  0.28802  1.0000
  C   C3552     1.0  0.25089  0.92064  0.42037  1.0000
  C   C3553     1.0  0.23988  0.91317  0.42378  1.0000
  C   C3554     1.0  0.22755  0.88194  0.42590  1.0000
  C   C3555     1.0  0.23692  0.88497  0.41246  1.0000
  C   C3556     1.0  0.23830  0.87756  0.40204  1.0000
  C   C3557     1.0  0.23053  0.86693  0.40499  1.0000
  C   C3558     1.0  0.22149  0.86358  0.41843  1.0000
  C   C3559     1.0  0.21991  0.87111  0.42882  1.0000
  H   H2825     1.0  0.17602  0.91416  0.42984  1.0000
  H   H2826     1.0  0.17201  0.93390  0.44199  1.0000
  H   H2827     1.0  0.19090  0.93499  0.45331  1.0000
  H   H2828     1.0  0.21389  0.91654  0.45226  1.0000
  H   H2829     1.0  0.19878  0.89591  0.42854  1.0000
  H   H2830     1.0  0.20927  0.89269  0.46939  1.0000
  P   P122      1.0  0.24882  0.98566  0.47530  1.0000
  H   H2831     1.0  0.30670  0.98255  0.45625  1.0000
  H   H2832     1.0  0.24180  0.84450  0.46959  1.0000
  H   H2833     1.0  0.24156  0.86238  0.44688  1.0000
  H   H2834     1.0  0.24989  0.88786  0.45226  1.0000
  C   C3560     1.0  0.32134  0.78811  0.39703  1.0000
  H   H2835     1.0  0.25159  0.92934  0.41098  1.0000
  H   H2836     1.0  0.23208  0.91635  0.41706  1.0000
  H   H2837     1.0  0.24328  0.89294  0.40989  1.0000
  H   H2838     1.0  0.24553  0.88000  0.39170  1.0000
  H   H2839     1.0  0.23176  0.86101  0.39701  1.0000
  H   H2840     1.0  0.21584  0.85500  0.42081  1.0000
  H   H2841     1.0  0.21268  0.86851  0.43912  1.0000
  H   H2842     1.0  0.36129  0.88950  0.43999  1.0000
  C   C3561     1.0  0.25736  0.78651  0.40925  1.0000
  C   C3562     1.0  0.14961  0.75520  0.38847  1.0000
  H   H2843     1.0  0.25613  0.77005  0.39992  1.0000
  S   S485      1.0  0.28607  0.98591  0.35875  1.0000
  H   H2844     1.0  0.11444  0.93992  0.47359  1.0000
  C   C3563     1.0  0.04525  0.77882  0.46396  1.0000
  C   C3564     1.0  0.05446  0.78851  0.45849  1.0000
  C   C3565     1.0  0.05283  0.79903  0.44607  1.0000
  C   C3566     1.0  0.04213  0.79993  0.43900  1.0000
  C   C3567     1.0  0.03301  0.79027  0.44434  1.0000
  C   C3568     1.0  0.03454  0.77977  0.45678  1.0000
  H   H2845     1.0  0.27022  0.96866  0.45538  1.0000
  C   C3569     1.0  0.42017  0.92218  0.47335  1.0000
  Fe  Fe244     1.0  0.28763  0.98602  0.38046  1.0000
  C   C3570     1.0  0.32170  0.82849  0.47583  1.0000
  C   C3571     1.0  0.45794  0.87882  0.29053  1.0000
  H   H2846     1.0  0.47322  0.90081  0.40627  1.0000
  S   S486      1.0  0.12651  0.74931  0.46418  1.0000
  C   C3572     1.0  0.30258  0.78098  0.47717  1.0000
  C   C3573     1.0  0.44773  0.97458  0.42522  1.0000
  H   H2847     1.0  0.11739  0.86052  0.45299  1.0000
  S   S487      1.0  0.14521  0.91588  0.46116  1.0000
  S   S488      1.0  0.42702  0.96055  0.28624  1.0000
  C   C3574     1.0  0.48445  0.84590  0.25042  1.0000
  C   C3575     1.0  0.40171  0.90357  0.24465  1.0000
  H   H2848     1.0  0.06271  0.78822  0.46386  1.0000
  H   H2849     1.0  0.05939  0.80696  0.44231  1.0000
  H   H2850     1.0  0.04055  0.80845  0.42971  1.0000
  H   H2851     1.0  0.02433  0.79135  0.43919  1.0000
  C   C3576     1.0  0.46563  0.86005  0.27728  1.0000
  C   C3577     1.0  0.37207  0.97767  0.34303  1.0000
  H   H2852     1.0  0.32825  0.80574  0.48482  1.0000
  H   H2853     1.0  0.46733  0.84986  0.40319  1.0000
  H   H2854     1.0  0.44028  0.98456  0.42695  1.0000
  H   H2855     1.0  0.24580  0.95687  0.47635  1.0000
  H   H2856     1.0  0.36156  0.94489  0.24723  1.0000
  C   C3578     1.0  0.42780  0.91379  0.25501  1.0000
  H   H2857     1.0  0.20738  0.83847  0.46952  1.0000
  C   C3579     1.0  0.22644  0.85873  0.48235  1.0000
  H   H2858     1.0  0.45177  0.89347  0.40551  1.0000
  C   C3580     1.0  0.32853  0.92624  0.30504  1.0000
  C   C3581     1.0  0.42175  0.94116  0.26029  1.0000
  C   C3582     1.0  0.13754  0.84469  0.45065  1.0000
  H   H2859     1.0  0.46889  0.89250  0.25512  1.0000
  C   C3583     1.0  0.46741  0.94909  0.42030  1.0000
  H   H2860     1.0  0.39708  0.87392  0.46872  1.0000
  C   C3584     1.0  0.47230  0.96177  0.41687  1.0000
  C   C3585     1.0  0.29617  0.91033  0.32791  1.0000
  H   H2861     1.0  0.12954  0.76698  0.43180  1.0000
  C   C3586     1.0  0.30626  0.94033  0.35188  1.0000
  C   C3587     1.0  0.30808  0.95016  0.35839  1.0000
  C   C3588     1.0  0.32012  0.95636  0.35285  1.0000
  C   C3589     1.0  0.33029  0.95281  0.34071  1.0000
  C   C3590     1.0  0.32850  0.94305  0.33397  1.0000
  C   C3591     1.0  0.31639  0.93677  0.33968  1.0000
  P   P123      1.0  0.34148  0.93926  0.31784  1.0000
  C   C3592     1.0  0.33918  0.95446  0.30296  1.0000
  C   C3593     1.0  0.35991  0.93493  0.32030  1.0000
  C   C3594     1.0  0.37173  0.93378  0.30858  1.0000
  C   C3595     1.0  0.38600  0.93030  0.31041  1.0000
  C   C3596     1.0  0.38859  0.92817  0.32392  1.0000
  C   C3597     1.0  0.37691  0.92902  0.33568  1.0000
  C   C3598     1.0  0.36268  0.93202  0.33396  1.0000
  H   H2862     1.0  0.37434  0.89357  0.23811  1.0000
  C   C3599     1.0  0.33122  0.96805  0.30525  1.0000
  H   H2863     1.0  0.29701  0.93544  0.35650  1.0000
  H   H2864     1.0  0.30021  0.95289  0.36782  1.0000
  H   H2865     1.0  0.32150  0.96394  0.35802  1.0000
  H   H2866     1.0  0.33962  0.95768  0.33645  1.0000
  H   H2867     1.0  0.31473  0.92912  0.33481  1.0000
  H   H2868     1.0  0.37001  0.93559  0.29800  1.0000
  H   H2869     1.0  0.39508  0.92946  0.30129  1.0000
  H   H2870     1.0  0.39968  0.92581  0.32520  1.0000
  H   H2871     1.0  0.37884  0.92745  0.34615  1.0000
  H   H2872     1.0  0.35393  0.93206  0.34332  1.0000
  H   H2873     1.0  0.37276  0.95925  0.46619  1.0000
  C   C3600     1.0  0.31639  0.96762  0.39544  1.0000
  C   C3601     1.0  0.43949  0.95897  0.30800  1.0000
  H   H2874     1.0  0.30865  0.94131  0.48245  1.0000
  C   C3602     1.0  0.25731  0.96791  0.48378  1.0000
  C   C3603     1.0  0.14645  0.79372  0.45962  1.0000
  H   H2875     1.0  0.27548  0.81499  0.39057  1.0000
  C   C3604     1.0  0.36661  0.92441  0.26158  1.0000
  H   H2876     1.0  0.40377  0.94167  0.44623  1.0000
  H   H2877     1.0  0.13266  0.97604  0.46754  1.0000
  H   H2878     1.0  0.36921  0.87262  0.26396  1.0000
  C   C3605     1.0  0.36034  0.95787  0.35540  1.0000
  C   C3606     1.0  0.34749  0.91044  0.31678  1.0000
  C   C3607     1.0  0.45492  0.81910  0.41575  1.0000
  C   C3608     1.0  0.04066  0.84510  0.43817  1.0000
  C   C3609     1.0  0.28318  0.93535  0.32444  1.0000
  H   H2879     1.0  0.27020  0.96042  0.37595  1.0000
  C   C3610     1.0  0.22950  0.93861  0.45359  1.0000
  C   C3611     1.0  0.14903  0.74401  0.40072  1.0000
  H   H2880     1.0  0.20298  0.93378  0.48387  1.0000
  H   H2881     1.0  0.27695  0.83750  0.37274  1.0000
  C   C3612     1.0  0.34503  0.95272  0.28885  1.0000
  S   S489      1.0  0.38639  0.96186  0.28702  1.0000
  S   S490      1.0  0.37768  0.96278  0.25113  1.0000
  S   S491      1.0  0.30160  0.96594  0.39026  1.0000
  H   H2882     1.0  0.46254  0.92844  0.24698  1.0000
  H   H2883     1.0  0.39457  0.95923  0.47349  1.0000
  H   H2884     1.0  0.44976  0.95720  0.30045  1.0000
  H   H2885     1.0  0.25570  0.95616  0.40460  1.0000
  C   C3613     1.0  0.12391  0.78732  0.41760  1.0000
  C   C3614     1.0  0.28306  0.92057  0.34834  1.0000
  C   C3615     1.0  0.23057  0.98589  0.47458  1.0000
  C   C3616     1.0  0.50151  0.94758  0.36373  1.0000
  H   H2886     1.0  0.35936  0.91982  0.25878  1.0000
  H   H2887     1.0  0.25888  0.96844  0.29211  1.0000
  H   H2888     1.0  0.31195  0.77984  0.45522  1.0000
  C   C3617     1.0  0.25954  0.99047  0.45746  1.0000
  H   H2889     1.0  0.35041  0.88792  0.46973  1.0000
  H   H2890     1.0  0.02303  0.88893  0.44225  1.0000
  C   C3618     1.0  0.31897  0.98098  0.39450  1.0000
  C   C3619     1.0  0.46246  0.97450  0.41934  1.0000
  C   C3620     1.0  0.37169  0.96091  0.47659  1.0000
  C   C3621     1.0  0.20196  0.98684  0.47387  1.0000
  C   C3622     1.0  0.47160  0.89017  0.41196  1.0000
  C   C3623     1.0  0.49488  0.97476  0.31928  1.0000
  S   S492      1.0  0.40292  0.98256  0.25917  1.0000
  H   H2891     1.0  0.23917  0.93250  0.44779  1.0000
  C   C3624     1.0  0.17361  0.86425  0.45419  1.0000
  H   H2892     1.0  0.32170  0.93674  0.30215  1.0000
  C   C3625     1.0  0.20036  0.84264  0.47859  1.0000
  C   C3626     1.0  0.35092  0.96609  0.36490  1.0000
  S   S493      1.0  0.17389  0.88254  0.44951  1.0000
  P   P124      1.0  0.23322  0.96167  0.43028  1.0000
  C   C3627     1.0  0.30932  0.78624  0.46309  1.0000
  H   H2893     1.0  0.24566  0.79011  0.41244  1.0000
  C   C3628     1.0  0.50128  0.94533  0.38853  1.0000
  C   C3629     1.0  0.43434  0.87737  0.40314  1.0000
  C   C3630     1.0  0.27923  0.79051  0.44043  1.0000
  H   H2894     1.0  0.15541  0.84027  0.47863  1.0000
  C   C3631     1.0  0.02748  0.81986  0.46815  1.0000
  C   C3632     1.0  0.43227  0.94135  0.45945  1.0000
  C   C3633     1.0  0.34625  0.89909  0.31195  1.0000
  H   H2895     1.0  0.31823  0.79552  0.38759  1.0000
  H   H2896     1.0  0.27954  0.91934  0.35979  1.0000
  C   C3634     1.0  0.14438  0.83100  0.44811  1.0000
  C   C3635     1.0  0.44778  0.98589  0.25990  1.0000
  H   H2897     1.0  0.29996  0.77052  0.48024  1.0000
  C   C3636     1.0  0.33543  0.77955  0.39585  1.0000
  H   H2898     1.0  0.26851  0.78462  0.46254  1.0000
  C   C3637     1.0  0.32287  0.84221  0.47585  1.0000
  C   C3638     1.0  0.16296  0.85903  0.46544  1.0000
  C   C3639     1.0  0.32739  0.91486  0.30017  1.0000
  H   H2899     1.0  0.46708  0.92613  0.29636  1.0000
  Fe  Fe245     1.0  0.40520  0.97213  0.28159  1.0000
  Fe  Fe246     1.0  0.38289  0.97377  0.26532  1.0000
  H   H2900     1.0  0.20662  0.97162  0.45090  1.0000
  C   C3640     1.0  0.26082  0.95326  0.41356  1.0000
  H   H2901     1.0  0.11888  0.78310  0.41183  1.0000
  C   C3641     1.0  0.37746  0.84999  0.27127  1.0000
  Fe  Fe247     1.0  0.37298  0.98188  0.29405  1.0000
  C   C3642     1.0  0.13407  0.78920  0.46877  1.0000
  H   H2902     1.0  0.14092  0.77628  0.44521  1.0000
  H   H2903     1.0  0.32329  0.99012  0.29563  1.0000
  C   C3643     1.0  0.22421  0.95316  0.44780  1.0000
  C   C3644     1.0  0.22192  0.93169  0.46660  1.0000
  C   C3645     1.0  0.01404  0.87403  0.48126  1.0000
  C   C3646     1.0  0.17498  0.74898  0.45164  1.0000
  C   C3647     1.0  0.32941  0.88575  0.46918  1.0000
  C   C3648     1.0  0.29289  0.94392  0.27272  1.0000
  H   H2904     1.0  0.46556  0.85236  0.43269  1.0000
  H   H2905     1.0  0.30021  0.95725  0.32196  1.0000
  H   H2906     1.0  0.33735  0.97920  0.34164  1.0000
  H   H2907     1.0  0.27245  0.94286  0.34395  1.0000
  C   C3649     1.0  0.33961  0.76974  0.40783  1.0000
  C   C3650     1.0  0.19975  0.75266  0.44117  1.0000
  C   C3651     1.0  0.28269  0.81419  0.44769  1.0000
  H   H2908     1.0  0.40181  0.92109  0.46637  1.0000
  H   H2909     1.0  0.29490  0.89860  0.34971  1.0000
  H   H2910     1.0  0.33552  0.89252  0.29972  1.0000
  C   C3652     1.0  0.30505  0.83517  0.38730  1.0000
  C   C3653     1.0  0.34320  0.96440  0.27735  1.0000
  C   C3654     1.0  0.44145  0.82422  0.42417  1.0000
  H   H2911     1.0  0.14369  0.85114  0.45254  1.0000
  H   H2912     1.0  0.35937  0.94708  0.35649  1.0000
  H   H2913     1.0  0.25059  0.90763  0.47042  1.0000
  C   C3655     1.0  0.42698  0.92922  0.27020  1.0000
  H   H2914     1.0  0.25679  0.97982  0.31709  1.0000
  C   C3656     1.0  0.43835  0.87246  0.39044  1.0000
  S   S494      1.0  0.16038  0.94570  0.46811  1.0000
  H   H2915     1.0  0.09313  0.75463  0.41724  1.0000
  C   C3657     1.0  0.30769  0.95820  0.27546  1.0000
  C   C3658     1.0  0.46143  0.88884  0.27789  1.0000
  C   C3659     1.0  0.01308  0.81892  0.47037  1.0000
  C   C3660     1.0  0.46222  0.93985  0.27663  1.0000
  H   H2916     1.0  0.11518  0.82153  0.44443  1.0000
  H   H2917     1.0  0.33175  0.88762  0.45763  1.0000
  C   C3661     1.0  0.45934  0.88595  0.41159  1.0000
  C   C3662     1.0  0.22966  0.98092  0.42786  1.0000
  C   C3663     1.0  0.45996  0.86446  0.29022  1.0000
  H   H2918     1.0  0.30291  0.90120  0.32357  1.0000
  H   H2919     1.0  0.07840  0.75923  0.47519  1.0000
  H   H2920     1.0  0.38321  0.84833  0.26069  1.0000
  H   H2921     1.0  0.10325  0.84561  0.44886  1.0000
  C   C3664     1.0  0.37094  0.96364  0.34448  1.0000
  H   H2922     1.0  0.37809  0.95744  0.33687  1.0000
  C   C3665     1.0  0.21121  0.96057  0.45523  1.0000
  C   C3666     1.0  0.24078  0.98769  0.42674  1.0000
  C   C3667     1.0  0.25883  0.90255  0.47659  1.0000
  H   H2923     1.0  0.22174  0.97244  0.38289  1.0000
  C   C3668     1.0  0.00396  0.81889  0.48396  1.0000
  C   C3669     1.0  0.49022  0.97067  0.23658  1.0000
  H   H2924     1.0  0.47987  0.81323  0.25046  1.0000
  H   H2925     1.0  0.47494  0.93923  0.41824  1.0000
  H   H2926     1.0  0.28460  0.97575  0.43097  1.0000
  C   C3670     1.0  0.35207  0.98010  0.36350  1.0000
  C   C3671     1.0  0.11479  0.84163  0.44847  1.0000
  H   H2927     1.0  0.12685  0.95885  0.45754  1.0000
  C   C3672     1.0  0.15411  0.76743  0.38817  1.0000
  H   H2928     1.0  0.40805  0.90064  0.25264  1.0000
  C   C3673     1.0  0.31558  0.77698  0.42222  1.0000
  C   C3674     1.0  0.19460  0.85734  0.47696  1.0000
  S   S495      1.0  0.35762  0.97791  0.31538  1.0000
  C   C3675     1.0  0.30204  0.80292  0.48335  1.0000
  H   H2929     1.0  0.41765  0.96781  0.46472  1.0000
  C   C3676     1.0  0.15975  0.78231  0.47840  1.0000
  H   H2930     1.0  0.28240  0.87557  0.45209  1.0000
  H   H2931     1.0  0.34802  0.96306  0.26653  1.0000
  H   H2932     1.0  0.28066  0.94389  0.44455  1.0000
  C   C3677     1.0  0.00374  0.76408  0.40956  1.0000
  C   C3678     1.0  0.48539  0.98623  0.25876  1.0000
  S   S496      1.0  0.09732  0.76489  0.43937  1.0000
  C   C3679     1.0  0.20903  0.93919  0.47392  1.0000
  H   H2933     1.0  0.40318  0.96470  0.31047  1.0000
  C   C3680     1.0  0.28782  0.81249  0.43360  1.0000
  C   C3681     1.0  0.28203  0.99087  0.32577  1.0000
  C   C3682     1.0  0.47480  0.95943  0.26623  1.0000
  H   H2934     1.0  0.15793  0.97274  0.47422  1.0000
  C   C3683     1.0  0.13465  0.78100  0.48255  1.0000
  H   H2935     1.0  0.01686  0.91299  0.42711  1.0000
  H   H2936     1.0  0.30800  0.77568  0.43246  1.0000
  C   C3684     1.0  0.28734  0.95222  0.29471  1.0000
  H   H2937     1.0  0.11455  0.88297  0.48206  1.0000
  H   H2938     1.0  0.31209  0.81820  0.40428  1.0000
  C   C3685     1.0  0.43098  0.86807  0.44738  1.0000
  C   C3686     1.0  0.47761  0.83545  0.25005  1.0000
  H   H2939     1.0  0.25154  0.98157  0.42790  1.0000
  S   S497      1.0  0.49484  0.94458  0.35066  1.0000
  C   C3687     1.0  0.26328  0.77527  0.40213  1.0000
  H   H2940     1.0  0.44217  0.86651  0.44786  1.0000
  C   C3688     1.0  0.03453  0.86026  0.45505  1.0000
  H   H2941     1.0  0.30779  0.88339  0.47172  1.0000
  C   C3689     1.0  0.25205  0.96294  0.30132  1.0000
  C   C3690     1.0  0.47940  0.86721  0.42716  1.0000
  C   C3691     1.0  0.28164  0.78885  0.40803  1.0000
  H   H2942     1.0  0.31313  0.84107  0.38634  1.0000
  H   H2943     1.0  0.48718  0.85998  0.43319  1.0000
  C   C3692     1.0  0.13656  0.82273  0.44526  1.0000
  C   C3693     1.0  0.12163  0.82800  0.44582  1.0000
  H   H2944     1.0  0.41452  0.94894  0.24080  1.0000
  C   C3694     1.0  0.20372  0.95362  0.46825  1.0000
  H   H2945     1.0  0.48513  0.93891  0.29682  1.0000
  C   C3695     1.0  0.25783  0.95413  0.31301  1.0000
  C   C3696     1.0  0.42531  0.89104  0.40354  1.0000
  H   H2946     1.0  0.44835  0.98008  0.27074  1.0000
  H   H2947     1.0  0.31675  0.96346  0.27120  1.0000
  H   H2948     1.0  0.22573  0.92038  0.47084  1.0000
  H   H2949     1.0  0.42674  0.84236  0.43164  1.0000
  C   C3697     1.0  0.29915  0.95897  0.28913  1.0000
  C   C3698     1.0  0.26967  0.84768  0.47600  1.0000
  C   C3699     1.0  0.11660  0.94767  0.47798  1.0000
  H   H2950     1.0  0.34479  0.98629  0.37101  1.0000
  C   C3700     1.0  0.41315  0.97734  0.45754  1.0000
  C   C3701     1.0  0.21606  0.98939  0.42558  1.0000
  H   H2951     1.0  0.31109  0.98092  0.47983  1.0000
  C   C3702     1.0  0.36259  0.98601  0.35249  1.0000
  H   H2952     1.0  0.19081  0.98752  0.47373  1.0000
  H   H2953     1.0  0.23649  0.81174  0.48019  1.0000
  S   S498      1.0  0.00681  0.81779  0.45601  1.0000
  C   C3703     1.0  0.28180  0.90152  0.48168  1.0000
  C   C3704     1.0  0.00867  0.90905  0.43603  1.0000
  C   C3705     1.0  0.01211  0.89537  0.44463  1.0000
  C   C3706     1.0  0.26890  0.99112  0.32286  1.0000
  H   H2954     1.0  0.49667  0.94186  0.39973  1.0000
  H   H2955     1.0  0.41931  0.91296  0.48215  1.0000
  C   C3707     1.0  0.34137  0.99037  0.31967  1.0000
  Fe  Fe248     1.0  0.13118  0.90763  0.48224  1.0000
  H   H2956     1.0  0.46628  0.98432  0.41660  1.0000
  C   C3708     1.0  0.50050  0.98326  0.25741  1.0000
  C   C3709     1.0  0.23839  0.74335  0.46009  1.0000
  H   H2957     1.0  0.14655  0.75456  0.37916  1.0000
  H   H2958     1.0  0.46664  0.83830  0.24850  1.0000
  C   C3710     1.0  0.33018  0.84391  0.48517  1.0000
  H   H2959     1.0  0.12733  0.83314  0.48196  1.0000
  H   H2960     1.0  0.00866  0.89728  0.47691  1.0000
  H   H2961     1.0  0.38123  0.93081  0.48459  1.0000
  C   C3711     1.0  0.07388  0.76396  0.48444  1.0000
  H   H2962     1.0  0.40436  0.98908  0.47424  1.0000
  H   H2963     1.0  0.40612  0.99002  0.38617  1.0000
  C   C3712     1.0  0.38257  0.89947  0.23655  1.0000
  C   C3713     1.0  0.40863  0.99020  0.43421  1.0000
  H   H2964     1.0  0.49997  0.77402  0.24628  1.0000
  C   C3714     1.0  0.46884  0.92959  0.23605  1.0000
  S   S499      1.0  0.12353  0.78891  0.56246  1.0000
  Fe  Fe249     1.0  0.22982  0.83013  0.55252  1.0000
  S   S500      1.0  0.25375  0.81970  0.54987  1.0000
  S   S501      1.0  0.21031  0.82082  0.56631  1.0000
  Fe  Fe250     1.0  0.23566  0.85747  0.53108  1.0000
  S   S502      1.0  0.25962  0.84894  0.52647  1.0000
  S   S503      1.0  0.22763  0.87964  0.51874  1.0000
  Fe  Fe251     1.0  0.25444  0.82849  0.52641  1.0000
  S   S504      1.0  0.26745  0.81664  0.50894  1.0000
  Fe  Fe252     1.0  0.25694  0.84128  0.55023  1.0000
  S   S505      1.0  0.27529  0.84500  0.55785  1.0000
  S   S506      1.0  0.23059  0.83775  0.52897  1.0000
  S   S507      1.0  0.23291  0.85104  0.55487  1.0000
  S   S508      1.0  0.17647  0.96178  0.51769  1.0000
  C   C3715     1.0  0.00739  0.75589  0.50306  1.0000
  C   C3716     1.0  0.14749  0.77756  0.48737  1.0000
  H   H2965     1.0  0.42044  0.97355  0.62340  1.0000
  H   H2966     1.0  0.44938  0.93237  0.52903  1.0000
  P   P125      1.0  0.46525  0.87058  0.68992  1.0000
  C   C3717     1.0  0.19670  0.83333  0.49175  1.0000
  H   H2967     1.0  0.49253  0.84867  0.68516  1.0000
  Fe  Fe253     1.0  0.15666  0.89659  0.49695  1.0000
  S   S509      1.0  0.16225  0.88567  0.51819  1.0000
  H   H2968     1.0  0.14780  0.77139  0.49812  1.0000
  H   H2969     1.0  0.34399  0.97083  0.69743  1.0000
  H   H2970     1.0  0.20026  0.97402  0.49524  1.0000
  C   C3718     1.0  0.49503  0.89636  0.57022  1.0000
  S   S510      1.0  0.10112  0.79480  0.50762  1.0000
  S   S511      1.0  0.16269  0.76897  0.54560  1.0000
  H   H2971     1.0  0.39218  0.91571  0.52569  1.0000
  H   H2972     1.0  0.48310  0.96190  0.56654  1.0000
  H   H2973     1.0  0.42118  0.86625  0.67880  1.0000
  C   C3719     1.0  0.17992  0.76805  0.50706  1.0000
  C   C3720     1.0  0.06918  0.79378  0.56266  1.0000
  Fe  Fe254     1.0  0.37613  0.96066  0.55160  1.0000
  S   S512      1.0  0.39317  0.94744  0.56371  1.0000
  Fe  Fe255     1.0  0.39581  0.95826  0.52274  1.0000
  S   S513      1.0  0.41463  0.94477  0.53227  1.0000
  S   S514      1.0  0.39865  0.96343  0.49898  1.0000
  Fe  Fe256     1.0  0.39813  0.93335  0.54821  1.0000
  S   S515      1.0  0.40174  0.90937  0.55352  1.0000
  Fe  Fe257     1.0  0.40785  0.96032  0.54662  1.0000
  H   H2974     1.0  0.27160  0.97527  0.49166  1.0000
  S   S516      1.0  0.37987  0.94556  0.53748  1.0000
  S   S517      1.0  0.39019  0.97478  0.53574  1.0000
  H   H2975     1.0  0.09815  0.78053  0.58134  1.0000
  Fe  Fe258     1.0  0.46344  0.95446  0.61089  1.0000
  S   S518      1.0  0.47919  0.93912  0.62354  1.0000
  S   S519      1.0  0.45052  0.94347  0.60385  1.0000
  C   C3721     1.0  0.09147  0.75527  0.53478  1.0000
  S   S520      1.0  0.48418  0.96720  0.63119  1.0000
  Fe  Fe259     1.0  0.49325  0.95507  0.61366  1.0000
  C   C3722     1.0  0.34736  0.97477  0.70474  1.0000
  Fe  Fe260     1.0  0.46857  0.95259  0.63969  1.0000
  S   S521      1.0  0.46029  0.94213  0.66237  1.0000
  C   C3723     1.0  0.40422  0.92715  0.73185  1.0000
  H   H2976     1.0  0.44340  0.89223  0.62719  1.0000
  Fe  Fe261     1.0  0.40356  0.90310  0.67386  1.0000
  S   S522      1.0  0.42558  0.89886  0.65934  1.0000
  H   H2977     1.0  0.38093  0.93879  0.63022  1.0000
  Fe  Fe262     1.0  0.32478  0.89514  0.58827  1.0000
  S   S523      1.0  0.30445  0.90890  0.58157  1.0000
  S   S524      1.0  0.34382  0.88658  0.57194  1.0000
  Fe  Fe263     1.0  0.31157  0.89384  0.61981  1.0000
  S   S525      1.0  0.28985  0.90720  0.61566  1.0000
  S   S526      1.0  0.31666  0.88429  0.64181  1.0000
  Fe  Fe264     1.0  0.29282  0.89403  0.59948  1.0000
  S   S527      1.0  0.27369  0.88774  0.59578  1.0000
  Fe  Fe265     1.0  0.30331  0.92076  0.59805  1.0000
  S   S528      1.0  0.29920  0.94488  0.59289  1.0000
  S   S529      1.0  0.31330  0.87942  0.60534  1.0000
  S   S530      1.0  0.32477  0.90827  0.60307  1.0000
  H   H2978     1.0  0.34509  0.88361  0.49613  1.0000
  C   C3724     1.0  0.30451  0.96494  0.62654  1.0000
  C   C3725     1.0  0.29882  0.95260  0.63072  1.0000
  C   C3726     1.0  0.29787  0.94591  0.62050  1.0000
  C   C3727     1.0  0.30222  0.95179  0.60595  1.0000
  C   C3728     1.0  0.30832  0.96385  0.60175  1.0000
  C   C3729     1.0  0.30978  0.97022  0.61203  1.0000
  H   H2979     1.0  0.29486  0.94838  0.64192  1.0000
  H   H2980     1.0  0.29323  0.93656  0.62388  1.0000
  H   H2981     1.0  0.31176  0.96828  0.59051  1.0000
  H   H2982     1.0  0.35644  0.92742  0.49545  1.0000
  H   H2983     1.0  0.36792  0.83049  0.64466  1.0000
  C   C3730     1.0  0.34360  0.90441  0.65842  1.0000
  C   C3731     1.0  0.34224  0.89024  0.66448  1.0000
  C   C3732     1.0  0.33395  0.88414  0.65934  1.0000
  C   C3733     1.0  0.32718  0.89207  0.64797  1.0000
  C   C3734     1.0  0.32852  0.90622  0.64202  1.0000
  C   C3735     1.0  0.33642  0.91237  0.64743  1.0000
  H   H2984     1.0  0.34749  0.88406  0.67314  1.0000
  H   H2985     1.0  0.33282  0.87324  0.66413  1.0000
  H   H2986     1.0  0.32307  0.91260  0.63355  1.0000
  C   C3736     1.0  0.45060  0.93015  0.66156  1.0000
  C   C3737     1.0  0.43549  0.93271  0.66646  1.0000
  C   C3738     1.0  0.42771  0.92335  0.66541  1.0000
  C   C3739     1.0  0.43507  0.91120  0.65981  1.0000
  C   C3740     1.0  0.45016  0.90866  0.65493  1.0000
  C   C3741     1.0  0.45790  0.91824  0.65560  1.0000
  H   H2987     1.0  0.42981  0.94194  0.67102  1.0000
  H   H2988     1.0  0.41602  0.92560  0.66893  1.0000
  H   H2989     1.0  0.45587  0.89918  0.65083  1.0000
  H   H2990     1.0  0.46955  0.91632  0.65170  1.0000
  S   S531      1.0  0.38653  0.92196  0.66700  1.0000
  C   C3742     1.0  0.43071  0.96399  0.56495  1.0000
  C   C3743     1.0  0.42559  0.95283  0.57537  1.0000
  C   C3744     1.0  0.43146  0.94693  0.58752  1.0000
  C   C3745     1.0  0.44239  0.95225  0.58935  1.0000
  C   C3746     1.0  0.44727  0.96368  0.57912  1.0000
  H   H2991     1.0  0.49818  0.93212  0.69735  1.0000
  H   H2992     1.0  0.41737  0.94853  0.57389  1.0000
  H   H2993     1.0  0.42776  0.93802  0.59538  1.0000
  C   C3747     1.0  0.22499  0.74661  0.53110  1.0000
  H   H2994     1.0  0.03340  0.87665  0.50907  1.0000
  C   C3748     1.0  0.49368  0.88221  0.57678  1.0000
  H   H2995     1.0  0.29145  0.97329  0.57276  1.0000
  H   H2996     1.0  0.47713  0.91430  0.60316  1.0000
  Fe  Fe266     1.0  0.07238  0.84637  0.49328  1.0000
  C   C3749     1.0  0.35682  0.96558  0.49925  1.0000
  C   C3750     1.0  0.36926  0.96569  0.50343  1.0000
  C   C3751     1.0  0.23379  0.74672  0.53981  1.0000
  H   H2997     1.0  0.34624  0.96761  0.50630  1.0000
  H   H2998     1.0  0.36827  0.96776  0.51374  1.0000
  C   C3752     1.0  0.38538  0.90351  0.55863  1.0000
  C   C3753     1.0  0.38548  0.89023  0.55648  1.0000
  C   C3754     1.0  0.37259  0.88531  0.56045  1.0000
  C   C3755     1.0  0.35959  0.89340  0.56704  1.0000
  C   C3756     1.0  0.35947  0.90667  0.56933  1.0000
  C   C3757     1.0  0.37232  0.91184  0.56486  1.0000
  H   H2999     1.0  0.39552  0.88381  0.55157  1.0000
  H   H3000     1.0  0.37273  0.87509  0.55861  1.0000
  H   H3001     1.0  0.34949  0.91296  0.57445  1.0000
  H   H3002     1.0  0.37221  0.92217  0.56637  1.0000
  C   C3758     1.0  0.48756  0.88544  0.64946  1.0000
  H   H3003     1.0  0.47255  0.94307  0.56475  1.0000
  C   C3759     1.0  0.39779  0.81928  0.61648  1.0000
  H   H3004     1.0  0.35731  0.86595  0.54076  1.0000
  C   C3760     1.0  0.38561  0.83053  0.61823  1.0000
  C   C3761     1.0  0.48781  0.92552  0.57487  1.0000
  H   H3005     1.0  0.35164  0.85862  0.58970  1.0000
  C   C3762     1.0  0.08226  0.95720  0.51645  1.0000
  H   H3006     1.0  0.21915  0.77047  0.50478  1.0000
  C   C3763     1.0  0.23304  0.91322  0.55746  1.0000
  S   S532      1.0  0.15424  0.76114  0.58096  1.0000
  C   C3764     1.0  0.23653  0.91259  0.58066  1.0000
  H   H3007     1.0  0.46491  0.97146  0.66954  1.0000
  C   C3765     1.0  0.31428  0.96612  0.69025  1.0000
  H   H3008     1.0  0.21336  0.75075  0.53412  1.0000
  C   C3766     1.0  0.37520  0.93159  0.73071  1.0000
  C   C3767     1.0  0.17348  0.94293  0.50392  1.0000
  C   C3768     1.0  0.17140  0.95737  0.50420  1.0000
  C   C3769     1.0  0.47528  0.86180  0.66407  1.0000
  H   H3009     1.0  0.49218  0.89470  0.64379  1.0000
  H   H3010     1.0  0.48842  0.92914  0.72344  1.0000
  H   H3011     1.0  0.17794  0.93457  0.51210  1.0000
  C   C3770     1.0  0.29901  0.97989  0.70778  1.0000
  C   C3771     1.0  0.49598  0.84227  0.71937  1.0000
  C   C3772     1.0  0.27455  0.85706  0.56832  1.0000
  C   C3773     1.0  0.28764  0.85942  0.56937  1.0000
  C   C3774     1.0  0.28760  0.86884  0.57762  1.0000
  C   C3775     1.0  0.27444  0.87590  0.58505  1.0000
  C   C3776     1.0  0.26136  0.87361  0.58392  1.0000
  C   C3777     1.0  0.26139  0.86431  0.57557  1.0000
  H   H3012     1.0  0.29787  0.85387  0.56382  1.0000
  H   H3013     1.0  0.29774  0.87047  0.57839  1.0000
  H   H3014     1.0  0.25112  0.87892  0.58970  1.0000
  H   H3015     1.0  0.25125  0.86257  0.57494  1.0000
  C   C3778     1.0  0.20928  0.88189  0.51893  1.0000
  C   C3779     1.0  0.20230  0.89377  0.50998  1.0000
  C   C3780     1.0  0.18786  0.89493  0.50948  1.0000
  C   C3781     1.0  0.18038  0.88441  0.51817  1.0000
  C   C3782     1.0  0.18728  0.87284  0.52735  1.0000
  C   C3783     1.0  0.20171  0.87151  0.52768  1.0000
  H   H3016     1.0  0.20811  0.90187  0.50326  1.0000
  H   H3017     1.0  0.18249  0.90402  0.50254  1.0000
  H   H3018     1.0  0.18151  0.86477  0.53407  1.0000
  H   H3019     1.0  0.20693  0.86244  0.53480  1.0000
  S   S533      1.0  0.47851  0.96935  0.59933  1.0000
  H   H3020     1.0  0.06111  0.76110  0.56088  1.0000
  H   H3021     1.0  0.22657  0.85088  0.49237  1.0000
  C   C3784     1.0  0.25858  0.80715  0.50285  1.0000
  C   C3785     1.0  0.07107  0.95968  0.54485  1.0000
  C   C3786     1.0  0.41456  0.96549  0.64595  1.0000
  C   C3787     1.0  0.28284  0.94772  0.67760  1.0000
  H   H3022     1.0  0.26928  0.78663  0.51356  1.0000
  H   H3023     1.0  0.08512  0.77500  0.50785  1.0000
  C   C3788     1.0  0.20657  0.80474  0.56515  1.0000
  C   C3789     1.0  0.19208  0.80324  0.56860  1.0000
  C   C3790     1.0  0.18875  0.79069  0.56768  1.0000
  H   H3024     1.0  0.18335  0.81187  0.57187  1.0000
  H   H3025     1.0  0.17756  0.78985  0.57002  1.0000
  C   C3791     1.0  0.11666  0.79049  0.54762  1.0000
  C   C3792     1.0  0.10409  0.80079  0.54501  1.0000
  C   C3793     1.0  0.09901  0.80218  0.53279  1.0000
  C   C3794     1.0  0.10661  0.79333  0.52320  1.0000
  C   C3795     1.0  0.11907  0.78303  0.52589  1.0000
  C   C3796     1.0  0.12406  0.78158  0.53808  1.0000
  H   H3026     1.0  0.09836  0.80772  0.55238  1.0000
  H   H3027     1.0  0.08935  0.81015  0.53070  1.0000
  H   H3028     1.0  0.12496  0.77617  0.51849  1.0000
  H   H3029     1.0  0.13380  0.77368  0.53989  1.0000
  P   P126      1.0  0.35664  0.84441  0.61843  1.0000
  C   C3797     1.0  0.34374  0.84381  0.60897  1.0000
  C   C3798     1.0  0.36191  0.86145  0.61151  1.0000
  C   C3799     1.0  0.37399  0.86308  0.60011  1.0000
  C   C3800     1.0  0.37781  0.87638  0.59464  1.0000
  C   C3801     1.0  0.36938  0.88823  0.60020  1.0000
  C   C3802     1.0  0.35717  0.88677  0.61128  1.0000
  C   C3803     1.0  0.35350  0.87344  0.61699  1.0000
  C   C3804     1.0  0.33344  0.83529  0.61550  1.0000
  C   C3805     1.0  0.32311  0.83533  0.60833  1.0000
  C   C3806     1.0  0.32306  0.84376  0.59456  1.0000
  C   C3807     1.0  0.37238  0.82990  0.61594  1.0000
  C   C3808     1.0  0.39686  0.80730  0.61246  1.0000
  C   C3809     1.0  0.38372  0.80656  0.61021  1.0000
  C   C3810     1.0  0.37151  0.81780  0.61196  1.0000
  H   H3030     1.0  0.32711  0.85513  0.63391  1.0000
  H   H3031     1.0  0.38028  0.85420  0.59522  1.0000
  H   H3032     1.0  0.38703  0.87767  0.58577  1.0000
  H   H3033     1.0  0.37210  0.89861  0.59569  1.0000
  H   H3034     1.0  0.35041  0.89600  0.61543  1.0000
  H   H3035     1.0  0.34395  0.87266  0.62549  1.0000
  H   H3036     1.0  0.33323  0.82878  0.62621  1.0000
  H   H3037     1.0  0.31496  0.82901  0.61353  1.0000
  H   H3038     1.0  0.38298  0.79725  0.60715  1.0000
  H   H3039     1.0  0.36145  0.81696  0.61022  1.0000
  C   C3811     1.0  0.38836  0.92334  0.50439  1.0000
  H   H3040     1.0  0.22892  0.79411  0.55900  1.0000
  C   C3812     1.0  0.31416  0.93694  0.49123  1.0000
  C   C3813     1.0  0.22322  0.80603  0.52342  1.0000
  C   C3814     1.0  0.22274  0.79158  0.52706  1.0000
  C   C3815     1.0  0.20957  0.78772  0.52933  1.0000
  C   C3816     1.0  0.19692  0.79825  0.52781  1.0000
  C   C3817     1.0  0.19753  0.81277  0.52330  1.0000
  C   C3818     1.0  0.21076  0.81659  0.52124  1.0000
  P   P127      1.0  0.18170  0.82663  0.52006  1.0000
  C   C3819     1.0  0.18724  0.83877  0.50341  1.0000
  C   C3820     1.0  0.16772  0.81912  0.51852  1.0000
  C   C3821     1.0  0.16433  0.82116  0.50528  1.0000
  C   C3822     1.0  0.15350  0.81521  0.50425  1.0000
  C   C3823     1.0  0.14606  0.80709  0.51639  1.0000
  C   C3824     1.0  0.14940  0.80501  0.52957  1.0000
  C   C3825     1.0  0.16004  0.81113  0.53071  1.0000
  C   C3826     1.0  0.18173  0.85359  0.50172  1.0000
  H   H3041     1.0  0.02630  0.75482  0.53335  1.0000
  C   C3827     1.0  0.13620  0.93368  0.51967  1.0000
  H   H3042     1.0  0.02981  0.76395  0.61406  1.0000
  H   H3043     1.0  0.44385  0.87454  0.67327  1.0000
  C   C3828     1.0  0.17417  0.83587  0.53454  1.0000
  C   C3829     1.0  0.18205  0.83417  0.54482  1.0000
  C   C3830     1.0  0.17609  0.84139  0.55599  1.0000
  C   C3831     1.0  0.16238  0.85061  0.55678  1.0000
  C   C3832     1.0  0.15458  0.85256  0.54644  1.0000
  C   C3833     1.0  0.16029  0.84499  0.53554  1.0000
  H   H3044     1.0  0.23324  0.80904  0.52242  1.0000
  H   H3045     1.0  0.18689  0.79486  0.52991  1.0000
  H   H3046     1.0  0.21136  0.82775  0.51807  1.0000
  C   C3834     1.0  0.14442  0.92065  0.52580  1.0000
  C   C3835     1.0  0.33681  0.95092  0.67016  1.0000
  H   H3047     1.0  0.13783  0.80232  0.51552  1.0000
  H   H3048     1.0  0.14381  0.79858  0.53893  1.0000
  H   H3049     1.0  0.16251  0.80936  0.54104  1.0000
  H   H3050     1.0  0.17449  0.85814  0.51044  1.0000
  H   H3051     1.0  0.05851  0.78303  0.51613  1.0000
  H   H3052     1.0  0.19588  0.97755  0.54999  1.0000
  H   H3053     1.0  0.22889  0.75098  0.54934  1.0000
  H   H3054     1.0  0.05903  0.82692  0.57001  1.0000
  H   H3055     1.0  0.19281  0.82732  0.54429  1.0000
  H   H3056     1.0  0.18229  0.83995  0.56388  1.0000
  H   H3057     1.0  0.15794  0.85641  0.56527  1.0000
  H   H3058     1.0  0.14420  0.86007  0.54677  1.0000
  H   H3059     1.0  0.15407  0.84653  0.52765  1.0000
  C   C3836     1.0  0.06636  0.85389  0.55865  1.0000
  C   C3837     1.0  0.05821  0.85392  0.54926  1.0000
  C   C3838     1.0  0.06491  0.85369  0.53501  1.0000
  C   C3839     1.0  0.07973  0.85356  0.53008  1.0000
  C   C3840     1.0  0.08806  0.85334  0.53947  1.0000
  C   C3841     1.0  0.08123  0.85358  0.55380  1.0000
  P   P128      1.0  0.10683  0.85474  0.53275  1.0000
  C   C3842     1.0  0.11439  0.84742  0.51692  1.0000
  C   C3843     1.0  0.10758  0.87338  0.52845  1.0000
  C   C3844     1.0  0.12077  0.87714  0.52680  1.0000
  C   C3845     1.0  0.12147  0.89155  0.52332  1.0000
  C   C3846     1.0  0.10907  0.90229  0.52142  1.0000
  C   C3847     1.0  0.09592  0.89865  0.52303  1.0000
  C   C3848     1.0  0.09517  0.88425  0.52640  1.0000
  C   C3849     1.0  0.12210  0.85508  0.50443  1.0000
  C   C3850     1.0  0.11470  0.92867  0.53749  1.0000
  H   H3060     1.0  0.22541  0.97317  0.49604  1.0000
  C   C3851     1.0  0.11642  0.82927  0.50414  1.0000
  C   C3852     1.0  0.11165  0.83445  0.51667  1.0000
  C   C3853     1.0  0.11667  0.84511  0.54663  1.0000
  C   C3854     1.0  0.12404  0.83072  0.54737  1.0000
  C   C3855     1.0  0.13131  0.82337  0.55838  1.0000
  C   C3856     1.0  0.13122  0.83023  0.56878  1.0000
  C   C3857     1.0  0.12376  0.84449  0.56826  1.0000
  C   C3858     1.0  0.11655  0.85192  0.55721  1.0000
  H   H3061     1.0  0.06114  0.85421  0.56968  1.0000
  H   H3062     1.0  0.04667  0.85424  0.55294  1.0000
  H   H3063     1.0  0.05859  0.85394  0.52762  1.0000
  H   H3064     1.0  0.08458  0.85392  0.51886  1.0000
  H   H3065     1.0  0.08728  0.85375  0.56120  1.0000
  H   H3066     1.0  0.13060  0.86896  0.52777  1.0000
  H   H3067     1.0  0.13174  0.89439  0.52168  1.0000
  H   H3068     1.0  0.10980  0.91343  0.51812  1.0000
  H   H3069     1.0  0.08647  0.90699  0.52095  1.0000
  H   H3070     1.0  0.08500  0.88170  0.52696  1.0000
  H   H3071     1.0  0.12420  0.86524  0.50411  1.0000
  C   C3859     1.0  0.33850  0.98605  0.58083  1.0000
  C   C3860     1.0  0.07687  0.75677  0.54193  1.0000
  H   H3072     1.0  0.07130  0.78893  0.55366  1.0000
  H   H3073     1.0  0.10555  0.82851  0.52610  1.0000
  H   H3074     1.0  0.12410  0.82505  0.53962  1.0000
  H   H3075     1.0  0.13691  0.81224  0.55897  1.0000
  H   H3076     1.0  0.13689  0.82443  0.57727  1.0000
  H   H3077     1.0  0.12364  0.84977  0.57637  1.0000
  H   H3078     1.0  0.11080  0.86296  0.55698  1.0000
  C   C3861     1.0  0.03426  0.74977  0.56559  1.0000
  C   C3862     1.0  0.18313  0.78135  0.50501  1.0000
  C   C3863     1.0  0.44883  0.93152  0.55088  1.0000
  C   C3864     1.0  0.45757  0.89856  0.59127  1.0000
  C   C3865     1.0  0.16985  0.93926  0.49301  1.0000
  H   H3079     1.0  0.10536  0.76125  0.55943  1.0000
  H   H3080     1.0  0.21836  0.95022  0.49737  1.0000
  H   H3081     1.0  0.17898  0.88095  0.55617  1.0000
  C   C3866     1.0  0.19139  0.96829  0.55173  1.0000
  C   C3867     1.0  0.06483  0.80870  0.56048  1.0000
  C   C3868     1.0  0.33684  0.88367  0.49087  1.0000
  C   C3869     1.0  0.20049  0.95523  0.54924  1.0000
  C   C3870     1.0  0.25603  0.98246  0.61831  1.0000
  C   C3871     1.0  0.19462  0.94335  0.55108  1.0000
  H   H3082     1.0  0.33007  0.98024  0.58330  1.0000
  H   H3083     1.0  0.23245  0.78340  0.52860  1.0000
  H   H3084     1.0  0.00232  0.81969  0.50572  1.0000
  H   H3085     1.0  0.30018  0.90595  0.50598  1.0000
  H   H3086     1.0  0.40629  0.79856  0.61114  1.0000
  H   H3087     1.0  0.26950  0.88555  0.55160  1.0000
  C   C3872     1.0  0.12941  0.96726  0.52523  1.0000
  H   H3088     1.0  0.30335  0.83344  0.53630  1.0000
  C   C3873     1.0  0.46242  0.94613  0.69739  1.0000
  H   H3089     1.0  0.12607  0.97452  0.49346  1.0000
  C   C3874     1.0  0.02773  0.75629  0.55394  1.0000
  C   C3875     1.0  0.24917  0.81421  0.49352  1.0000
  C   C3876     1.0  0.33545  0.84100  0.66642  1.0000
  C   C3877     1.0  0.28000  0.88342  0.53013  1.0000
  H   H3090     1.0  0.29735  0.82020  0.52195  1.0000
  C   C3878     1.0  0.01998  0.77972  0.49332  1.0000
  C   C3879     1.0  0.31225  0.88219  0.49207  1.0000
  H   H3091     1.0  0.30266  0.85923  0.52771  1.0000
  C   C3880     1.0  0.19733  0.78217  0.50399  1.0000
  C   C3881     1.0  0.20821  0.76966  0.50551  1.0000
  H   H3092     1.0  0.48150  0.94273  0.68066  1.0000
  C   C3882     1.0  0.11221  0.76488  0.59381  1.0000
  Fe  Fe267     1.0  0.17449  0.75882  0.56345  1.0000
  H   H3093     1.0  0.09309  0.95805  0.54563  1.0000
  C   C3883     1.0  0.47730  0.94160  0.69209  1.0000
  C   C3884     1.0  0.13312  0.97847  0.52813  1.0000
  C   C3885     1.0  0.39527  0.96902  0.60368  1.0000
  C   C3886     1.0  0.32307  0.88176  0.49891  1.0000
  P   P129      1.0  0.32143  0.94909  0.68498  1.0000
  H   H3094     1.0  0.29374  0.91741  0.52649  1.0000
  C   C3887     1.0  0.28925  0.88871  0.51737  1.0000
  C   C3888     1.0  0.06434  0.80718  0.58516  1.0000
  H   H3095     1.0  0.27583  0.87407  0.53134  1.0000
  C   C3889     1.0  0.33566  0.81826  0.49429  1.0000
  Fe  Fe268     1.0  0.38317  0.92622  0.68858  1.0000
  C   C3890     1.0  0.29371  0.90130  0.51598  1.0000
  C   C3891     1.0  0.33488  0.95483  0.65609  1.0000
  C   C3892     1.0  0.34383  0.85197  0.59501  1.0000
  S   S534      1.0  0.07159  0.80973  0.48768  1.0000
  C   C3893     1.0  0.17044  0.95780  0.55819  1.0000
  C   C3894     1.0  0.49970  0.94716  0.57689  1.0000
  Fe  Fe269     1.0  0.17395  0.98534  0.51650  1.0000
  C   C3895     1.0  0.36551  0.97518  0.60471  1.0000
  H   H3096     1.0  0.11285  0.75608  0.53554  1.0000
  H   H3097     1.0  0.36162  0.89023  0.53006  1.0000
  C   C3896     1.0  0.45040  0.89580  0.61698  1.0000
  C   C3897     1.0  0.23156  0.91531  0.51134  1.0000
  H   H3098     1.0  0.44051  0.88809  0.60485  1.0000
  C   C3898     1.0  0.32221  0.88474  0.54584  1.0000
  C   C3899     1.0  0.33399  0.87296  0.54600  1.0000
  C   C3900     1.0  0.34815  0.87504  0.54027  1.0000
  C   C3901     1.0  0.35057  0.88889  0.53431  1.0000
  C   C3902     1.0  0.33878  0.90077  0.53411  1.0000
  C   C3903     1.0  0.32459  0.89858  0.53990  1.0000
  P   P130      1.0  0.34142  0.91871  0.52564  1.0000
  C   C3904     1.0  0.33711  0.92987  0.53837  1.0000
  C   C3905     1.0  0.36016  0.91890  0.51692  1.0000
  C   C3906     1.0  0.37043  0.91561  0.52530  1.0000
  C   C3907     1.0  0.34219  0.94257  0.53434  1.0000
  C   C3908     1.0  0.33977  0.95095  0.54421  1.0000
  C   C3909     1.0  0.33230  0.94669  0.55824  1.0000
  C   C3910     1.0  0.32739  0.93398  0.56239  1.0000
  C   C3911     1.0  0.32987  0.92552  0.55255  1.0000
  C   C3912     1.0  0.33020  0.92587  0.51263  1.0000
  C   C3913     1.0  0.32856  0.91682  0.50498  1.0000
  C   C3914     1.0  0.32060  0.92235  0.49430  1.0000
  C   C3915     1.0  0.29359  0.83871  0.50494  1.0000
  H   H3099     1.0  0.27752  0.92963  0.49989  1.0000
  C   C3916     1.0  0.32369  0.94050  0.50950  1.0000
  H   H3100     1.0  0.31125  0.88314  0.55055  1.0000
  H   H3101     1.0  0.33217  0.86226  0.55085  1.0000
  H   H3102     1.0  0.31538  0.90763  0.53995  1.0000
  H   H3103     1.0  0.36737  0.91196  0.53678  1.0000
  H   H3104     1.0  0.34848  0.94573  0.52367  1.0000
  H   H3105     1.0  0.34410  0.96052  0.54111  1.0000
  H   H3106     1.0  0.33068  0.95296  0.56605  1.0000
  H   H3107     1.0  0.32218  0.93044  0.57342  1.0000
  H   H3108     1.0  0.32669  0.91536  0.55622  1.0000
  H   H3109     1.0  0.33391  0.90559  0.50688  1.0000
  S   S535      1.0  0.03075  0.82178  0.50680  1.0000
  C   C3917     1.0  0.06276  0.77732  0.50755  1.0000
  H   H3110     1.0  0.10793  0.93793  0.49960  1.0000
  H   H3111     1.0  0.32546  0.94784  0.51462  1.0000
  H   H3112     1.0  0.45131  0.92901  0.57214  1.0000
  H   H3113     1.0  0.42549  0.95954  0.64673  1.0000
  H   H3114     1.0  0.19162  0.98626  0.57298  1.0000
  C   C3918     1.0  0.20505  0.75630  0.50746  1.0000
  Fe  Fe270     1.0  0.05346  0.82542  0.49796  1.0000
  H   H3115     1.0  0.33212  0.95084  0.70885  1.0000
  C   C3919     1.0  0.46071  0.90326  0.61636  1.0000
  H   H3116     1.0  0.42440  0.94506  0.70393  1.0000
  C   C3920     1.0  0.18538  0.86279  0.48855  1.0000
  C   C3921     1.0  0.25715  0.89038  0.48747  1.0000
  C   C3922     1.0  0.21456  0.97746  0.57170  1.0000
  H   H3117     1.0  0.38968  0.97340  0.72790  1.0000
  H   H3118     1.0  0.47418  0.91689  0.52486  1.0000
  C   C3923     1.0  0.44876  0.89354  0.60442  1.0000
  C   C3924     1.0  0.39118  0.95529  0.69558  1.0000
  H   H3119     1.0  0.29075  0.83289  0.49891  1.0000
  C   C3925     1.0  0.24748  0.79124  0.49078  1.0000
  H   H3120     1.0  0.24890  0.97983  0.64127  1.0000
  C   C3926     1.0  0.31905  0.97850  0.68176  1.0000
  H   H3121     1.0  0.11778  0.90841  0.55263  1.0000
  C   C3927     1.0  0.05326  0.77505  0.50075  1.0000
  S   S536      1.0  0.30404  0.97383  0.63968  1.0000
  P   P131      1.0  0.20668  0.92633  0.54859  1.0000
  H   H3122     1.0  0.37504  0.98568  0.64360  1.0000
  C   C3928     1.0  0.21410  0.94029  0.51978  1.0000
  C   C3929     1.0  0.32722  0.84822  0.65618  1.0000
  C   C3930     1.0  0.11603  0.96935  0.52167  1.0000
  H   H3123     1.0  0.23393  0.98279  0.59240  1.0000
  S   S537      1.0  0.37822  0.94876  0.69163  1.0000
  H   H3124     1.0  0.26677  0.95492  0.60111  1.0000
  C   C3931     1.0  0.44851  0.96632  0.73465  1.0000
  H   H3125     1.0  0.06008  0.95902  0.51580  1.0000
  H   H3126     1.0  0.29913  0.80917  0.49141  1.0000
  C   C3932     1.0  0.41166  0.97364  0.63280  1.0000
  H   H3127     1.0  0.24582  0.98222  0.51824  1.0000
  H   H3128     1.0  0.43693  0.89163  0.69081  1.0000
  C   C3933     1.0  0.27625  0.89001  0.54167  1.0000
  H   H3129     1.0  0.32085  0.88009  0.51043  1.0000
  C   C3934     1.0  0.30562  0.96715  0.52990  1.0000
  H   H3130     1.0  0.35651  0.82912  0.67012  1.0000
  S   S538      1.0  0.45192  0.96704  0.62772  1.0000
  C   C3935     1.0  0.30080  0.83896  0.52600  1.0000
  C   C3936     1.0  0.47453  0.86075  0.71549  1.0000
  H   H3131     1.0  0.21840  0.92376  0.59424  1.0000
  C   C3937     1.0  0.28135  0.90212  0.54047  1.0000
  C   C3938     1.0  0.12294  0.91558  0.54354  1.0000
  C   C3939     1.0  0.38507  0.91896  0.72799  1.0000
  H   H3132     1.0  0.28479  0.98678  0.60609  1.0000
  S   S539      1.0  0.13884  0.74869  0.56288  1.0000
  H   H3133     1.0  0.42950  0.84163  0.71961  1.0000
  C   C3940     1.0  0.47434  0.87233  0.67129  1.0000
  C   C3941     1.0  0.25270  0.97455  0.63239  1.0000
  C   C3942     1.0  0.31557  0.94597  0.49895  1.0000
  H   H3134     1.0  0.47060  0.85257  0.66960  1.0000
  H   H3135     1.0  0.28969  0.95419  0.53853  1.0000
  C   C3943     1.0  0.17950  0.94472  0.55564  1.0000
  H   H3136     1.0  0.36399  0.93285  0.73051  1.0000
  C   C3944     1.0  0.19096  0.75564  0.50772  1.0000
  H   H3137     1.0  0.32305  0.92717  0.67022  1.0000
  C   C3945     1.0  0.48078  0.88403  0.66394  1.0000
  H   H3138     1.0  0.44568  0.92677  0.70066  1.0000
  C   C3946     1.0  0.26111  0.94200  0.48814  1.0000
  H   H3139     1.0  0.35219  0.94717  0.68328  1.0000
  C   C3947     1.0  0.08274  0.76104  0.56216  1.0000
  H   H3140     1.0  0.22569  0.90460  0.53318  1.0000
  C   C3948     1.0  0.19962  0.89975  0.56251  1.0000
  H   H3141     1.0  0.19998  0.79253  0.50173  1.0000
  H   H3142     1.0  0.47937  0.88884  0.69727  1.0000
  C   C3949     1.0  0.42647  0.87565  0.72637  1.0000
  C   C3950     1.0  0.48209  0.86323  0.64958  1.0000
  C   C3951     1.0  0.33643  0.83197  0.49450  1.0000
  H   H3143     1.0  0.05017  0.96113  0.54100  1.0000
  C   C3952     1.0  0.43974  0.90963  0.69632  1.0000
  C   C3953     1.0  0.38620  0.98030  0.64411  1.0000
  H   H3144     1.0  0.21045  0.87491  0.49207  1.0000
  C   C3954     1.0  0.44156  0.96942  0.56682  1.0000
  C   C3955     1.0  0.47756  0.85965  0.70123  1.0000
  C   C3956     1.0  0.09732  0.75970  0.55485  1.0000
  H   H3145     1.0  0.06890  0.75601  0.53677  1.0000
  H   H3146     1.0  0.17461  0.93579  0.55728  1.0000
  Fe  Fe271     1.0  0.16005  0.74694  0.54695  1.0000
  C   C3957     1.0  0.04044  0.74365  0.60834  1.0000
  C   C3958     1.0  0.48191  0.93999  0.56947  1.0000
  C   C3959     1.0  0.22475  0.91490  0.52567  1.0000
  H   H3147     1.0  0.14352  0.97664  0.53078  1.0000
  S   S540      1.0  0.42406  0.97093  0.54928  1.0000
  C   C3960     1.0  0.28691  0.93608  0.67107  1.0000
  C   C3961     1.0  0.29284  0.85344  0.50009  1.0000
  C   C3962     1.0  0.06175  0.95993  0.53650  1.0000
  H   H3148     1.0  0.23736  0.90982  0.54749  1.0000
  C   C3963     1.0  0.40336  0.96475  0.65813  1.0000
  C   C3964     1.0  0.24557  0.97515  0.54066  1.0000
  C   C3965     1.0  0.44574  0.85322  0.70626  1.0000
  C   C3966     1.0  0.35010  0.83459  0.66216  1.0000
  C   C3967     1.0  0.03146  0.74979  0.54234  1.0000
  S   S541      1.0  0.38444  0.88052  0.72529  1.0000
  H   H3149     1.0  0.40681  0.96635  0.60345  1.0000
  H   H3150     1.0  0.06135  0.89686  0.50067  1.0000
  S   S542      1.0  0.14032  0.91728  0.49446  1.0000
  C   C3968     1.0  0.26394  0.92570  0.58734  1.0000
  C   C3969     1.0  0.25591  0.92336  0.60141  1.0000
  C   C3970     1.0  0.24413  0.93399  0.60592  1.0000
  C   C3971     1.0  0.24042  0.94700  0.59638  1.0000
  C   C3972     1.0  0.24849  0.94944  0.58221  1.0000
  C   C3973     1.0  0.26027  0.93865  0.57778  1.0000
  P   P132      1.0  0.24440  0.96647  0.56992  1.0000
  C   C3974     1.0  0.24445  0.96385  0.55275  1.0000
  C   C3975     1.0  0.22664  0.97653  0.57701  1.0000
  C   C3976     1.0  0.48788  0.95075  0.57045  1.0000
  H   H3151     1.0  0.45203  0.84997  0.71438  1.0000
  C   C3977     1.0  0.35745  0.98502  0.72251  1.0000
  C   C3978     1.0  0.22061  0.94053  0.50537  1.0000
  C   C3979     1.0  0.24342  0.96038  0.52618  1.0000
  C   C3980     1.0  0.24228  0.94908  0.53815  1.0000
  C   C3981     1.0  0.24256  0.95086  0.55144  1.0000
  C   C3982     1.0  0.25756  0.97687  0.56777  1.0000
  C   C3983     1.0  0.27143  0.97021  0.57058  1.0000
  H   H3152     1.0  0.43638  0.87745  0.71878  1.0000
  H   H3153     1.0  0.35505  0.95384  0.71663  1.0000
  C   C3984     1.0  0.48997  0.84979  0.69608  1.0000
  C   C3985     1.0  0.38613  0.98103  0.60872  1.0000
  H   H3154     1.0  0.27303  0.91741  0.58387  1.0000
  H   H3155     1.0  0.25882  0.91325  0.60878  1.0000
  H   H3156     1.0  0.23795  0.93217  0.61685  1.0000
  H   H3157     1.0  0.23133  0.95507  0.60023  1.0000
  H   H3158     1.0  0.26678  0.94030  0.56698  1.0000
  C   C3986     1.0  0.28497  0.97034  0.51991  1.0000
  C   C3987     1.0  0.25664  0.78428  0.50031  1.0000
  C   C3988     1.0  0.35389  0.96515  0.71553  1.0000
  C   C3989     1.0  0.07909  0.88001  0.49397  1.0000
  H   H3159     1.0  0.27521  0.96720  0.52026  1.0000
  H   H3160     1.0  0.24087  0.93903  0.53718  1.0000
  H   H3161     1.0  0.24109  0.94214  0.56068  1.0000
  H   H3162     1.0  0.27484  0.95871  0.57374  1.0000
  H   H3163     1.0  0.39898  0.92578  0.49970  1.0000
  H   H3164     1.0  0.02183  0.85110  0.48789  1.0000
  C   C3990     1.0  0.46353  0.90835  0.69958  1.0000
  C   C3991     1.0  0.08163  0.90353  0.49394  1.0000
  C   C3992     1.0  0.41405  0.88753  0.58896  1.0000
  C   C3993     1.0  0.42194  0.89647  0.57805  1.0000
  C   C3994     1.0  0.42031  0.91064  0.57876  1.0000
  C   C3995     1.0  0.41085  0.91587  0.59040  1.0000
  C   C3996     1.0  0.40302  0.90691  0.60150  1.0000
  C   C3997     1.0  0.40458  0.89272  0.60065  1.0000
  P   P133      1.0  0.39066  0.91397  0.61634  1.0000
  C   C3998     1.0  0.37400  0.92475  0.61104  1.0000
  C   C3999     1.0  0.38709  0.89900  0.63094  1.0000
  C   C4000     1.0  0.37486  0.89353  0.63292  1.0000
  C   C4001     1.0  0.37299  0.88084  0.64295  1.0000
  C   C4002     1.0  0.38303  0.87383  0.65152  1.0000
  C   C4003     1.0  0.39512  0.87935  0.64982  1.0000
  C   C4004     1.0  0.39719  0.89185  0.63956  1.0000
  C   C4005     1.0  0.37266  0.92740  0.59683  1.0000
  C   C4006     1.0  0.35972  0.93553  0.59282  1.0000
  C   C4007     1.0  0.34805  0.94118  0.60285  1.0000
  C   C4008     1.0  0.34922  0.93857  0.61697  1.0000
  C   C4009     1.0  0.36203  0.93019  0.62114  1.0000
  C   C4010     1.0  0.40008  0.92378  0.62202  1.0000
  C   C4011     1.0  0.41521  0.91927  0.62057  1.0000
  C   C4012     1.0  0.42263  0.92594  0.62579  1.0000
  C   C4013     1.0  0.41509  0.93716  0.63251  1.0000
  C   C4014     1.0  0.40007  0.94188  0.63393  1.0000
  C   C4015     1.0  0.39255  0.93519  0.62872  1.0000
  H   H3165     1.0  0.41503  0.87668  0.58818  1.0000
  H   H3166     1.0  0.42885  0.89264  0.56872  1.0000
  H   H3167     1.0  0.42600  0.91772  0.57005  1.0000
  H   H3168     1.0  0.40950  0.92694  0.59069  1.0000
  H   H3169     1.0  0.39839  0.88569  0.60888  1.0000
  H   H3170     1.0  0.36673  0.89911  0.62677  1.0000
  H   H3171     1.0  0.36356  0.87665  0.64427  1.0000
  H   H3172     1.0  0.38130  0.86427  0.65963  1.0000
  H   H3173     1.0  0.40284  0.87407  0.65657  1.0000
  H   H3174     1.0  0.40666  0.89586  0.63849  1.0000
  H   H3175     1.0  0.38151  0.92323  0.58876  1.0000
  H   H3176     1.0  0.35877  0.93774  0.58184  1.0000
  H   H3177     1.0  0.33812  0.94764  0.59966  1.0000
  H   H3178     1.0  0.34006  0.94298  0.62469  1.0000
  H   H3179     1.0  0.36250  0.92785  0.63228  1.0000
  H   H3180     1.0  0.42126  0.91034  0.61572  1.0000
  H   H3181     1.0  0.43425  0.92238  0.62485  1.0000
  H   H3182     1.0  0.42104  0.94189  0.63678  1.0000
  H   H3183     1.0  0.31482  0.84406  0.58915  1.0000
  H   H3184     1.0  0.04174  0.77887  0.50448  1.0000
  C   C4016     1.0  0.38448  0.91780  0.51906  1.0000
  C   C4017     1.0  0.38959  0.96051  0.59868  1.0000
  C   C4018     1.0  0.21773  0.79324  0.56145  1.0000
  H   H3185     1.0  0.20904  0.77655  0.53271  1.0000
  C   C4019     1.0  0.43290  0.84844  0.70930  1.0000
  H   H3186     1.0  0.39423  0.95045  0.63940  1.0000
  Fe  Fe272     1.0  0.14242  0.76984  0.56306  1.0000
  C   C4020     1.0  0.19994  0.77918  0.56398  1.0000
  H   H3187     1.0  0.33050  0.84060  0.67764  1.0000
  C   C4021     1.0  0.13780  0.91159  0.53771  1.0000
  H   H3188     1.0  0.25250  0.95355  0.64604  1.0000
  C   C4022     1.0  0.09192  0.76004  0.58803  1.0000
  H   H3189     1.0  0.33867  0.93307  0.73003  1.0000
  S   S543      1.0  0.35351  0.91313  0.66429  1.0000
  H   H3190     1.0  0.37040  0.95744  0.59473  1.0000
  C   C4023     1.0  0.02115  0.86158  0.48953  1.0000
  C   C4024     1.0  0.33361  0.84905  0.64168  1.0000
  C   C4025     1.0  0.33349  0.85199  0.58788  1.0000
  H   H3191     1.0  0.25959  0.77269  0.50301  1.0000
  H   H3192     1.0  0.34191  0.83333  0.50185  1.0000
  H   H3193     1.0  0.45760  0.96664  0.72553  1.0000
  S   S544      1.0  0.35342  0.96796  0.56328  1.0000
  C   C4026     1.0  0.27185  0.94029  0.49547  1.0000
  H   H3194     1.0  0.37820  0.97683  0.69340  1.0000
  H   H3195     1.0  0.15586  0.91739  0.52103  1.0000
  C   C4027     1.0  0.25463  0.95965  0.63513  1.0000
  C   C4028     1.0  0.34830  0.84257  0.63727  1.0000
  H   H3196     1.0  0.33332  0.85881  0.57734  1.0000
  C   C4029     1.0  0.36422  0.92422  0.50214  1.0000
  H   H3197     1.0  0.01970  0.76632  0.55395  1.0000
  C   C4030     1.0  0.46954  0.90825  0.60328  1.0000
  C   C4031     1.0  0.21630  0.92747  0.53013  1.0000
  H   H3198     1.0  0.33673  0.92351  0.64329  1.0000
  C   C4032     1.0  0.29309  0.96302  0.53023  1.0000
  S   S545      1.0  0.38848  0.88789  0.68261  1.0000
  P   P134      1.0  0.48023  0.91141  0.57382  1.0000
  C   C4033     1.0  0.20089  0.98531  0.57726  1.0000
  C   C4034     1.0  0.09413  0.87608  0.48866  1.0000
  C   C4035     1.0  0.22479  0.98341  0.58807  1.0000
  C   C4036     1.0  0.11291  0.94662  0.49274  1.0000
  C   C4037     1.0  0.09176  0.95670  0.52484  1.0000
  C   C4038     1.0  0.47038  0.91748  0.55968  1.0000
  C   C4039     1.0  0.26060  0.97536  0.60703  1.0000
  C   C4040     1.0  0.26255  0.96046  0.60980  1.0000
  C   C4041     1.0  0.35155  0.98196  0.57137  1.0000
  C   C4042     1.0  0.25970  0.95260  0.62384  1.0000
  H   H3199     1.0  0.29123  0.98046  0.71783  1.0000
  C   C4043     1.0  0.49917  0.84116  0.70514  1.0000
  C   C4044     1.0  0.04997  0.76517  0.59849  1.0000
  H   H3200     1.0  0.38050  0.97157  0.66669  1.0000
  C   C4045     1.0  0.21443  0.78045  0.56121  1.0000
  H   H3201     1.0  0.38647  0.83970  0.62146  1.0000
  H   H3202     1.0  0.40796  0.81983  0.61828  1.0000
  C   C4046     1.0  0.42817  0.86232  0.68635  1.0000
  C   C4047     1.0  0.40070  0.87644  0.73131  1.0000
  H   H3203     1.0  0.16891  0.76733  0.50795  1.0000
  H   H3204     1.0  0.28397  0.95098  0.50229  1.0000
  C   C4048     1.0  0.45880  0.88823  0.69384  1.0000
  H   H3205     1.0  0.32003  0.91550  0.48787  1.0000
  H   H3206     1.0  0.31596  0.85361  0.65940  1.0000
  H   H3207     1.0  0.16351  0.97913  0.49384  1.0000
  H   H3208     1.0  0.09497  0.75311  0.52415  1.0000
  H   H3209     1.0  0.36823  0.96103  0.63829  1.0000
  C   C4049     1.0  0.35654  0.83540  0.64765  1.0000
  C   C4050     1.0  0.12298  0.96718  0.48932  1.0000
  H   H3210     1.0  0.47093  0.91327  0.70171  1.0000
  C   C4051     1.0  0.30015  0.85367  0.52117  1.0000
  C   C4052     1.0  0.29741  0.83149  0.51795  1.0000
  C   C4053     1.0  0.45633  0.92618  0.56192  1.0000
  H   H3211     1.0  0.39669  0.95145  0.59451  1.0000
  H   H3212     1.0  0.16940  0.97968  0.55831  1.0000
  C   C4054     1.0  0.10040  0.76955  0.58725  1.0000
  H   H3213     1.0  0.32682  0.97832  0.67164  1.0000
  C   C4055     1.0  0.41361  0.87874  0.72162  1.0000
  C   C4056     1.0  0.28992  0.90790  0.52754  1.0000
  H   H3214     1.0  0.49328  0.87630  0.63101  1.0000
  C   C4057     1.0  0.07105  0.78541  0.57618  1.0000
  Fe  Fe273     1.0  0.08510  0.81439  0.49969  1.0000
  C   C4058     1.0  0.37475  0.96371  0.59901  1.0000
  S   S546      1.0  0.19649  0.76316  0.56235  1.0000
  H   H3215     1.0  0.27863  0.90698  0.54958  1.0000
  H   H3216     1.0  0.15115  0.81656  0.49395  1.0000
  H   H3217     1.0  0.07034  0.78603  0.59781  1.0000
  C   C4059     1.0  0.08600  0.95813  0.53904  1.0000
  H   H3218     1.0  0.22320  0.77162  0.55852  1.0000
  Fe  Fe274     1.0  0.37086  0.90744  0.67728  1.0000
  C   C4060     1.0  0.19692  0.91242  0.55210  1.0000
  H   H3219     1.0  0.30469  0.91981  0.66315  1.0000
  H   H3220     1.0  0.42876  0.91558  0.69589  1.0000
  H   H3221     1.0  0.31190  0.96146  0.53793  1.0000
  H   H3222     1.0  0.48766  0.90762  0.54408  1.0000
  C   C4061     1.0  0.21368  0.92535  0.57400  1.0000
  H   H3223     1.0  0.43809  0.93848  0.55255  1.0000
  H   H3224     1.0  0.45447  0.97675  0.69364  1.0000
  C   C4062     1.0  0.41132  0.96655  0.70180  1.0000
  H   H3225     1.0  0.02448  0.78922  0.48916  1.0000
  C   C4063     1.0  0.46826  0.89452  0.69702  1.0000
  C   C4064     1.0  0.10163  0.75679  0.54124  1.0000
  P   P135      1.0  0.29433  0.88023  0.50242  1.0000
  C   C4065     1.0  0.12666  0.84998  0.49187  1.0000
  C   C4066     1.0  0.29574  0.86111  0.50837  1.0000
  C   C4067     1.0  0.39835  0.97550  0.69864  1.0000
  C   C4068     1.0  0.22945  0.92810  0.50118  1.0000
  H   H3226     1.0  0.02758  0.74433  0.49269  1.0000
  H   H3227     1.0  0.35397  0.97751  0.60516  1.0000
  C   C4069     1.0  0.22252  0.92097  0.58390  1.0000
  H   H3228     1.0  0.17144  0.92813  0.49282  1.0000
  C   C4070     1.0  0.35960  0.95790  0.64713  1.0000
  S   S547      1.0  0.36632  0.91314  0.69858  1.0000
  C   C4071     1.0  0.38921  0.97221  0.65723  1.0000
  H   H3229     1.0  0.30520  0.98739  0.54640  1.0000
  C   C4072     1.0  0.06734  0.95872  0.52231  1.0000
  C   C4073     1.0  0.42404  0.85311  0.69942  1.0000
  S   S548      1.0  0.40155  0.90853  0.69466  1.0000
  P   P136      1.0  0.07689  0.76609  0.57914  1.0000
  H   H3230     1.0  0.18565  0.92318  0.53496  1.0000
  C   C4074     1.0  0.07776  0.77283  0.50287  1.0000
  C   C4075     1.0  0.03913  0.75817  0.60752  1.0000
  H   H3231     1.0  0.41384  0.88250  0.71038  1.0000
  H   H3232     1.0  0.31121  0.95739  0.49613  1.0000
  C   C4076     1.0  0.24179  0.90880  0.56744  1.0000
  S   S549      1.0  0.06721  0.86840  0.49785  1.0000
  H   H3233     1.0  0.24632  0.82577  0.49084  1.0000
  H   H3234     1.0  0.45513  0.95075  0.69008  1.0000
  H   H3235     1.0  0.45618  0.89672  0.58164  1.0000
  H   H3236     1.0  0.21564  0.97227  0.56322  1.0000
  Fe  Fe275     1.0  0.38516  0.89483  0.70313  1.0000
  H   H3237     1.0  0.46158  0.90563  0.62594  1.0000
  Fe  Fe276     1.0  0.46849  0.98047  0.61759  1.0000
  C   C4077     1.0  0.40437  0.94640  0.69830  1.0000
  H   H3238     1.0  0.40676  0.93520  0.69810  1.0000
  C   C4078     1.0  0.44930  0.91592  0.69911  1.0000
  H   H3239     1.0  0.20092  0.82190  0.49270  1.0000
  C   C4079     1.0  0.46920  0.91943  0.53524  1.0000
  C   C4080     1.0  0.06868  0.79226  0.58738  1.0000
  H   H3240     1.0  0.14145  0.94045  0.51025  1.0000
  H   H3241     1.0  0.27893  0.93298  0.66771  1.0000
  H   H3242     1.0  0.44564  0.97799  0.55869  1.0000
  S   S550      1.0  0.06635  0.82839  0.51171  1.0000
  C   C4081     1.0  0.41436  0.95200  0.70154  1.0000
  H   H3243     1.0  0.12507  0.77752  0.48959  1.0000
  H   H3244     1.0  0.27168  0.95372  0.67925  1.0000
  C   C4082     1.0  0.30420  0.96693  0.70329  1.0000
  H   H3245     1.0  0.13716  0.95711  0.52574  1.0000
  C   C4083     1.0  0.02768  0.87595  0.50158  1.0000
  C   C4084     1.0  0.38829  0.96986  0.69564  1.0000
  C   C4085     1.0  0.46816  0.90582  0.59064  1.0000
  C   C4086     1.0  0.30142  0.92866  0.66849  1.0000
  H   H3246     1.0  0.20704  0.89832  0.56922  1.0000
  C   C4087     1.0  0.28101  0.97849  0.56998  1.0000
  C   C4088     1.0  0.06218  0.75768  0.59013  1.0000
  C   C4089     1.0  0.47680  0.91418  0.54621  1.0000
  S   S551      1.0  0.42349  0.97331  0.70665  1.0000
  H   H3247     1.0  0.20684  0.94997  0.52261  1.0000
  H   H3248     1.0  0.30040  0.95750  0.70998  1.0000
  C   C4090     1.0  0.30183  0.98618  0.50898  1.0000
  C   C4091     1.0  0.18376  0.88981  0.55523  1.0000
  H   H3249     1.0  0.26166  0.94101  0.62596  1.0000
  H   H3250     1.0  0.37216  0.95290  0.66304  1.0000
  C   C4092     1.0  0.27546  0.95233  0.49683  1.0000
  H   H3251     1.0  0.29382  0.78524  0.49824  1.0000
  H   H3252     1.0  0.28984  0.96099  0.68658  1.0000
  C   C4093     1.0  0.35039  0.95013  0.67256  1.0000
  C   C4094     1.0  0.33522  0.92981  0.72232  1.0000
  C   C4095     1.0  0.45684  0.94474  0.71206  1.0000
  H   H3253     1.0  0.44525  0.94833  0.71595  1.0000
  C   C4096     1.0  0.48664  0.93558  0.70153  1.0000
  C   C4097     1.0  0.12129  0.93786  0.52550  1.0000
  C   C4098     1.0  0.36174  0.95355  0.66106  1.0000
  C   C4099     1.0  0.45523  0.92813  0.53757  1.0000
  H   H3254     1.0  0.41549  0.92551  0.73215  1.0000
  C   C4100     1.0  0.17640  0.96954  0.55631  1.0000
  H   H3255     1.0  0.17473  0.79101  0.50384  1.0000
  C   C4101     1.0  0.44450  0.89596  0.69342  1.0000
  C   C4102     1.0  0.46611  0.93857  0.72163  1.0000
  C   C4103     1.0  0.48107  0.93397  0.71628  1.0000
  C   C4104     1.0  0.21887  0.92160  0.56063  1.0000
  H   H3256     1.0  0.19547  0.87857  0.57179  1.0000
  C   C4105     1.0  0.33147  0.93987  0.71027  1.0000
  P   P137      1.0  0.11111  0.95505  0.51760  1.0000
  C   C4106     1.0  0.44105  0.86703  0.68325  1.0000
  H   H3257     1.0  0.06263  0.81239  0.59382  1.0000
  H   H3258     1.0  0.34446  0.96177  0.63387  1.0000
  H   H3259     1.0  0.32451  0.95557  0.65398  1.0000
  H   H3260     1.0  0.40567  0.95828  0.66822  1.0000
  H   H3261     1.0  0.45571  0.96780  0.58052  1.0000
  H   H3262     1.0  0.24291  0.95907  0.51596  1.0000
  H   H3263     1.0  0.15878  0.95886  0.56154  1.0000
  H   H3264     1.0  0.39591  0.98673  0.69885  1.0000
  C   C4107     1.0  0.33065  0.91124  0.71412  1.0000
  H   H3265     1.0  0.25553  0.74130  0.54315  1.0000
  H   H3266     1.0  0.24324  0.90874  0.58849  1.0000
  C   C4108     1.0  0.29322  0.95179  0.68180  1.0000
  H   H3267     1.0  0.48027  0.89231  0.66919  1.0000
  H   H3268     1.0  0.17396  0.90330  0.53794  1.0000
  H   H3269     1.0  0.14416  0.90132  0.54217  1.0000
  C   C4109     1.0  0.39957  0.91673  0.72856  1.0000
  C   C4110     1.0  0.31180  0.93280  0.67256  1.0000
  H   H3270     1.0  0.06357  0.81509  0.54997  1.0000
  C   C4111     1.0  0.37832  0.92629  0.49592  1.0000
  C   C4112     1.0  0.44979  0.86276  0.69329  1.0000
  C   C4113     1.0  0.31006  0.97860  0.51928  1.0000
  H   H3271     1.0  0.04874  0.77634  0.59821  1.0000
  H   H3272     1.0  0.21208  0.95442  0.54579  1.0000
  C   C4114     1.0  0.06237  0.81538  0.57173  1.0000
  C   C4115     1.0  0.37971  0.94219  0.73406  1.0000
  C   C4116     1.0  0.35916  0.97014  0.72443  1.0000
  H   H3273     1.0  0.11418  0.81929  0.50398  1.0000
  H   H3274     1.0  0.25256  0.90207  0.56517  1.0000
  H   H3275     1.0  0.28975  0.85881  0.49002  1.0000
  C   C4117     1.0  0.32701  0.93577  0.70013  1.0000
  H   H3276     1.0  0.00233  0.74680  0.50642  1.0000
  C   C4118     1.0  0.30779  0.94423  0.67946  1.0000
  C   C4119     1.0  0.18095  0.90242  0.54494  1.0000
  H   H3277     1.0  0.07666  0.91415  0.49592  1.0000
  C   C4120     1.0  0.46441  0.98000  0.68725  1.0000
  H   H3278     1.0  0.10320  0.93139  0.54210  1.0000
  H   H3279     1.0  0.23799  0.90552  0.50810  1.0000
  H   H3280     1.0  0.32399  0.91760  0.69431  1.0000
  C   C4121     1.0  0.18758  0.91364  0.54329  1.0000
  C   C4122     1.0  0.07250  0.75961  0.55560  1.0000
  C   C4123     1.0  0.32683  0.92129  0.70209  1.0000
  H   H3281     1.0  0.20268  0.93143  0.57693  1.0000
  C   C4124     1.0  0.19307  0.88849  0.56402  1.0000
  C   C4125     1.0  0.34622  0.95834  0.64463  1.0000
  C   C4126     1.0  0.28929  0.98188  0.50935  1.0000
  H   H3282     1.0  0.03123  0.75469  0.57469  1.0000
  C   C4127     1.0  0.26216  0.79217  0.50629  1.0000
  C   C4128     1.0  0.02064  0.88841  0.49339  1.0000
  C   C4129     1.0  0.00561  0.78101  0.50115  1.0000
  H   H3283     1.0  0.33075  0.90006  0.71539  1.0000
  C   C4130     1.0  0.24501  0.97341  0.52746  1.0000
  C   C4131     1.0  0.47023  0.97711  0.67364  1.0000
  C   C4132     1.0  0.00937  0.81971  0.49524  1.0000
  H   H3284     1.0  0.06672  0.96073  0.55583  1.0000
  C   C4133     1.0  0.39437  0.93980  0.73462  1.0000
  H   H3285     1.0  0.44905  0.91987  0.72609  1.0000
  H   H3286     1.0  0.46678  0.98937  0.70310  1.0000
  C   C4134     1.0  0.10653  0.98293  0.52088  1.0000
  H   H3287     1.0  0.15934  0.74405  0.49911  1.0000
  H   H3288     1.0  0.31442  0.97956  0.60879  1.0000
  H   H3289     1.0  0.17015  0.82712  0.49569  1.0000
  C   C4135     1.0  0.48815  0.87509  0.64226  1.0000
  C   C4136     1.0  0.33480  0.91549  0.72426  1.0000
  H   H3290     1.0  0.48258  0.85518  0.64402  1.0000
  H   H3291     1.0  0.26302  0.98133  0.59615  1.0000
  C   C4137     1.0  0.38291  0.96340  0.49412  1.0000
  C   C4138     1.0  0.36261  0.98936  0.56818  1.0000
  H   H3292     1.0  0.40720  0.90694  0.72641  1.0000
  H   H3293     1.0  0.26620  0.87441  0.50393  1.0000
  H   H3294     1.0  0.24665  0.98540  0.54142  1.0000
  C   C4139     1.0  0.02387  0.82060  0.49289  1.0000
  H   H3295     1.0  0.48674  0.97977  0.65449  1.0000
  C   C4140     1.0  0.28048  0.88892  0.49223  1.0000
  H   H3296     1.0  0.23432  0.92826  0.49002  1.0000
  H   H3297     1.0  0.48375  0.87998  0.58415  1.0000
  H   H3298     1.0  0.41379  0.84988  0.70207  1.0000
  C   C4141     1.0  0.02182  0.75452  0.49532  1.0000
  C   C4142     1.0  0.02777  0.86255  0.49977  1.0000
  H   H3299     1.0  0.46496  0.86820  0.71971  1.0000
  C   C4143     1.0  0.07295  0.89373  0.49663  1.0000
  H   H3300     1.0  0.03339  0.85286  0.50596  1.0000
  C   C4144     1.0  0.11579  0.95654  0.49851  1.0000
  C   C4145     1.0  0.48365  0.85204  0.72453  1.0000
  H   H3301     1.0  0.28262  0.98778  0.50171  1.0000
  H   H3302     1.0  0.09628  0.98491  0.51787  1.0000
  C   C4146     1.0  0.11587  0.75063  0.60096  1.0000
  H   H3303     1.0  0.31983  0.98151  0.51929  1.0000
  H   H3304     1.0  0.18850  0.74557  0.50836  1.0000
  C   C4147     1.0  0.05875  0.76832  0.48912  1.0000
  H   H3305     1.0  0.08614  0.95659  0.50538  1.0000
  C   C4148     1.0  0.16555  0.96805  0.49358  1.0000
  C   C4149     1.0  0.48258  0.98196  0.66506  1.0000
  C   C4150     1.0  0.09665  0.89970  0.48885  1.0000
  H   H3306     1.0  0.32749  0.98437  0.55470  1.0000
  C   C4151     1.0  0.02836  0.76637  0.49064  1.0000
  C   C4152     1.0  0.26786  0.88366  0.49535  1.0000
  H   H3307     1.0  0.38147  0.91082  0.72548  1.0000
  C   C4153     1.0  0.47129  0.98721  0.69253  1.0000
  H   H3308     1.0  0.02081  0.89879  0.49465  1.0000
  H   H3309     1.0  0.12519  0.74699  0.60583  1.0000
  C   C4154     1.0  0.12384  0.83708  0.49171  1.0000
  H   H3310     1.0  0.24451  0.75090  0.48856  1.0000
  H   H3311     1.0  0.49203  0.89277  0.73076  1.0000
  C   C4155     1.0  0.08332  0.76606  0.49141  1.0000
  C   C4156     1.0  0.50149  0.89495  0.73256  1.0000
  H   H3312     1.0  0.33808  0.90760  0.73339  1.0000
  C   C4157     1.0  0.37119  0.98390  0.60945  1.0000
  H   H3313     1.0  0.37281  0.98616  0.56099  1.0000
  C   C4158     1.0  0.39751  0.98150  0.63187  1.0000
  S   S552      1.0  0.14611  0.88614  0.48678  1.0000
  H   H3314     1.0  0.34061  0.80898  0.50146  1.0000
  H   H3315     1.0  0.24747  0.88615  0.48996  1.0000
  C   C4159     1.0  0.24358  0.80627  0.48750  1.0000
  C   C4160     1.0  0.49961  0.92203  0.58143  1.0000
  C   C4161     1.0  0.29906  0.78928  0.48731  1.0000
  C   C4162     1.0  0.26835  0.96609  0.49089  1.0000
  H   H3316     1.0  0.11880  0.77227  0.59300  1.0000
  C   C4163     1.0  0.09590  0.74561  0.59498  1.0000
  H   H3317     1.0  0.42036  0.98430  0.65771  1.0000
  C   C4164     1.0  0.06311  0.74325  0.59067  1.0000
  C   C4165     1.0  0.48918  0.98979  0.67005  1.0000
  H   H3318     1.0  0.09499  0.76275  0.48773  1.0000
  H   H3319     1.0  0.27523  0.98815  0.63321  1.0000
  H   H3320     1.0  0.18090  0.87414  0.48733  1.0000
  H   H3321     1.0  0.44130  0.98934  0.73052  1.0000
  H   H3322     1.0  0.25856  0.93264  0.48687  1.0000
  H   H3323     1.0  0.36109  0.98938  0.72927  1.0000
  C   C4166     1.0  0.34567  0.98948  0.70298  1.0000
  C   C4167     1.0  0.22157  0.97876  0.48639  1.0000
  H   H3324     1.0  0.09887  0.86551  0.48649  1.0000
  H   H3325     1.0  0.48102  0.85272  0.73563  1.0000
  H   H3326     1.0  0.13952  0.74140  0.49005  1.0000
  C   C4168     1.0  0.20733  0.97923  0.48601  1.0000
  H   H3327     1.0  0.43773  0.89908  0.73500  1.0000
  C   C4169     1.0  0.35810  0.96288  0.48593  1.0000
  C   C4170     1.0  0.10297  0.88592  0.48618  1.0000
  S   S553      1.0  0.10675  0.91270  0.48610  1.0000
  C   C4171     1.0  0.21107  0.99111  0.59369  1.0000
  C   C4172     1.0  0.45082  0.88521  0.88198  1.0000
  H   H3328     1.0  0.49097  0.76413  0.84828  1.0000
  H   H3329     1.0  0.50077  0.77217  0.89653  1.0000
  S   S554      1.0  0.47210  0.77312  0.95128  1.0000
  C   C4173     1.0  0.47558  0.98443  0.78383  1.0000
  S   S555      1.0  0.48104  0.84024  0.94101  1.0000
  C   C4174     1.0  0.40515  0.78988  0.85267  1.0000
  S   S556      1.0  0.47685  0.80287  0.96656  1.0000
  C   C4175     1.0  0.33707  0.95905  0.75267  1.0000
  Fe  Fe277     1.0  0.48991  0.81686  0.94910  1.0000
  S   S557      1.0  0.47697  0.88057  0.84793  1.0000
  C   C4176     1.0  0.50108  0.95368  0.87223  1.0000
  C   C4177     1.0  0.45205  0.97254  0.85460  1.0000
  H   H3330     1.0  0.46022  0.75632  0.94034  1.0000
  S   S558      1.0  0.44384  0.86516  0.74527  1.0000
  H   H3331     1.0  0.43714  0.79063  0.89208  1.0000
  H   H3332     1.0  0.48241  0.83442  0.97576  1.0000
  H   H3333     1.0  0.49865  0.93558  0.90511  1.0000
  C   C4178     1.0  0.38548  0.97379  0.73905  1.0000
  H   H3334     1.0  0.31449  0.95992  0.76290  1.0000
  H   H3335     1.0  0.47663  0.85873  0.89611  1.0000
  H   H3336     1.0  0.46192  0.96632  0.85807  1.0000
  C   C4179     1.0  0.45151  0.97591  0.84013  1.0000
  C   C4180     1.0  0.49839  0.79768  0.85175  1.0000
  C   C4181     1.0  0.45427  0.89435  0.95770  1.0000
  H   H3337     1.0  0.37046  0.97619  0.77873  1.0000
  H   H3338     1.0  0.43139  0.81251  0.92153  1.0000
  S   S559      1.0  0.46635  0.77738  0.88889  1.0000
  C   C4182     1.0  0.46378  0.81332  0.86199  1.0000
  S   S560      1.0  0.43925  0.76684  0.84174  1.0000
  C   C4183     1.0  0.39154  0.98105  0.74512  1.0000
  Fe  Fe278     1.0  0.49738  0.79375  0.97469  1.0000
  Fe  Fe279     1.0  0.46417  0.87024  0.78301  1.0000
  S   S561      1.0  0.47223  0.86492  0.76158  1.0000
  S   S562      1.0  0.46848  0.89028  0.78549  1.0000
  Fe  Fe280     1.0  0.45360  0.84263  0.79657  1.0000
  S   S563      1.0  0.46078  0.83494  0.77602  1.0000
  S   S564      1.0  0.44473  0.83158  0.81923  1.0000
  Fe  Fe281     1.0  0.48093  0.84280  0.77297  1.0000
  H   H3339     1.0  0.49689  0.98912  0.84535  1.0000
  Fe  Fe282     1.0  0.45134  0.85780  0.76605  1.0000
  H   H3340     1.0  0.39840  0.94751  0.73721  1.0000
  S   S565      1.0  0.47460  0.84865  0.79423  1.0000
  S   S566      1.0  0.44247  0.86504  0.78684  1.0000
  C   C4184     1.0  0.44289  0.78415  0.83503  1.0000
  C   C4185     1.0  0.44277  0.79222  0.84442  1.0000
  C   C4186     1.0  0.44352  0.80669  0.83932  1.0000
  C   C4187     1.0  0.44518  0.81303  0.82471  1.0000
  C   C4188     1.0  0.44616  0.80475  0.81515  1.0000
  C   C4189     1.0  0.44472  0.79041  0.82035  1.0000
  H   H3341     1.0  0.44129  0.78748  0.85572  1.0000
  H   H3342     1.0  0.44237  0.81314  0.84674  1.0000
  H   H3343     1.0  0.44730  0.80958  0.80387  1.0000
  H   H3344     1.0  0.44468  0.78426  0.81304  1.0000
  H   H3345     1.0  0.48840  0.85338  0.81546  1.0000
  H   H3346     1.0  0.43771  0.98614  0.82497  1.0000
  C   C4190     1.0  0.44483  0.87707  0.87682  1.0000
  S   S567      1.0  0.49764  0.80168  0.93434  1.0000
  C   C4191     1.0  0.41391  0.86745  0.75059  1.0000
  H   H3347     1.0  0.47430  0.88784  0.93272  1.0000
  H   H3348     1.0  0.44627  0.90241  0.95249  1.0000
  H   H3349     1.0  0.41406  0.86288  0.76173  1.0000
  H   H3350     1.0  0.45855  0.91367  0.83224  1.0000
  H   H3351     1.0  0.49683  0.86907  0.94873  1.0000
  C   C4192     1.0  0.40086  0.87079  0.74585  1.0000
  C   C4193     1.0  0.47455  0.97525  0.79739  1.0000
  C   C4194     1.0  0.42612  0.84061  0.85755  1.0000
  H   H3352     1.0  0.40461  0.77886  0.85785  1.0000
  C   C4195     1.0  0.47643  0.88771  0.96634  1.0000
  H   H3353     1.0  0.48129  0.91313  0.88989  1.0000
  H   H3354     1.0  0.45803  0.75767  0.91581  1.0000
  C   C4196     1.0  0.49678  0.98050  0.84082  1.0000
  C   C4197     1.0  0.45299  0.88007  0.96211  1.0000
  C   C4198     1.0  0.37473  0.97540  0.76768  1.0000
  C   C4199     1.0  0.47475  0.88345  0.83051  1.0000
  C   C4200     1.0  0.48129  0.89327  0.81930  1.0000
  C   C4201     1.0  0.47893  0.89573  0.80554  1.0000
  C   C4202     1.0  0.47055  0.88793  0.80287  1.0000
  C   C4203     1.0  0.46411  0.87805  0.81405  1.0000
  C   C4204     1.0  0.46600  0.87600  0.82791  1.0000
  H   H3355     1.0  0.48799  0.89908  0.82127  1.0000
  H   H3356     1.0  0.48391  0.90339  0.79692  1.0000
  H   H3357     1.0  0.45759  0.87204  0.81204  1.0000
  H   H3358     1.0  0.46087  0.86849  0.83658  1.0000
  S   S568      1.0  0.46706  0.75519  0.86360  1.0000
  H   H3359     1.0  0.49236  0.85133  0.86925  1.0000
  C   C4205     1.0  0.47901  0.91946  0.75663  1.0000
  C   C4206     1.0  0.43848  0.98369  0.83601  1.0000
  H   H3360     1.0  0.48971  0.95881  0.87284  1.0000
  C   C4207     1.0  0.46040  0.92421  0.83105  1.0000
  H   H3361     1.0  0.50061  0.83003  0.82774  1.0000
  C   C4208     1.0  0.40772  0.79407  0.83780  1.0000
  H   H3362     1.0  0.44406  0.87702  0.96026  1.0000
  H   H3363     1.0  0.38972  0.74182  0.96074  1.0000
  C   C4209     1.0  0.46806  0.98082  0.80969  1.0000
  S   S569      1.0  0.49425  0.89191  0.87131  1.0000
  H   H3364     1.0  0.41106  0.86982  0.82710  1.0000
  H   H3365     1.0  0.42206  0.79439  0.91562  1.0000
  C   C4210     1.0  0.45603  0.93554  0.82012  1.0000
  H   H3366     1.0  0.47928  0.86679  0.92001  1.0000
  C   C4211     1.0  0.46934  0.77499  0.93419  1.0000
  C   C4212     1.0  0.47325  0.78622  0.92300  1.0000
  C   C4213     1.0  0.47206  0.78697  0.90919  1.0000
  C   C4214     1.0  0.46678  0.77657  0.90651  1.0000
  C   C4215     1.0  0.46229  0.76562  0.91779  1.0000
  C   C4216     1.0  0.46354  0.76486  0.93164  1.0000
  H   H3367     1.0  0.47736  0.79425  0.92492  1.0000
  H   H3368     1.0  0.47565  0.79541  0.90055  1.0000
  C   C4217     1.0  0.40559  0.81129  0.90678  1.0000
  H   H3369     1.0  0.42044  0.98932  0.75115  1.0000
  C   C4218     1.0  0.47618  0.90046  0.91123  1.0000
  C   C4219     1.0  0.42486  0.96622  0.75804  1.0000
  H   H3370     1.0  0.47548  0.91028  0.75617  1.0000
  H   H3371     1.0  0.47479  0.98919  0.83862  1.0000
  C   C4220     1.0  0.46435  0.82860  0.91691  1.0000
  C   C4221     1.0  0.40917  0.80806  0.83100  1.0000
  H   H3372     1.0  0.45422  0.95796  0.81062  1.0000
  H   H3373     1.0  0.39093  0.86889  0.75342  1.0000
  C   C4222     1.0  0.43929  0.90402  0.76670  1.0000
  C   C4223     1.0  0.41859  0.80090  0.90598  1.0000
  C   C4224     1.0  0.44943  0.92177  0.74702  1.0000
  H   H3374     1.0  0.40977  0.82843  0.83340  1.0000
  S   S570      1.0  0.49467  0.93212  0.86509  1.0000
  P   P138      1.0  0.45861  0.93656  0.74061  1.0000
  C   C4225     1.0  0.42678  0.86980  0.74075  1.0000
  C   C4226     1.0  0.45826  0.94917  0.81875  1.0000
  C   C4227     1.0  0.42259  0.80676  0.88021  1.0000
  H   H3375     1.0  0.46634  0.89867  0.90991  1.0000
  C   C4228     1.0  0.37994  0.84839  0.87268  1.0000
  C   C4229     1.0  0.49824  0.79615  0.86608  1.0000
  H   H3376     1.0  0.47333  0.83334  0.91594  1.0000
  C   C4230     1.0  0.47264  0.74581  0.82418  1.0000
  C   C4231     1.0  0.47492  0.87343  0.97130  1.0000
  H   H3377     1.0  0.45072  0.93377  0.81286  1.0000
  P   P139      1.0  0.46936  0.83657  0.88726  1.0000
  C   C4232     1.0  0.49312  0.89709  0.92595  1.0000
  H   H3378     1.0  0.40193  0.79617  0.87227  1.0000
  H   H3379     1.0  0.36508  0.93161  0.76179  1.0000
  H   H3380     1.0  0.34465  0.92234  0.77915  1.0000
  H   H3381     1.0  0.38803  0.85381  0.87273  1.0000
  C   C4233     1.0  0.44063  0.81695  0.92018  1.0000
  Fe  Fe283     1.0  0.44428  0.75607  0.86346  1.0000
  H   H3382     1.0  0.40046  0.98600  0.73868  1.0000
  H   H3383     1.0  0.44318  0.82414  0.89749  1.0000
  H   H3384     1.0  0.46532  0.74282  0.96772  1.0000
  C   C4234     1.0  0.38608  0.98201  0.75938  1.0000
  C   C4235     1.0  0.42753  0.97922  0.74912  1.0000
  C   C4236     1.0  0.48353  0.96903  0.83191  1.0000
  H   H3385     1.0  0.44044  0.97490  0.87583  1.0000
  C   C4237     1.0  0.49471  0.74459  0.83110  1.0000
  C   C4238     1.0  0.46939  0.94004  0.83918  1.0000
  C   C4239     1.0  0.35459  0.84797  0.87658  1.0000
  C   C4240     1.0  0.45036  0.86228  0.87851  1.0000
  H   H3386     1.0  0.47369  0.95578  0.74537  1.0000
  C   C4241     1.0  0.41311  0.84030  0.85456  1.0000
  H   H3387     1.0  0.41039  0.74166  0.93962  1.0000
  H   H3388     1.0  0.42922  0.80472  0.87005  1.0000
  C   C4242     1.0  0.46702  0.82191  0.84832  1.0000
  P   P140      1.0  0.48820  0.86003  0.98015  1.0000
  H   H3389     1.0  0.46215  0.85862  0.97200  1.0000
  H   H3390     1.0  0.43403  0.87015  0.83247  1.0000
  C   C4243     1.0  0.36520  0.85487  0.87641  1.0000
  H   H3391     1.0  0.39079  0.82716  0.89518  1.0000
  C   C4244     1.0  0.42712  0.79874  0.89269  1.0000
  H   H3392     1.0  0.46720  0.90917  0.95601  1.0000
  C   C4245     1.0  0.44752  0.82336  0.90654  1.0000
  H   H3393     1.0  0.46668  0.81854  0.83907  1.0000
  C   C4246     1.0  0.37344  0.82805  0.86936  1.0000
  H   H3394     1.0  0.44559  0.85611  0.87451  1.0000
  H   H3395     1.0  0.49052  0.79387  0.84895  1.0000
  H   H3396     1.0  0.50177  0.85692  0.77245  1.0000
  H   H3397     1.0  0.34317  0.85299  0.87947  1.0000
  H   H3398     1.0  0.35050  0.82917  0.87327  1.0000
  H   H3399     1.0  0.39897  0.81294  0.91710  1.0000
  C   C4247     1.0  0.48464  0.90853  0.89994  1.0000
  H   H3400     1.0  0.49579  0.94911  0.82570  1.0000
  C   C4248     1.0  0.46445  0.81763  0.87388  1.0000
  C   C4249     1.0  0.35143  0.95107  0.75216  1.0000
  C   C4250     1.0  0.43628  0.89810  0.75707  1.0000
  H   H3401     1.0  0.33475  0.96935  0.74543  1.0000
  H   H3402     1.0  0.39758  0.85109  0.84118  1.0000
  H   H3403     1.0  0.43177  0.94336  0.76245  1.0000
  C   C4251     1.0  0.43346  0.85150  0.84974  1.0000
  H   H3404     1.0  0.44678  0.89670  0.88037  1.0000
  H   H3405     1.0  0.48904  0.81321  0.90278  1.0000
  H   H3406     1.0  0.46111  0.80310  0.86337  1.0000
  H   H3407     1.0  0.47420  0.94167  0.84692  1.0000
  H   H3408     1.0  0.48562  0.89078  0.96760  1.0000
  C   C4252     1.0  0.40392  0.79969  0.86076  1.0000
  C   C4253     1.0  0.42806  0.86200  0.83878  1.0000
  C   C4254     1.0  0.44592  0.95317  0.74356  1.0000
  C   C4255     1.0  0.46540  0.95141  0.82800  1.0000
  C   C4256     1.0  0.46605  0.89815  0.95971  1.0000
  H   H3409     1.0  0.49031  0.79110  0.87438  1.0000
  H   H3410     1.0  0.40926  0.78628  0.83154  1.0000
  H   H3411     1.0  0.47325  0.84149  0.83594  1.0000
  C   C4257     1.0  0.40758  0.85111  0.84371  1.0000
  H   H3412     1.0  0.46690  0.88476  0.89300  1.0000
  C   C4258     1.0  0.41510  0.86181  0.83577  1.0000
  H   H3413     1.0  0.37637  0.81762  0.86677  1.0000
  H   H3414     1.0  0.47461  0.84925  0.85673  1.0000
  C   C4259     1.0  0.49716  0.84196  0.87643  1.0000
  C   C4260     1.0  0.40807  0.81787  0.83903  1.0000
  H   H3415     1.0  0.31931  0.93640  0.77977  1.0000
  C   C4261     1.0  0.46778  0.86375  0.89068  1.0000
  P   P141      1.0  0.40322  0.82651  0.86466  1.0000
  C   C4262     1.0  0.46219  0.87851  0.88904  1.0000
  C   C4263     1.0  0.47290  0.93341  0.74994  1.0000
  S   S571      1.0  0.43482  0.76267  0.88456  1.0000
  C   C4264     1.0  0.44582  0.91579  0.76173  1.0000
  C   C4265     1.0  0.48861  0.83283  0.88635  1.0000
  H   H3416     1.0  0.41567  0.96619  0.76708  1.0000
  C   C4266     1.0  0.47147  0.83922  0.85839  1.0000
  C   C4267     1.0  0.32826  0.94051  0.77211  1.0000
  H   H3417     1.0  0.41176  0.81112  0.81944  1.0000
  C   C4268     1.0  0.48960  0.91716  0.76434  1.0000
  C   C4269     1.0  0.49459  0.92867  0.76503  1.0000
  C   C4270     1.0  0.48890  0.94256  0.75806  1.0000
  C   C4271     1.0  0.47807  0.94494  0.75057  1.0000
  C   C4272     1.0  0.45743  0.82222  0.93050  1.0000
  C   C4273     1.0  0.40540  0.81379  0.85401  1.0000
  C   C4274     1.0  0.43983  0.97727  0.86474  1.0000
  C   C4275     1.0  0.40944  0.81704  0.88088  1.0000
  H   H3418     1.0  0.46250  0.81049  0.88422  1.0000
  C   C4276     1.0  0.49990  0.85119  0.81503  1.0000
  H   H3419     1.0  0.46126  0.82189  0.93976  1.0000
  C   C4277     1.0  0.38417  0.83500  0.86897  1.0000
  H   H3420     1.0  0.47885  0.96384  0.79827  1.0000
  P   P142      1.0  0.36637  0.95772  0.73924  1.0000
  C   C4278     1.0  0.48414  0.98043  0.83715  1.0000
  H   H3421     1.0  0.44841  0.91994  0.76939  1.0000
  H   H3422     1.0  0.43695  0.89923  0.77803  1.0000
  C   C4279     1.0  0.42629  0.98846  0.84618  1.0000
  Fe  Fe284     1.0  0.45804  0.76014  0.88524  1.0000
  P   P143      1.0  0.46709  0.96918  0.82725  1.0000
  C   C4280     1.0  0.46216  0.85561  0.88508  1.0000
  H   H3423     1.0  0.49376  0.90639  0.76996  1.0000
  H   H3424     1.0  0.48668  0.74455  0.94817  1.0000
  H   H3425     1.0  0.49272  0.95150  0.75863  1.0000
  C   C4281     1.0  0.32554  0.95375  0.76260  1.0000
  H   H3426     1.0  0.44060  0.81095  0.94266  1.0000
  C   C4282     1.0  0.44573  0.81618  0.93213  1.0000
  C   C4283     1.0  0.46800  0.83079  0.87221  1.0000
  Fe  Fe285     1.0  0.48613  0.78691  0.95261  1.0000
  H   H3427     1.0  0.43610  0.88227  0.87127  1.0000
  C   C4284     1.0  0.47089  0.83482  0.84653  1.0000
  H   H3428     1.0  0.47017  0.91772  0.84924  1.0000
  C   C4285     1.0  0.48056  0.89455  0.92415  1.0000
  C   C4286     1.0  0.34252  0.93260  0.77177  1.0000
  Fe  Fe286     1.0  0.49557  0.88819  0.84992  1.0000
  C   C4287     1.0  0.35408  0.93787  0.76188  1.0000
  H   H3429     1.0  0.49612  0.89260  0.93611  1.0000
  C   C4288     1.0  0.40100  0.81935  0.89428  1.0000
  C   C4289     1.0  0.49617  0.75771  0.82154  1.0000
  C   C4290     1.0  0.48618  0.76441  0.81273  1.0000
  C   C4291     1.0  0.47435  0.75856  0.81421  1.0000
  C   C4292     1.0  0.46328  0.86963  0.96885  1.0000
  C   C4293     1.0  0.43404  0.95324  0.75533  1.0000
  C   C4294     1.0  0.49753  0.91059  0.90152  1.0000
  H   H3430     1.0  0.49732  0.88464  0.75489  1.0000
  H   H3431     1.0  0.48033  0.98009  0.77436  1.0000
  C   C4295     1.0  0.35872  0.83456  0.87308  1.0000
  C   C4296     1.0  0.48999  0.86014  0.91728  1.0000
  H   H3432     1.0  0.41762  0.98919  0.86836  1.0000
  C   C4297     1.0  0.49313  0.79315  0.81643  1.0000
  C   C4298     1.0  0.49027  0.80791  0.81059  1.0000
  C   C4299     1.0  0.50147  0.81429  0.80147  1.0000
  H   H3433     1.0  0.44351  0.85167  0.85195  1.0000
  H   H3434     1.0  0.49620  0.96062  0.90540  1.0000
  C   C4300     1.0  0.49523  0.82071  0.89538  1.0000
  C   C4301     1.0  0.50007  0.86511  0.90507  1.0000
  C   C4302     1.0  0.49594  0.95799  0.82981  1.0000
  H   H3435     1.0  0.43143  0.88882  0.76090  1.0000
  H   H3436     1.0  0.36200  0.86524  0.87920  1.0000
  H   H3437     1.0  0.48733  0.77423  0.80485  1.0000
  H   H3438     1.0  0.46634  0.76403  0.80783  1.0000
  H   H3439     1.0  0.49722  0.87568  0.89861  1.0000
  H   H3440     1.0  0.43074  0.83244  0.86575  1.0000
  C   C4303     1.0  0.49367  0.84647  0.92580  1.0000
  C   C4304     1.0  0.46698  0.92648  0.84064  1.0000
  C   C4305     1.0  0.45985  0.82868  0.90475  1.0000
  C   C4306     1.0  0.42699  0.98532  0.86052  1.0000
  H   H3441     1.0  0.48436  0.78840  0.82364  1.0000
  H   H3442     1.0  0.47933  0.81437  0.81299  1.0000
  H   H3443     1.0  0.49937  0.82565  0.79676  1.0000
  C   C4307     1.0  0.43934  0.97925  0.73744  1.0000
  H   H3444     1.0  0.35999  0.96291  0.76835  1.0000
  H   H3445     1.0  0.46322  0.74152  0.82563  1.0000
  H   H3446     1.0  0.39061  0.98794  0.76394  1.0000
  H   H3447     1.0  0.49386  0.76279  0.87239  1.0000
  C   C4308     1.0  0.50168  0.90520  0.91466  1.0000
  C   C4309     1.0  0.44632  0.91572  0.73743  1.0000
  C   C4310     1.0  0.50146  0.76372  0.84982  1.0000
  C   C4311     1.0  0.37414  0.96702  0.74732  1.0000
  C   C4312     1.0  0.43982  0.90392  0.74245  1.0000
  C   C4313     1.0  0.36880  0.96788  0.76171  1.0000
  H   H3448     1.0  0.52267  0.06028  0.09440  1.0000
  S   S572      1.0  0.54328  0.00971  0.12173  1.0000
  C   C4314     1.0  0.54836  0.21092  0.11340  1.0000
  S   S573      1.0  0.55102  0.02303  0.14475  1.0000
  H   H3449     1.0  0.51491  0.09170  0.03412  1.0000
  Fe  Fe287     1.0  0.53481  0.01117  0.14474  1.0000
  H   H3450     1.0  0.52506  0.17548  0.15939  1.0000
  Fe  Fe288     1.0  0.56085  0.01963  0.12247  1.0000
  S   S574      1.0  0.57050  0.03632  0.10467  1.0000
  S   S575      1.0  0.59496  0.05825  0.23179  1.0000
  C   C4315     1.0  0.54460  0.13120  0.16786  1.0000
  Fe  Fe289     1.0  0.52014  0.14004  0.05909  1.0000
  S   S576      1.0  0.53361  0.14509  0.03693  1.0000
  Fe  Fe290     1.0  0.53106  0.10800  0.06206  1.0000
  S   S577      1.0  0.54534  0.11032  0.04011  1.0000
  S   S578      1.0  0.52565  0.08730  0.07572  1.0000
  Fe  Fe291     1.0  0.55114  0.12794  0.04588  1.0000
  S   S579      1.0  0.57435  0.13042  0.03850  1.0000
  Fe  Fe292     1.0  0.52661  0.12717  0.03323  1.0000
  S   S580      1.0  0.51704  0.13017  0.01430  1.0000
  S   S581      1.0  0.53823  0.12429  0.06848  1.0000
  H   H3451     1.0  0.58410  0.20956  0.08772  1.0000
  H   H3452     1.0  0.65060  0.21706  0.99095  1.0000
  S   S582      1.0  0.61505  0.05712  0.19965  1.0000
  H   H3453     1.0  0.53298  0.00981  0.17209  1.0000
  H   H3454     1.0  0.63679  0.21951  0.04192  1.0000
  S   S583      1.0  0.59979  0.04511  0.17443  1.0000
  C   C4316     1.0  0.53341  0.06512  0.19941  1.0000
  S   S584      1.0  0.59263  0.09615  0.20417  1.0000
  Fe  Fe293     1.0  0.59873  0.13765  0.12480  1.0000
  S   S585      1.0  0.58218  0.15571  0.13328  1.0000
  S   S586      1.0  0.60782  0.11587  0.13702  1.0000
  Fe  Fe294     1.0  0.59979  0.15294  0.09375  1.0000
  S   S587      1.0  0.58384  0.17242  0.09955  1.0000
  S   S588      1.0  0.60855  0.15175  0.07068  1.0000
  Fe  Fe295     1.0  0.59606  0.16962  0.11629  1.0000
  S   S589      1.0  0.59895  0.18955  0.12074  1.0000
  Fe  Fe296     1.0  0.57152  0.15700  0.11574  1.0000
  S   S590      1.0  0.54862  0.15837  0.11503  1.0000
  S   S591      1.0  0.61342  0.15135  0.10904  1.0000
  S   S592      1.0  0.58679  0.13766  0.10882  1.0000
  H   H3455     1.0  0.51939  0.15623  0.12122  1.0000
  H   H3456     1.0  0.56100  0.14163  0.98666  1.0000
  H   H3457     1.0  0.50686  0.16585  0.00118  1.0000
  C   C4317     1.0  0.62881  0.12071  0.16976  1.0000
  H   H3458     1.0  0.53502  0.05377  0.20426  1.0000
  H   H3459     1.0  0.53476  0.11742  0.20358  1.0000
  P   P144      1.0  0.55478  0.05010  0.04503  1.0000
  C   C4318     1.0  0.51173  0.23619  0.08673  1.0000
  C   C4319     1.0  0.53850  0.08833  0.19648  1.0000
  C   C4320     1.0  0.52380  0.22706  0.09172  1.0000
  H   H3460     1.0  0.50515  0.06269  0.07459  1.0000
  S   S593      1.0  0.57534  0.99469  0.17027  1.0000
  C   C4321     1.0  0.63512  0.21294  0.01088  1.0000
  C   C4322     1.0  0.50226  0.13678  0.18838  1.0000
  C   C4323     1.0  0.63084  0.06461  0.14908  1.0000
  C   C4324     1.0  0.65203  0.22337  0.02208  1.0000
  C   C4325     1.0  0.57311  0.11238  0.01095  1.0000
  H   H3461     1.0  0.58537  0.06246  0.10363  1.0000
  H   H3462     1.0  0.54667  0.16822  0.14049  1.0000
  H   H3463     1.0  0.53855  0.07162  0.11565  1.0000
  C   C4326     1.0  0.51590  0.17000  0.99373  1.0000
  H   H3464     1.0  0.56599  0.14323  0.18118  1.0000
  C   C4327     1.0  0.58156  0.22042  0.08914  1.0000
  H   H3465     1.0  0.51800  0.06482  0.18801  1.0000
  H   H3466     1.0  0.75875  0.17825  0.99208  1.0000
  C   C4328     1.0  0.52870  0.09472  0.18745  1.0000
  H   H3467     1.0  0.54785  0.06880  0.20988  1.0000
  Fe  Fe297     1.0  0.61268  0.04229  0.22132  1.0000
  C   C4329     1.0  0.61402  0.19722  0.11114  1.0000
  C   C4330     1.0  0.62678  0.18929  0.10405  1.0000
  C   C4331     1.0  0.63829  0.19593  0.09589  1.0000
  C   C4332     1.0  0.63704  0.21059  0.09465  1.0000
  H   H3468     1.0  0.56924  0.21970  0.06552  1.0000
  C   C4333     1.0  0.61308  0.21169  0.11048  1.0000
  H   H3469     1.0  0.62779  0.17802  0.10491  1.0000
  H   H3470     1.0  0.64809  0.18976  0.09035  1.0000
  C   C4334     1.0  0.57080  0.10539  0.99055  1.0000
  S   S594      1.0  0.57583  0.99864  0.12948  1.0000
  C   C4335     1.0  0.53437  0.16196  0.12953  1.0000
  C   C4336     1.0  0.54070  0.07361  0.20252  1.0000
  H   H3471     1.0  0.55971  0.16145  0.03957  1.0000
  H   H3472     1.0  0.52986  0.04775  0.06985  1.0000
  C   C4337     1.0  0.65794  0.08745  0.18982  1.0000
  C   C4338     1.0  0.56811  0.12674  0.00477  1.0000
  C   C4339     1.0  0.55556  0.03258  0.05689  1.0000
  C   C4340     1.0  0.59486  0.10215  0.18554  1.0000
  C   C4341     1.0  0.59902  0.09215  0.17698  1.0000
  C   C4342     1.0  0.60248  0.09661  0.16212  1.0000
  C   C4343     1.0  0.60153  0.11113  0.15562  1.0000
  C   C4344     1.0  0.59634  0.12131  0.16409  1.0000
  C   C4345     1.0  0.59324  0.11679  0.17909  1.0000
  H   H3473     1.0  0.59988  0.08089  0.18175  1.0000
  H   H3474     1.0  0.60576  0.08874  0.15565  1.0000
  H   H3475     1.0  0.59542  0.13257  0.15911  1.0000
  H   H3476     1.0  0.58997  0.12457  0.18568  1.0000
  C   C4346     1.0  0.58317  0.13608  0.04834  1.0000
  C   C4347     1.0  0.57653  0.13907  0.06189  1.0000
  C   C4348     1.0  0.58415  0.14387  0.06901  1.0000
  C   C4349     1.0  0.59841  0.14560  0.06258  1.0000
  C   C4350     1.0  0.60494  0.14250  0.04913  1.0000
  C   C4351     1.0  0.59739  0.13779  0.04208  1.0000
  H   H3477     1.0  0.56561  0.13762  0.06691  1.0000
  H   H3478     1.0  0.57901  0.14623  0.07942  1.0000
  H   H3479     1.0  0.61593  0.14379  0.04412  1.0000
  H   H3480     1.0  0.60261  0.13547  0.03165  1.0000
  C   C4352     1.0  0.52181  0.11523  0.00646  1.0000
  C   C4353     1.0  0.51298  0.11412  0.99821  1.0000
  H   H3481     1.0  0.51376  0.04995  0.23307  1.0000
  C   C4354     1.0  0.69348  0.23669  0.06433  1.0000
  C   C4355     1.0  0.53863  0.09349  0.00070  1.0000
  C   C4356     1.0  0.53459  0.10481  0.00780  1.0000
  C   C4357     1.0  0.62200  0.13514  0.16579  1.0000
  C   C4358     1.0  0.52242  0.01274  0.17886  1.0000
  H   H3482     1.0  0.54151  0.10560  0.01406  1.0000
  C   C4359     1.0  0.58196  0.00871  0.17164  1.0000
  C   C4360     1.0  0.58162  0.02127  0.16098  1.0000
  C   C4361     1.0  0.58684  0.03247  0.16214  1.0000
  C   C4362     1.0  0.59249  0.03118  0.17390  1.0000
  C   C4363     1.0  0.59276  0.01865  0.18466  1.0000
  C   C4364     1.0  0.58760  0.00735  0.18345  1.0000
  H   H3483     1.0  0.57759  0.02229  0.15169  1.0000
  H   H3484     1.0  0.58648  0.04214  0.15389  1.0000
  H   H3485     1.0  0.59728  0.01752  0.19368  1.0000
  H   H3486     1.0  0.55248  0.99875  0.05913  1.0000
  C   C4365     1.0  0.55810  0.05047  0.09656  1.0000
  C   C4366     1.0  0.56289  0.06241  0.08702  1.0000
  C   C4367     1.0  0.55301  0.07389  0.08059  1.0000
  C   C4368     1.0  0.53849  0.07317  0.08326  1.0000
  C   C4369     1.0  0.53385  0.06102  0.09244  1.0000
  C   C4370     1.0  0.54356  0.04981  0.09926  1.0000
  H   H3487     1.0  0.57417  0.06289  0.08475  1.0000
  H   H3488     1.0  0.55658  0.08333  0.07370  1.0000
  C   C4371     1.0  0.51815  0.08196  0.04179  1.0000
  H   H3489     1.0  0.53983  0.04060  0.10650  1.0000
  C   C4372     1.0  0.51857  0.19489  0.08666  1.0000
  H   H3490     1.0  0.53372  0.99185  0.21863  1.0000
  Fe  Fe298     1.0  0.59835  0.04770  0.19641  1.0000
  C   C4373     1.0  0.54137  0.05493  0.15989  1.0000
  C   C4374     1.0  0.55882  0.18276  0.08050  1.0000
  C   C4375     1.0  0.52391  0.07388  0.14854  1.0000
  H   H3491     1.0  0.54021  0.10149  0.13334  1.0000
  H   H3492     1.0  0.62617  0.11531  0.18084  1.0000
  C   C4376     1.0  0.54837  0.18359  0.03459  1.0000
  C   C4377     1.0  0.59294  0.22675  0.08793  1.0000
  C   C4378     1.0  0.64305  0.08040  0.21336  1.0000
  C   C4379     1.0  0.51471  0.19070  0.10153  1.0000
  C   C4380     1.0  0.52774  0.19139  0.05303  1.0000
  H   H3493     1.0  0.55932  0.03931  0.07401  1.0000
  C   C4381     1.0  0.63254  0.07796  0.14033  1.0000
  H   H3494     1.0  0.61948  0.11948  0.08086  1.0000
  C   C4382     1.0  0.51880  0.00626  0.08734  1.0000
  H   H3495     1.0  0.53494  0.20488  0.03249  1.0000
  C   C4383     1.0  0.56545  0.07306  0.04572  1.0000
  C   C4384     1.0  0.52318  0.11635  0.16212  1.0000
  C   C4385     1.0  0.52140  0.01303  0.19302  1.0000
  H   H3496     1.0  0.55614  0.17231  0.08476  1.0000
  H   H3497     1.0  0.51414  0.01433  0.06641  1.0000
  H   H3498     1.0  0.55523  0.07987  0.04368  1.0000
  H   H3499     1.0  0.54437  0.09453  0.19908  1.0000
  C   C4386     1.0  0.57224  0.04945  0.01764  1.0000
  C   C4387     1.0  0.55086  0.13004  0.19377  1.0000
  C   C4388     1.0  0.55798  0.13776  0.18104  1.0000
  C   C4389     1.0  0.55472  0.13847  0.16813  1.0000
  H   H3500     1.0  0.56008  0.14461  0.15829  1.0000
  H   H3501     1.0  0.54145  0.09871  0.15809  1.0000
  H   H3502     1.0  0.52304  0.18530  0.10758  1.0000
  H   H3503     1.0  0.56651  0.09793  0.17432  1.0000
  H   H3504     1.0  0.57695  0.11112  0.12869  1.0000
  H   H3505     1.0  0.56845  0.07309  0.17251  1.0000
  H   H3506     1.0  0.57077  0.11679  0.15227  1.0000
  H   H3507     1.0  0.50310  0.22411  0.03343  1.0000
  C   C4390     1.0  0.75210  0.18902  0.99016  1.0000
  C   C4391     1.0  0.59214  0.18757  0.01574  1.0000
  H   H3508     1.0  0.52988  0.19274  0.08133  1.0000
  H   H3509     1.0  0.52190  0.21205  0.14397  1.0000
  H   H3510     1.0  0.62100  0.11095  0.10635  1.0000
  H   H3511     1.0  0.63827  0.09766  0.13825  1.0000
  S   S595      1.0  0.51176  0.12350  0.05474  1.0000
  H   H3512     1.0  0.56205  0.06610  0.12232  1.0000
  C   C4392     1.0  0.59488  0.20120  0.00920  1.0000
  H   H3513     1.0  0.74737  0.23179  0.01891  1.0000
  H   H3514     1.0  0.61631  0.04100  0.13912  1.0000
  C   C4393     1.0  0.65638  0.08287  0.20464  1.0000
  H   H3515     1.0  0.54225  0.13206  0.15768  1.0000
  H   H3516     1.0  0.51185  0.06966  0.12572  1.0000
  C   C4394     1.0  0.53069  0.04698  0.16642  1.0000
  C   C4395     1.0  0.52388  0.17120  0.15109  1.0000
  C   C4396     1.0  0.50787  0.01730  0.20179  1.0000
  H   H3517     1.0  0.67248  0.99169  0.23513  1.0000
  C   C4397     1.0  0.53768  0.12308  0.18057  1.0000
  H   H3518     1.0  0.58653  0.09610  0.08858  1.0000
  H   H3519     1.0  0.57462  0.06718  0.14891  1.0000
  C   C4398     1.0  0.57499  0.10273  0.13813  1.0000
  H   H3520     1.0  0.57084  0.17797  0.06018  1.0000
  C   C4399     1.0  0.55357  0.02104  0.05280  1.0000
  H   H3521     1.0  0.58513  0.05049  0.99613  1.0000
  H   H3522     1.0  0.56471  0.11047  0.10534  1.0000
  H   H3523     1.0  0.70792  0.09012  0.13712  1.0000
  C   C4400     1.0  0.53249  0.10868  0.13962  1.0000
  C   C4401     1.0  0.74488  0.21325  0.99386  1.0000
  H   H3524     1.0  0.57783  0.09053  0.00890  1.0000
  H   H3525     1.0  0.54610  0.07475  0.14631  1.0000
  H   H3526     1.0  0.55544  0.18589  0.02415  1.0000
  H   H3527     1.0  0.58378  0.03811  0.05128  1.0000
  H   H3528     1.0  0.53966  0.07679  0.02909  1.0000
  C   C4402     1.0  0.53316  0.10714  0.15372  1.0000
  C   C4403     1.0  0.57426  0.10169  0.00394  1.0000
  C   C4404     1.0  0.51659  0.05245  0.16406  1.0000
  H   H3529     1.0  0.61919  0.15352  0.14837  1.0000
  C   C4405     1.0  0.54053  0.12297  0.19357  1.0000
  H   H3530     1.0  0.60511  0.09539  0.12306  1.0000
  C   C4406     1.0  0.55933  0.20054  0.11930  1.0000
  C   C4407     1.0  0.62475  0.14244  0.15150  1.0000
  C   C4408     1.0  0.69652  0.09101  0.14234  1.0000
  H   H3531     1.0  0.52128  0.08449  0.14191  1.0000
  C   C4409     1.0  0.63445  0.06039  0.16239  1.0000
  C   C4410     1.0  0.54156  0.16975  0.98686  1.0000
  H   H3532     1.0  0.60266  0.06611  0.13725  1.0000
  H   H3533     1.0  0.54133  0.11564  0.09846  1.0000
  C   C4411     1.0  0.53492  0.21530  0.12244  1.0000
  H   H3534     1.0  0.55333  0.12955  0.20380  1.0000
  H   H3535     1.0  0.55226  0.05065  0.16182  1.0000
  C   C4412     1.0  0.57005  0.08142  0.16290  1.0000
  H   H3536     1.0  0.56704  0.13496  0.01037  1.0000
  C   C4413     1.0  0.52149  0.08605  0.18432  1.0000
  H   H3537     1.0  0.53138  0.15669  0.00617  1.0000
  P   P145      1.0  0.51307  0.20543  0.05933  1.0000
  H   H3538     1.0  0.50365  0.13696  0.13736  1.0000
  C   C4414     1.0  0.53002  0.09265  0.99208  1.0000
  C   C4415     1.0  0.53608  0.16710  0.14045  1.0000
  C   C4416     1.0  0.68850  0.10342  0.14714  1.0000
  H   H3539     1.0  0.52823  0.09625  0.10333  1.0000
  P   P146      1.0  0.52433  0.11391  0.18042  1.0000
  Fe  Fe299     1.0  0.58005  0.04834  0.22641  1.0000
  H   H3540     1.0  0.54312  0.15596  0.06320  1.0000
  C   C4417     1.0  0.57123  0.10605  0.15154  1.0000
  S   S596      1.0  0.59764  0.03143  0.21714  1.0000
  C   C4418     1.0  0.56889  0.09540  0.16394  1.0000
  H   H3541     1.0  0.53116  0.01049  0.19697  1.0000
  H   H3542     1.0  0.55233  0.16571  0.98906  1.0000
  C   C4419     1.0  0.51195  0.12867  0.14193  1.0000
  H   H3543     1.0  0.54856  0.08548  0.00170  1.0000
  S   S597      1.0  0.57910  0.06355  0.20528  1.0000
  C   C4420     1.0  0.53794  0.06843  0.15104  1.0000
  H   H3544     1.0  0.69713  0.22306  0.03273  1.0000
  C   C4421     1.0  0.52072  0.16032  0.12959  1.0000
  C   C4422     1.0  0.51797  0.00489  0.07410  1.0000
  H   H3545     1.0  0.62954  0.08135  0.13008  1.0000
  C   C4423     1.0  0.52977  0.16480  0.99656  1.0000
  H   H3546     1.0  0.58705  0.18257  0.01076  1.0000
  C   C4424     1.0  0.63748  0.08726  0.14507  1.0000
  H   H3547     1.0  0.62653  0.05759  0.14569  1.0000
  C   C4425     1.0  0.67379  0.10460  0.15384  1.0000
  H   H3548     1.0  0.53649  0.04772  0.02763  1.0000
  C   C4426     1.0  0.59176  0.05580  0.05182  1.0000
  S   S598      1.0  0.50682  0.01778  0.21938  1.0000
  Fe  Fe300     1.0  0.59563  0.07213  0.20974  1.0000
  H   H3549     1.0  0.60233  0.11189  0.07206  1.0000
  H   H3550     1.0  0.61462  0.02660  0.12336  1.0000
  C   C4427     1.0  0.58901  0.07062  0.05034  1.0000
  C   C4428     1.0  0.56462  0.13047  0.99140  1.0000
  H   H3551     1.0  0.57595  0.10955  0.02124  1.0000
  H   H3552     1.0  0.60410  0.22100  0.08500  1.0000
  H   H3553     1.0  0.67017  0.07201  0.15247  1.0000
  C   C4429     1.0  0.69701  0.23008  0.02227  1.0000
  H   H3554     1.0  0.76121  0.19660  0.00306  1.0000
  C   C4430     1.0  0.63068  0.21406  0.02525  1.0000
  C   C4431     1.0  0.63950  0.21899  0.03082  1.0000
  P   P147      1.0  0.61431  0.20870  0.03684  1.0000
  C   C4432     1.0  0.60594  0.20022  0.02844  1.0000
  C   C4433     1.0  0.62010  0.19579  0.05194  1.0000
  C   C4434     1.0  0.61135  0.19546  0.06572  1.0000
  C   C4435     1.0  0.61588  0.18528  0.07732  1.0000
  C   C4436     1.0  0.62901  0.17520  0.07519  1.0000
  C   C4437     1.0  0.63766  0.17532  0.06146  1.0000
  C   C4438     1.0  0.63323  0.18557  0.04984  1.0000
  C   C4439     1.0  0.60164  0.20753  0.01556  1.0000
  C   C4440     1.0  0.66698  0.09338  0.15572  1.0000
  H   H3555     1.0  0.56174  0.01863  0.20341  1.0000
  H   H3556     1.0  0.69005  0.22915  0.08715  1.0000
  C   C4441     1.0  0.60310  0.18652  0.03496  1.0000
  C   C4442     1.0  0.60146  0.22421  0.04261  1.0000
  H   H3557     1.0  0.56674  0.23211  0.01559  1.0000
  H   H3558     1.0  0.55677  0.99536  0.08331  1.0000
  H   H3559     1.0  0.50816  0.08136  0.10146  1.0000
  H   H3560     1.0  0.58022  0.00236  0.21595  1.0000
  C   C4443     1.0  0.58800  0.22953  0.03858  1.0000
  H   H3561     1.0  0.59929  0.03749  0.10553  1.0000
  H   H3562     1.0  0.51569  0.01673  0.08991  1.0000
  C   C4444     1.0  0.53939  0.23398  0.04714  1.0000
  H   H3563     1.0  0.69607  0.07009  0.14062  1.0000
  C   C4445     1.0  0.56481  0.99535  0.23538  1.0000
  H   H3564     1.0  0.60102  0.20295  0.06751  1.0000
  H   H3565     1.0  0.60920  0.18516  0.08799  1.0000
  H   H3566     1.0  0.63244  0.16719  0.08416  1.0000
  H   H3567     1.0  0.64772  0.16736  0.05982  1.0000
  H   H3568     1.0  0.63997  0.18544  0.03923  1.0000
  H   H3569     1.0  0.66504  0.01766  0.22545  1.0000
  H   H3570     1.0  0.53334  0.03664  0.17346  1.0000
  C   C4446     1.0  0.52383  0.07134  0.19027  1.0000
  H   H3571     1.0  0.50330  0.10173  0.20548  1.0000
  H   H3572     1.0  0.53571  0.02215  0.21553  1.0000
  H   H3573     1.0  0.61493  0.22732  0.05478  1.0000
  C   C4447     1.0  0.61804  0.99460  0.22921  1.0000
  H   H3574     1.0  0.60354  0.21816  0.01042  1.0000
  H   H3575     1.0  0.66773  0.11426  0.15758  1.0000
  H   H3576     1.0  0.58476  0.22432  0.03231  1.0000
  C   C4448     1.0  0.54434  0.08006  0.11331  1.0000
  C   C4449     1.0  0.53851  0.09393  0.10643  1.0000
  C   C4450     1.0  0.54599  0.10479  0.10347  1.0000
  C   C4451     1.0  0.55935  0.10177  0.10726  1.0000
  C   C4452     1.0  0.56554  0.08772  0.11369  1.0000
  C   C4453     1.0  0.55780  0.07693  0.11693  1.0000
  P   P148      1.0  0.58215  0.08424  0.11965  1.0000
  C   C4454     1.0  0.59254  0.06602  0.12065  1.0000
  C   C4455     1.0  0.59426  0.09503  0.10720  1.0000
  C   C4456     1.0  0.60445  0.09886  0.11194  1.0000
  C   C4457     1.0  0.61359  0.10756  0.10245  1.0000
  C   C4458     1.0  0.61274  0.11235  0.08811  1.0000
  C   C4459     1.0  0.60300  0.10813  0.08318  1.0000
  C   C4460     1.0  0.59392  0.09934  0.09264  1.0000
  C   C4461     1.0  0.60181  0.06000  0.13024  1.0000
  C   C4462     1.0  0.60977  0.04583  0.13119  1.0000
  C   C4463     1.0  0.60877  0.03769  0.12237  1.0000
  C   C4464     1.0  0.60006  0.04381  0.11238  1.0000
  C   C4465     1.0  0.59205  0.05795  0.11143  1.0000
  C   C4466     1.0  0.57667  0.08862  0.13700  1.0000
  C   C4467     1.0  0.57375  0.07807  0.14948  1.0000
  C   C4468     1.0  0.53221  0.07352  0.03901  1.0000
  H   H3577     1.0  0.64185  0.07679  0.22483  1.0000
  C   C4469     1.0  0.50741  0.12183  0.19118  1.0000
  H   H3578     1.0  0.50301  0.12202  0.99728  1.0000
  C   C4470     1.0  0.63968  0.06954  0.16703  1.0000
  C   C4471     1.0  0.51937  0.22192  0.05419  1.0000
  C   C4472     1.0  0.56710  0.18596  0.06663  1.0000
  C   C4473     1.0  0.51316  0.06590  0.15498  1.0000
  H   H3579     1.0  0.65839  0.22770  0.02637  1.0000
  H   H3580     1.0  0.62359  0.08861  0.18792  1.0000
  C   C4474     1.0  0.51261  0.06552  0.06452  1.0000
  C   C4475     1.0  0.51274  0.12733  0.15600  1.0000
  H   H3581     1.0  0.54139  0.19359  0.15407  1.0000
  H   H3582     1.0  0.55162  0.02236  0.04235  1.0000
  C   C4476     1.0  0.55845  0.01260  0.21419  1.0000
  H   H3583     1.0  0.56997  0.19739  0.11268  1.0000
  P   P149      1.0  0.55247  0.21934  0.09465  1.0000
  C   C4477     1.0  0.52182  0.11938  0.13373  1.0000
  C   C4478     1.0  0.57077  0.19932  0.06124  1.0000
  H   H3584     1.0  0.62343  0.22968  0.10133  1.0000
  H   H3585     1.0  0.53895  0.03648  0.23395  1.0000
  C   C4479     1.0  0.55840  0.01715  0.08002  1.0000
  C   C4480     1.0  0.54379  0.01458  0.22102  1.0000
  S   S599      1.0  0.63068  0.02737  0.23167  1.0000
  C   C4481     1.0  0.50256  0.07843  0.12423  1.0000
  H   H3586     1.0  0.60334  0.21783  0.11615  1.0000
  C   C4482     1.0  0.64766  0.21735  0.00216  1.0000
  H   H3587     1.0  0.52413  0.99515  0.10763  1.0000
  H   H3588     1.0  0.74604  0.22116  0.99873  1.0000
  S   S600      1.0  0.51131  0.01755  0.15532  1.0000
  C   C4483     1.0  0.53678  0.19431  0.03938  1.0000
  H   H3589     1.0  0.58803  0.99755  0.19160  1.0000
  C   C4484     1.0  0.51013  0.16992  0.15085  1.0000
  H   H3590     1.0  0.59194  0.20684  0.99909  1.0000
  C   C4485     1.0  0.55081  0.16982  0.04326  1.0000
  H   H3591     1.0  0.50833  0.04637  0.16961  1.0000
  C   C4486     1.0  0.67513  0.08088  0.15100  1.0000
  C   C4487     1.0  0.52672  0.05711  0.06181  1.0000
  Fe  Fe301     1.0  0.56445  0.00110  0.15174  1.0000
  H   H3592     1.0  0.60611  0.18054  0.04497  1.0000
  H   H3593     1.0  0.56551  0.18653  0.13834  1.0000
  C   C4488     1.0  0.54153  0.16672  0.05661  1.0000
  H   H3594     1.0  0.66836  0.08924  0.18330  1.0000
  C   C4489     1.0  0.55441  0.19280  0.08911  1.0000
  H   H3595     1.0  0.52297  0.21645  0.09808  1.0000
  C   C4490     1.0  0.53955  0.00711  0.23504  1.0000
  H   H3596     1.0  0.54080  0.04837  0.00199  1.0000
  C   C4491     1.0  0.55685  0.19441  0.13391  1.0000
  H   H3597     1.0  0.60187  0.04909  0.05440  1.0000
  C   C4492     1.0  0.70870  0.23714  0.99727  1.0000
  C   C4493     1.0  0.59615  0.18030  0.02866  1.0000
  C   C4494     1.0  0.69431  0.23685  0.07796  1.0000
  H   H3598     1.0  0.52118  0.12057  0.12281  1.0000
  C   C4495     1.0  0.63455  0.13538  0.14121  1.0000
  C   C4496     1.0  0.55404  0.00763  0.06228  1.0000
  C   C4497     1.0  0.52359  0.99410  0.09732  1.0000
  C   C4498     1.0  0.50835  0.07796  0.05454  1.0000
  C   C4499     1.0  0.64084  0.08326  0.15859  1.0000
  H   H3599     1.0  0.57723  0.20176  0.05052  1.0000
  C   C4500     1.0  0.53413  0.22144  0.05260  1.0000
  C   C4501     1.0  0.56628  0.20942  0.06977  1.0000
  C   C4502     1.0  0.53235  0.20889  0.13703  1.0000
  C   C4503     1.0  0.56894  0.00315  0.22136  1.0000
  C   C4504     1.0  0.55825  0.20614  0.08384  1.0000
  H   H3600     1.0  0.50792  0.12959  0.08693  1.0000
  C   C4505     1.0  0.53662  0.06102  0.04898  1.0000
  H   H3601     1.0  0.54827  0.18994  0.09995  1.0000
  C   C4506     1.0  0.55848  0.04878  0.02665  1.0000
  H   H3602     1.0  0.52648  0.22376  0.11841  1.0000
  H   H3603     1.0  0.69367  0.11216  0.14565  1.0000
  C   C4507     1.0  0.50975  0.23529  0.05143  1.0000
  C   C4508     1.0  0.55646  0.00569  0.07589  1.0000
  C   C4509     1.0  0.50991  0.01681  0.17340  1.0000
  H   H3604     1.0  0.51390  0.09072  0.17740  1.0000
  H   H3605     1.0  0.68848  0.22889  0.06302  1.0000
  C   C4510     1.0  0.64613  0.08954  0.18361  1.0000
  C   C4511     1.0  0.50871  0.16409  0.14033  1.0000
  H   H3606     1.0  0.62896  0.20890  0.00616  1.0000
  H   H3607     1.0  0.63659  0.14101  0.13012  1.0000
  C   C4512     1.0  0.55789  0.03053  0.07059  1.0000
  C   C4513     1.0  0.63125  0.08257  0.20728  1.0000
  C   C4514     1.0  0.56808  0.05819  0.04724  1.0000
  H   H3608     1.0  0.59402  0.16974  0.03376  1.0000
  H   H3609     1.0  0.71819  0.21938  0.01262  1.0000
  H   H3610     1.0  0.59695  0.07542  0.05177  1.0000
  C   C4515     1.0  0.57590  0.07925  0.04720  1.0000
  H   H3611     1.0  0.57369  0.09072  0.04629  1.0000
  C   C4516     1.0  0.64156  0.12103  0.14517  1.0000
  H   H3612     1.0  0.54162  0.21134  0.05541  1.0000
  H   H3613     1.0  0.58108  0.05007  0.02169  1.0000
  C   C4517     1.0  0.52996  0.17740  0.06142  1.0000
  C   C4518     1.0  0.58141  0.04961  0.05016  1.0000
  S   S601      1.0  0.50449  0.15791  0.06859  1.0000
  H   H3614     1.0  0.63294  0.05009  0.16921  1.0000
  C   C4519     1.0  0.60493  0.23130  0.05107  1.0000
  C   C4520     1.0  0.54725  0.04805  0.02097  1.0000
  C   C4521     1.0  0.63280  0.08709  0.19248  1.0000
  P   P150      1.0  0.64801  0.09494  0.16444  1.0000
  H   H3615     1.0  0.62086  0.08072  0.21399  1.0000
  C   C4522     1.0  0.68985  0.07974  0.14430  1.0000
  C   C4523     1.0  0.57460  0.04970  0.00312  1.0000
  S   S602      1.0  0.65141  0.21885  0.08399  1.0000
  C   C4524     1.0  0.54966  0.04833  0.00646  1.0000
  H   H3616     1.0  0.64265  0.06586  0.17728  1.0000
  C   C4525     1.0  0.51714  0.10296  0.99090  1.0000
  C   C4526     1.0  0.65605  0.22267  0.00772  1.0000
  H   H3617     1.0  0.66547  0.22656  0.00085  1.0000
  C   C4527     1.0  0.56707  0.22786  0.09267  1.0000
  H   H3618     1.0  0.52273  0.17458  0.07167  1.0000
  C   C4528     1.0  0.54333  0.19848  0.14276  1.0000
  C   C4529     1.0  0.70893  0.22805  0.01083  1.0000
  H   H3619     1.0  0.61426  0.14056  0.17375  1.0000
  C   C4530     1.0  0.63861  0.11347  0.15946  1.0000
  C   C4531     1.0  0.56328  0.04926  0.99752  1.0000
  H   H3620     1.0  0.66551  0.08120  0.20939  1.0000
  H   H3621     1.0  0.50843  0.14372  0.17995  1.0000
  H   H3622     1.0  0.64923  0.11583  0.13703  1.0000
  C   C4532     1.0  0.62441  0.21844  0.10203  1.0000
  C   C4533     1.0  0.67058  0.01387  0.23422  1.0000
  H   H3623     1.0  0.56034  0.01572  0.09053  1.0000
  H   H3624     1.0  0.50676  0.21359  0.99960  1.0000
  H   H3625     1.0  0.51078  0.19151  0.01853  1.0000
  H   H3626     1.0  0.62426  0.00057  0.23178  1.0000
  C   C4534     1.0  0.50786  0.20125  0.07867  1.0000
  C   C4535     1.0  0.75347  0.19936  0.99634  1.0000
  C   C4536     1.0  0.52210  0.99137  0.07077  1.0000
  H   H3627     1.0  0.50503  0.13477  0.16198  1.0000
  C   C4537     1.0  0.53687  0.23156  0.08852  1.0000
  H   H3628     1.0  0.55080  0.23344  0.04580  1.0000
  C   C4538     1.0  0.58998  0.24034  0.09075  1.0000
  C   C4539     1.0  0.68486  0.24118  0.02023  1.0000
  H   H3629     1.0  0.56490  0.04993  0.98619  1.0000
  Fe  Fe302     1.0  0.82308  0.05384  0.45006  1.0000
  S   S603      1.0  0.80918  0.03910  0.46530  1.0000
  S   S604      1.0  0.84407  0.04707  0.43477  1.0000
  Fe  Fe303     1.0  0.80288  0.08079  0.45869  1.0000
  S   S605      1.0  0.78690  0.06833  0.47434  1.0000
  S   S606      1.0  0.80069  0.10495  0.45474  1.0000
  C   C4540     1.0  0.51961  0.03341  0.27300  1.0000
  C   C4541     1.0  0.90465  0.08168  0.43460  1.0000
  Fe  Fe304     1.0  0.79040  0.05562  0.45756  1.0000
  S   S607      1.0  0.77079  0.04909  0.45465  1.0000
  S   S608      1.0  0.82239  0.06593  0.46601  1.0000
  S   S609      1.0  0.80459  0.06969  0.44129  1.0000
  Fe  Fe305     1.0  0.86272  0.17258  0.46165  1.0000
  S   S610      1.0  0.86964  0.14859  0.46492  1.0000
  S   S611      1.0  0.86774  0.18850  0.44076  1.0000
  C   C4542     1.0  0.68131  0.99421  0.25157  1.0000
  H   H3630     1.0  0.54824  0.02525  0.32799  1.0000
  H   H3631     1.0  0.99592  0.14946  0.40811  1.0000
  C   C4543     1.0  0.54443  0.05257  0.24055  1.0000
  C   C4544     1.0  0.72544  0.00483  0.45248  1.0000
  C   C4545     1.0  0.96437  0.16079  0.47780  1.0000
  H   H3632     1.0  0.69625  0.99672  0.36055  1.0000
  H   H3633     1.0  0.68759  0.00073  0.26747  1.0000
  S   S612      1.0  0.83986  0.17243  0.47451  1.0000
  S   S613      1.0  0.95554  0.12402  0.44778  1.0000
  H   H3634     1.0  0.69079  0.99885  0.42636  1.0000
  S   S614      1.0  0.90274  0.03027  0.45600  1.0000
  C   C4546     1.0  0.59240  0.06774  0.26290  1.0000
  C   C4547     1.0  0.63747  0.02382  0.40490  1.0000
  C   C4548     1.0  0.72288  0.01889  0.32194  1.0000
  C   C4549     1.0  0.91650  0.06745  0.41677  1.0000
  H   H3635     1.0  0.96217  0.21666  0.48062  1.0000
  C   C4550     1.0  0.95200  0.02596  0.48461  1.0000
  H   H3636     1.0  0.61288  0.01584  0.39819  1.0000
  H   H3637     1.0  0.52813  0.00904  0.24027  1.0000
  S   S615      1.0  0.70991  0.00784  0.39788  1.0000
  H   H3638     1.0  0.59549  0.00098  0.42332  1.0000
  Fe  Fe306     1.0  0.74462  0.01627  0.40275  1.0000
  S   S616      1.0  0.72424  0.03312  0.40015  1.0000
  S   S617      1.0  0.76477  0.01999  0.40732  1.0000
  Fe  Fe307     1.0  0.71269  0.01636  0.41511  1.0000
  S   S618      1.0  0.69515  0.02339  0.43335  1.0000
  Fe  Fe308     1.0  0.72314  0.02321  0.38290  1.0000
  S   S619      1.0  0.71516  0.03630  0.36281  1.0000
  S   S620      1.0  0.73302  0.99989  0.41845  1.0000
  S   S621      1.0  0.74489  0.00788  0.38372  1.0000
  Fe  Fe309     1.0  0.62682  0.02085  0.33010  1.0000
  S   S622      1.0  0.62940  0.01454  0.30958  1.0000
  S   S623      1.0  0.60505  0.02760  0.34414  1.0000
  Fe  Fe310     1.0  0.65932  0.01343  0.32910  1.0000
  S   S624      1.0  0.66468  0.00651  0.30826  1.0000
  S   S625      1.0  0.67508  0.00826  0.34358  1.0000
  Fe  Fe311     1.0  0.64771  0.02599  0.30179  1.0000
  H   H3639     1.0  0.60096  0.03233  0.37394  1.0000
  C   C4551     1.0  0.58371  0.05976  0.39824  1.0000
  S   S626      1.0  0.64383  0.03390  0.32184  1.0000
  C   C4552     1.0  0.63624  0.01087  0.41485  1.0000
  C   C4553     1.0  0.95349  0.06749  0.40483  1.0000
  H   H3640     1.0  0.87363  0.04491  0.42011  1.0000
  S   S627      1.0  0.97776  0.11073  0.47750  1.0000
  S   S628      1.0  0.92612  0.20573  0.43733  1.0000
  Fe  Fe312     1.0  0.96566  0.22971  0.40756  1.0000
  S   S629      1.0  0.98851  0.21619  0.40401  1.0000
  C   C4554     1.0  0.58027  0.04626  0.40263  1.0000
  H   H3641     1.0  0.95961  0.08365  0.43114  1.0000
  C   C4555     1.0  0.63908  0.02059  0.25701  1.0000
  S   S630      1.0  0.94809  0.22540  0.40024  1.0000
  H   H3642     1.0  0.60061  0.08270  0.24412  1.0000
  C   C4556     1.0  0.59119  0.08046  0.25242  1.0000
  H   H3643     1.0  0.60287  0.06029  0.26266  1.0000
  S   S631      1.0  0.64975  0.04162  0.28042  1.0000
  H   H3644     1.0  0.81599  0.09246  0.47797  1.0000
  H   H3645     1.0  0.73088  0.07485  0.42739  1.0000
  C   C4557     1.0  0.63747  0.04893  0.25717  1.0000
  C   C4558     1.0  0.68052  0.01488  0.43881  1.0000
  C   C4559     1.0  0.66802  0.02018  0.44837  1.0000
  C   C4560     1.0  0.65604  0.01378  0.45260  1.0000
  C   C4561     1.0  0.65665  0.00185  0.44757  1.0000
  C   C4562     1.0  0.61192  0.00700  0.39458  1.0000
  C   C4563     1.0  0.68113  0.00300  0.43370  1.0000
  H   H3646     1.0  0.66758  0.02928  0.45244  1.0000
  H   H3647     1.0  0.64639  0.01797  0.45994  1.0000
  H   H3648     1.0  0.87291  0.02905  0.47184  1.0000
  H   H3649     1.0  0.58416  0.00326  0.32126  1.0000
  C   C4564     1.0  0.70416  0.02869  0.35705  1.0000
  C   C4565     1.0  0.69496  0.03732  0.34788  1.0000
  C   C4566     1.0  0.68603  0.03132  0.34344  1.0000
  C   C4567     1.0  0.68629  0.01664  0.34816  1.0000
  C   C4568     1.0  0.69572  0.00809  0.35703  1.0000
  C   C4569     1.0  0.70455  0.01404  0.36149  1.0000
  H   H3650     1.0  0.69466  0.04868  0.34433  1.0000
  H   H3651     1.0  0.67890  0.03801  0.33651  1.0000
  H   H3652     1.0  0.56095  0.00097  0.40592  1.0000
  H   H3653     1.0  0.71181  0.00717  0.36821  1.0000
  C   C4570     1.0  0.90146  0.23681  0.48090  1.0000
  Fe  Fe313     1.0  0.99694  0.09330  0.47189  1.0000
  C   C4571     1.0  0.64311  0.02363  0.26804  1.0000
  C   C4572     1.0  0.64273  0.03778  0.26790  1.0000
  H   H3654     1.0  0.87276  0.23151  0.44326  1.0000
  H   H3655     1.0  0.67560  0.00593  0.40764  1.0000
  H   H3656     1.0  0.64723  0.01496  0.27621  1.0000
  S   S632      1.0  0.56123  0.04179  0.24346  1.0000
  H   H3657     1.0  0.91913  0.10356  0.41765  1.0000
  C   C4573     1.0  0.98612  0.20571  0.44378  1.0000
  C   C4574     1.0  0.82445  0.10930  0.48011  1.0000
  H   H3658     1.0  0.58958  0.00925  0.36671  1.0000
  C   C4575     1.0  0.95689  0.15351  0.47321  1.0000
  C   C4576     1.0  0.88445  0.19303  0.43855  1.0000
  C   C4577     1.0  0.88738  0.20607  0.42969  1.0000
  C   C4578     1.0  0.90030  0.21009  0.42889  1.0000
  C   C4579     1.0  0.91040  0.20090  0.43671  1.0000
  C   C4580     1.0  0.90776  0.18755  0.44484  1.0000
  C   C4581     1.0  0.89482  0.18370  0.44588  1.0000
  H   H3659     1.0  0.87945  0.21326  0.42386  1.0000
  H   H3660     1.0  0.90229  0.22035  0.42247  1.0000
  H   H3661     1.0  0.91566  0.18008  0.45048  1.0000
  H   H3662     1.0  0.89290  0.17344  0.45237  1.0000
  H   H3663     1.0  0.59604  0.07374  0.38181  1.0000
  C   C4582     1.0  0.93244  0.06649  0.44844  1.0000
  C   C4583     1.0  0.59824  0.00555  0.39426  1.0000
  C   C4584     1.0  0.93891  0.12885  0.45954  1.0000
  C   C4585     1.0  0.92629  0.13654  0.45459  1.0000
  C   C4586     1.0  0.91296  0.13935  0.46444  1.0000
  C   C4587     1.0  0.59732  0.99360  0.39008  1.0000
  H   H3664     1.0  0.92674  0.13995  0.44325  1.0000
  H   H3665     1.0  0.90311  0.14490  0.46071  1.0000
  C   C4588     1.0  0.76942  0.04088  0.44141  1.0000
  C   C4589     1.0  0.75587  0.03850  0.44167  1.0000
  C   C4590     1.0  0.75418  0.03231  0.43130  1.0000
  C   C4591     1.0  0.76613  0.02812  0.42060  1.0000
  C   C4592     1.0  0.77973  0.03025  0.42050  1.0000
  C   C4593     1.0  0.78137  0.03664  0.43075  1.0000
  H   H3666     1.0  0.74656  0.04163  0.44988  1.0000
  H   H3667     1.0  0.74364  0.03085  0.43150  1.0000
  H   H3668     1.0  0.78908  0.02708  0.41233  1.0000
  H   H3669     1.0  0.79188  0.03831  0.43035  1.0000
  C   C4594     1.0  0.81078  0.11186  0.46240  1.0000
  C   C4595     1.0  0.81205  0.12624  0.45738  1.0000
  C   C4596     1.0  0.81985  0.13200  0.46343  1.0000
  C   C4597     1.0  0.82623  0.12347  0.47475  1.0000
  Fe  Fe314     1.0  0.90322  0.01873  0.47875  1.0000
  C   C4598     1.0  0.81702  0.10345  0.47383  1.0000
  H   H3670     1.0  0.80699  0.13296  0.44876  1.0000
  H   H3671     1.0  0.82077  0.14304  0.45948  1.0000
  H   H3672     1.0  0.55649  0.04958  0.27667  1.0000
  H   H3673     1.0  0.54928  0.00005  0.32879  1.0000
  C   C4599     1.0  0.59448  0.01613  0.34405  1.0000
  C   C4600     1.0  0.54172  0.04005  0.29471  1.0000
  C   C4601     1.0  0.86010  0.04148  0.44128  1.0000
  C   C4602     1.0  0.85988  0.03706  0.45592  1.0000
  C   C4603     1.0  0.87301  0.03286  0.46061  1.0000
  C   C4604     1.0  0.88624  0.03368  0.45070  1.0000
  C   C4605     1.0  0.88637  0.03791  0.43612  1.0000
  C   C4606     1.0  0.87339  0.04167  0.43142  1.0000
  H   H3674     1.0  0.84965  0.03669  0.46359  1.0000
  H   H3675     1.0  0.93559  0.07094  0.47985  1.0000
  H   H3676     1.0  0.89659  0.03819  0.42844  1.0000
  H   H3677     1.0  0.64014  0.00959  0.25672  1.0000
  C   C4607     1.0  0.68253  0.04160  0.47724  1.0000
  C   C4608     1.0  0.85656  0.20977  0.47253  1.0000
  H   H3678     1.0  0.52926  0.02961  0.31433  1.0000
  C   C4609     1.0  0.56365  0.00563  0.44786  1.0000
  C   C4610     1.0  0.95204  0.09306  0.42684  1.0000
  C   C4611     1.0  0.99644  0.21125  0.44635  1.0000
  C   C4612     1.0  0.96995  0.04262  0.41901  1.0000
  C   C4613     1.0  0.85922  0.21806  0.45865  1.0000
  C   C4614     1.0  0.71718  0.05891  0.46161  1.0000
  H   H3679     1.0  0.85258  0.07232  0.46703  1.0000
  H   H3680     1.0  0.71444  0.02577  0.31668  1.0000
  S   S633      1.0  0.95753  0.08966  0.47680  1.0000
  H   H3681     1.0  0.97639  0.03307  0.42456  1.0000
  H   H3682     1.0  0.56317  0.02063  0.27393  1.0000
  C   C4615     1.0  0.78279  0.99603  0.38114  1.0000
  Fe  Fe315     1.0  0.80678  0.05281  0.48060  1.0000
  C   C4616     1.0  0.88119  0.11090  0.46665  1.0000
  C   C4617     1.0  0.76092  0.99453  0.48210  1.0000
  H   H3683     1.0  0.94731  0.07720  0.39925  1.0000
  C   C4618     1.0  0.74468  0.00192  0.33621  1.0000
  H   H3684     1.0  0.85287  0.21839  0.45126  1.0000
  C   C4619     1.0  0.54878  0.00922  0.38954  1.0000
  C   C4620     1.0  0.57131  0.99981  0.28632  1.0000
  H   H3685     1.0  0.89627  0.07562  0.46797  1.0000
  C   C4621     1.0  0.71574  0.99589  0.45560  1.0000
  C   C4622     1.0  0.72707  0.00410  0.32241  1.0000
  C   C4623     1.0  0.58069  0.99792  0.35705  1.0000
  C   C4624     1.0  0.90282  0.22263  0.48009  1.0000
  Fe  Fe316     1.0  0.84741  0.14829  0.47928  1.0000
  C   C4625     1.0  0.67474  0.99918  0.23979  1.0000
  C   C4626     1.0  0.54705  0.01914  0.37679  1.0000
  C   C4627     1.0  0.68326  0.00419  0.25794  1.0000
  H   H3686     1.0  0.55732  0.07269  0.28198  1.0000
  C   C4628     1.0  0.51577  0.06778  0.23994  1.0000
  Fe  Fe317     1.0  0.93525  0.22456  0.42281  1.0000
  H   H3687     1.0  0.65408  0.06003  0.46154  1.0000
  C   C4629     1.0  0.61294  0.03471  0.41597  1.0000
  H   H3688     1.0  0.55516  0.09466  0.26295  1.0000
  H   H3689     1.0  0.98456  0.20784  0.43306  1.0000
  H   H3690     1.0  0.76945  0.00014  0.47585  1.0000
  H   H3691     1.0  0.61479  0.00150  0.26119  1.0000
  S   S634      1.0  0.83659  0.12972  0.48264  1.0000
  H   H3692     1.0  0.52126  0.08398  0.24654  1.0000
  H   H3693     1.0  0.88813  0.22971  0.45950  1.0000
  H   H3694     1.0  0.58695  0.99196  0.39003  1.0000
  H   H3695     1.0  0.92616  0.06171  0.41062  1.0000
  H   H3696     1.0  0.74464  0.02127  0.34183  1.0000
  C   C4630     1.0  0.93882  0.09187  0.42507  1.0000
  H   H3697     1.0  0.55474  0.03661  0.36089  1.0000
  H   H3698     1.0  0.99936  0.12718  0.40020  1.0000
  H   H3699     1.0  0.60034  0.99761  0.24715  1.0000
  H   H3700     1.0  0.75291  0.99530  0.34199  1.0000
  H   H3701     1.0  0.90219  0.06006  0.40904  1.0000
  H   H3702     1.0  0.53769  0.02127  0.26027  1.0000
  H   H3703     1.0  0.87531  0.12577  0.44788  1.0000
  C   C4631     1.0  0.52519  0.07370  0.24357  1.0000
  C   C4632     1.0  0.56556  0.08715  0.26298  1.0000
  P   P151      1.0  0.65423  0.02564  0.39201  1.0000
  H   H3704     1.0  0.77910  0.00712  0.38215  1.0000
  C   C4633     1.0  0.66410  0.03465  0.39812  1.0000
  C   C4634     1.0  0.65834  0.03947  0.41092  1.0000
  C   C4635     1.0  0.66633  0.04611  0.41560  1.0000
  C   C4636     1.0  0.68008  0.04799  0.40758  1.0000
  C   C4637     1.0  0.68593  0.04303  0.39498  1.0000
  C   C4638     1.0  0.67811  0.03615  0.39042  1.0000
  C   C4639     1.0  0.62572  0.03573  0.40548  1.0000
  C   C4640     1.0  0.53930  0.03318  0.30915  1.0000
  C   C4641     1.0  0.92515  0.12757  0.48392  1.0000
  C   C4642     1.0  0.59621  0.03984  0.38093  1.0000
  H   H3705     1.0  0.53910  0.01890  0.37133  1.0000
  C   C4643     1.0  0.64970  0.03571  0.37511  1.0000
  C   C4644     1.0  0.63919  0.03232  0.37038  1.0000
  C   C4645     1.0  0.63563  0.03980  0.35731  1.0000
  C   C4646     1.0  0.64230  0.05098  0.34896  1.0000
  C   C4647     1.0  0.65259  0.05461  0.35365  1.0000
  C   C4648     1.0  0.65629  0.04703  0.36665  1.0000
  C   C4649     1.0  0.93272  0.11765  0.41601  1.0000
  C   C4650     1.0  0.59960  0.05333  0.37657  1.0000
  C   C4651     1.0  0.70234  0.99870  0.46508  1.0000
  H   H3706     1.0  0.72914  0.02365  0.45584  1.0000
  C   C4652     1.0  0.93828  0.12465  0.47418  1.0000
  H   H3707     1.0  0.64793  0.03779  0.41755  1.0000
  H   H3708     1.0  0.66211  0.04937  0.42570  1.0000
  H   H3709     1.0  0.68645  0.05275  0.41141  1.0000
  H   H3710     1.0  0.69670  0.04422  0.38889  1.0000
  H   H3711     1.0  0.68302  0.03189  0.38092  1.0000
  H   H3712     1.0  0.62657  0.04586  0.39800  1.0000
  C   C4653     1.0  0.73831  0.99577  0.32927  1.0000
  H   H3713     1.0  0.94821  0.12921  0.41609  1.0000
  H   H3714     1.0  0.57018  0.00372  0.29572  1.0000
  C   C4654     1.0  0.58517  0.00464  0.33124  1.0000
  C   C4655     1.0  0.92523  0.23700  0.46528  1.0000
  H   H3715     1.0  1.00000  0.21711  0.37408  1.0000
  H   H3716     1.0  0.63967  0.05668  0.33874  1.0000
  H   H3717     1.0  0.65796  0.06311  0.34706  1.0000
  H   H3718     1.0  0.66441  0.05001  0.36986  1.0000
  C   C4656     1.0  0.85379  0.09455  0.46003  1.0000
  C   C4657     1.0  0.85285  0.08153  0.45814  1.0000
  C   C4658     1.0  0.85183  0.08046  0.44488  1.0000
  C   C4659     1.0  0.85167  0.09242  0.43350  1.0000
  C   C4660     1.0  0.85251  0.10561  0.43530  1.0000
  C   C4661     1.0  0.85339  0.10663  0.44874  1.0000
  P   P152      1.0  0.85195  0.12102  0.42049  1.0000
  C   C4662     1.0  0.86244  0.11469  0.40458  1.0000
  C   C4663     1.0  0.83344  0.12893  0.41866  1.0000
  C   C4664     1.0  0.82952  0.14350  0.41213  1.0000
  C   C4665     1.0  0.81532  0.14960  0.41027  1.0000
  C   C4666     1.0  0.80500  0.14117  0.41474  1.0000
  C   C4667     1.0  0.80889  0.12663  0.42103  1.0000
  C   C4668     1.0  0.82303  0.12052  0.42302  1.0000
  C   C4669     1.0  0.85667  0.11805  0.39241  1.0000
  C   C4670     1.0  0.86471  0.11251  0.38043  1.0000
  C   C4671     1.0  0.87853  0.10360  0.38052  1.0000
  C   C4672     1.0  0.88434  0.10025  0.39258  1.0000
  C   C4673     1.0  0.87633  0.10577  0.40456  1.0000
  C   C4674     1.0  0.85952  0.13438  0.42315  1.0000
  C   C4675     1.0  0.87346  0.13644  0.41559  1.0000
  C   C4676     1.0  0.87892  0.14707  0.41760  1.0000
  C   C4677     1.0  0.87052  0.15577  0.42707  1.0000
  C   C4678     1.0  0.85663  0.15387  0.43455  1.0000
  C   C4679     1.0  0.85116  0.14321  0.43264  1.0000
  H   H3719     1.0  0.85427  0.09540  0.47044  1.0000
  C   C4680     1.0  0.92435  0.04790  0.46826  1.0000
  H   H3720     1.0  0.85087  0.07041  0.44349  1.0000
  H   H3721     1.0  0.85061  0.09137  0.42339  1.0000
  H   H3722     1.0  0.85348  0.11670  0.45072  1.0000
  H   H3723     1.0  0.83741  0.15016  0.40845  1.0000
  H   H3724     1.0  0.81231  0.16087  0.40539  1.0000
  H   H3725     1.0  0.79396  0.14587  0.41344  1.0000
  H   H3726     1.0  0.80086  0.12008  0.42471  1.0000
  H   H3727     1.0  0.82562  0.10929  0.42818  1.0000
  H   H3728     1.0  0.84592  0.12476  0.39215  1.0000
  H   H3729     1.0  0.86015  0.11501  0.37113  1.0000
  H   H3730     1.0  0.88467  0.09920  0.37128  1.0000
  H   H3731     1.0  0.89501  0.09327  0.39271  1.0000
  H   H3732     1.0  0.88091  0.10311  0.41384  1.0000
  H   H3733     1.0  0.88013  0.13003  0.40805  1.0000
  H   H3734     1.0  0.88963  0.14869  0.41175  1.0000
  H   H3735     1.0  0.87476  0.16400  0.42864  1.0000
  H   H3736     1.0  0.85013  0.16065  0.44191  1.0000
  H   H3737     1.0  0.84039  0.14186  0.43854  1.0000
  C   C4681     1.0  0.60446  0.99628  0.46591  1.0000
  C   C4682     1.0  0.71752  0.05939  0.43344  1.0000
  H   H3738     1.0  0.69315  0.01899  0.31786  1.0000
  C   C4683     1.0  0.72454  0.06798  0.45025  1.0000
  C   C4684     1.0  0.90700  0.10266  0.46573  1.0000
  C   C4685     1.0  0.56679  0.07456  0.27365  1.0000
  H   H3739     1.0  0.57271  0.04377  0.41270  1.0000
  H   H3740     1.0  0.60406  0.04401  0.41658  1.0000
  C   C4686     1.0  0.87919  0.22432  0.46343  1.0000
  H   H3741     1.0  0.86744  0.04666  0.48384  1.0000
  H   H3742     1.0  0.92041  0.03812  0.47211  1.0000
  H   H3743     1.0  0.54207  0.00140  0.39405  1.0000
  C   C4687     1.0  0.90291  0.06636  0.41594  1.0000
  C   C4688     1.0  0.55943  0.00910  0.39633  1.0000
  C   C4689     1.0  0.97767  0.19757  0.45501  1.0000
  C   C4690     1.0  0.70332  0.01727  0.27800  1.0000
  C   C4691     1.0  0.67471  0.00086  0.39982  1.0000
  C   C4692     1.0  0.58822  0.00798  0.35691  1.0000
  C   C4693     1.0  0.78835  0.99283  0.36766  1.0000
  C   C4694     1.0  0.56937  0.00436  0.26178  1.0000
  H   H3744     1.0  0.92523  0.12722  0.41192  1.0000
  C   C4695     1.0  0.92653  0.22302  0.46426  1.0000
  C   C4696     1.0  0.74014  0.01654  0.33603  1.0000
  Fe  Fe318     1.0  0.64593  0.99567  0.31775  1.0000
  C   C4697     1.0  0.66449  0.00122  0.38039  1.0000
  Fe  Fe319     1.0  0.96887  0.10630  0.46137  1.0000
  C   C4698     1.0  0.53518  0.04691  0.23645  1.0000
  H   H3745     1.0  0.68081  0.05465  0.45617  1.0000
  C   C4699     1.0  0.94683  0.18284  0.47198  1.0000
  C   C4700     1.0  0.59908  0.02159  0.25910  1.0000
  H   H3746     1.0  0.96543  0.10739  0.42534  1.0000
  C   C4701     1.0  0.63401  0.03169  0.24617  1.0000
  H   H3747     1.0  0.96060  0.14209  0.47378  1.0000
  C   C4702     1.0  0.56737  0.00931  0.27410  1.0000
  C   C4703     1.0  0.71162  0.00751  0.28738  1.0000
  C   C4704     1.0  0.52940  0.02080  0.27011  1.0000
  H   H3748     1.0  0.56675  0.01199  0.25227  1.0000
  H   H3749     1.0  0.93991  0.08216  0.45424  1.0000
  C   C4705     1.0  0.95543  0.10648  0.42347  1.0000
  C   C4706     1.0  0.66547  0.00812  0.39038  1.0000
  H   H3750     1.0  0.61268  0.04617  0.28557  1.0000
  C   C4707     1.0  0.98984  0.20055  0.47155  1.0000
  Fe  Fe320     1.0  0.97841  0.07418  0.47085  1.0000
  C   C4708     1.0  0.92689  0.05404  0.45373  1.0000
  H   H3751     1.0  0.92972  0.18139  0.46358  1.0000
  C   C4709     1.0  0.93553  0.07264  0.45793  1.0000
  C   C4710     1.0  0.72945  0.02505  0.32868  1.0000
  C   C4711     1.0  0.88419  0.11920  0.45278  1.0000
  C   C4712     1.0  0.96533  0.05916  0.39703  1.0000
  C   C4713     1.0  0.52853  0.00773  0.27988  1.0000
  C   C4714     1.0  0.55469  0.01515  0.43903  1.0000
  C   C4715     1.0  0.56038  0.01943  0.42440  1.0000
  H   H3752     1.0  0.96819  0.06240  0.38550  1.0000
  C   C4716     1.0  0.53917  0.99688  0.33045  1.0000
  H   H3753     1.0  0.90077  0.12661  0.43516  1.0000
  H   H3754     1.0  0.99120  0.19890  0.48231  1.0000
  H   H3755     1.0  0.54328  0.01901  0.44346  1.0000
  H   H3756     1.0  0.55324  0.02659  0.41763  1.0000
  H   H3757     1.0  0.57881  0.06753  0.40489  1.0000
  C   C4717     1.0  0.69834  0.01080  0.47091  1.0000
  H   H3758     1.0  0.92108  0.11184  0.44676  1.0000
  C   C4718     1.0  0.56630  0.02924  0.37786  1.0000
  H   H3759     1.0  0.61701  0.00169  0.28516  1.0000
  C   C4719     1.0  0.70834  0.00830  0.30178  1.0000
  C   C4720     1.0  0.00068  0.13596  0.47426  1.0000
  C   C4721     1.0  0.72478  0.06816  0.43618  1.0000
  P   P153      1.0  0.58207  0.01877  0.39945  1.0000
  H   H3760     1.0  0.67982  0.02660  0.25769  1.0000
  H   H3761     1.0  0.90517  0.08726  0.44223  1.0000
  C   C4722     1.0  0.94426  0.16088  0.46829  1.0000
  C   C4723     1.0  0.89115  0.08026  0.43400  1.0000
  C   C4724     1.0  0.53429  0.99660  0.31876  1.0000
  H   H3762     1.0  0.71797  0.05928  0.42253  1.0000
  C   C4725     1.0  0.91536  0.21587  0.47156  1.0000
  C   C4726     1.0  0.89026  0.07258  0.42469  1.0000
  C   C4727     1.0  0.67501  0.05036  0.46674  1.0000
  H   H3763     1.0  0.93827  0.15525  0.46500  1.0000
  H   H3764     1.0  0.73053  0.07449  0.45233  1.0000
  H   H3765     1.0  0.52020  0.04354  0.26542  1.0000
  H   H3766     1.0  0.59820  0.02167  0.24855  1.0000
  H   H3767     1.0  0.78895  0.00144  0.35821  1.0000
  P   P154      1.0  0.71852  0.99552  0.31432  1.0000
  C   C4728     1.0  0.94571  0.11879  0.41822  1.0000
  C   C4729     1.0  0.50923  0.03306  0.28584  1.0000
  C   C4730     1.0  0.92712  0.05419  0.47771  1.0000
  C   C4731     1.0  0.93290  0.06643  0.47254  1.0000
  H   H3768     1.0  0.75129  0.99833  0.46421  1.0000
  H   H3769     1.0  0.70589  0.01662  0.26692  1.0000
  C   C4732     1.0  0.90993  0.11135  0.45209  1.0000
  H   H3770     1.0  0.60693  0.05612  0.36638  1.0000
  C   C4733     1.0  0.62335  0.00984  0.42512  1.0000
  S   S635      1.0  0.64155  0.99395  0.45312  1.0000
  C   C4734     1.0  0.53127  0.99270  0.34431  1.0000
  H   H3771     1.0  0.92452  0.04901  0.44662  1.0000
  C   C4735     1.0  0.92928  0.10421  0.41936  1.0000
  H   H3772     1.0  0.58376  0.04163  0.25987  1.0000
  H   H3773     1.0  0.94279  0.19420  0.47137  1.0000
  C   C4736     1.0  0.68808  0.02840  0.29732  1.0000
  C   C4737     1.0  0.57509  0.01423  0.41851  1.0000
  H   H3774     1.0  0.57120  0.05857  0.31358  1.0000
  C   C4738     1.0  0.95811  0.05089  0.42684  1.0000
  C   C4739     1.0  0.87046  0.22541  0.45414  1.0000
  C   C4740     1.0  0.69629  0.01861  0.30670  1.0000
  H   H3775     1.0  0.57318  0.03685  0.37289  1.0000
  C   C4741     1.0  0.91746  0.07513  0.42613  1.0000
  P   P155      1.0  0.93466  0.07444  0.42966  1.0000
  H   H3776     1.0  0.96519  0.03216  0.46362  1.0000
  C   C4742     1.0  0.66922  0.99643  0.43813  1.0000
  C   C4743     1.0  0.61176  0.02176  0.42580  1.0000
  H   H3777     1.0  0.94791  0.11908  0.47811  1.0000
  H   H3778     1.0  0.62784  0.03676  0.35357  1.0000
  C   C4744     1.0  0.97353  0.04671  0.40412  1.0000
  H   H3779     1.0  0.88141  0.08477  0.44105  1.0000
  H   H3780     1.0  0.86998  0.11110  0.47223  1.0000
  C   C4745     1.0  0.53954  0.06609  0.24388  1.0000
  C   C4746     1.0  0.55464  0.04467  0.28799  1.0000
  C   C4747     1.0  0.60834  0.01022  0.26625  1.0000
  H   H3781     1.0  0.59773  0.02088  0.32124  1.0000
  C   C4748     1.0  0.97947  0.19491  0.46901  1.0000
  H   H3782     1.0  0.95577  0.04760  0.43838  1.0000
  S   S636      1.0  0.98911  0.09063  0.45396  1.0000
  P   P156      1.0  0.70216  0.03670  0.47333  1.0000
  H   H3783     1.0  0.63394  0.02368  0.37665  1.0000
  H   H3784     1.0  0.94805  0.01839  0.48164  1.0000
  C   C4749     1.0  0.89852  0.11964  0.44560  1.0000
  H   H3785     1.0  0.60277  0.02174  0.29656  1.0000
  H   H3786     1.0  0.72038  0.99928  0.28337  1.0000
  H   H3787     1.0  0.62902  0.05452  0.23810  1.0000
  C   C4750     1.0  0.57919  0.99622  0.34419  1.0000
  C   C4751     1.0  0.99832  0.20865  0.46024  1.0000
  C   C4752     1.0  0.55581  0.02914  0.37095  1.0000
  H   H3788     1.0  0.53626  0.99812  0.27746  1.0000
  H   H3789     1.0  0.68496  0.03521  0.27585  1.0000
  C   C4753     1.0  0.98410  0.16342  0.43234  1.0000
  C   C4754     1.0  0.97396  0.15475  0.43601  1.0000
  C   C4755     1.0  0.95954  0.16087  0.43498  1.0000
  C   C4756     1.0  0.95501  0.17566  0.43050  1.0000
  C   C4757     1.0  0.96492  0.18440  0.42696  1.0000
  C   C4758     1.0  0.97942  0.17834  0.42776  1.0000
  H   H3790     1.0  0.64524  0.00161  0.41492  1.0000
  H   H3791     1.0  0.99352  0.13004  0.48264  1.0000
  S   S637      1.0  0.87130  0.17352  0.47971  1.0000
  H   H3792     1.0  0.98272  0.04027  0.39810  1.0000
  C   C4759     1.0  0.59209  0.99830  0.47685  1.0000
  H   H3793     1.0  0.68766  0.01302  0.47775  1.0000
  S   S638      1.0  0.97803  0.05414  0.46501  1.0000
  H   H3794     1.0  0.53361  0.04182  0.28865  1.0000
  C   C4760     1.0  0.58015  0.06457  0.27343  1.0000
  C   C4761     1.0  0.51782  0.00725  0.29266  1.0000
  S   S639      1.0  0.95356  0.22721  0.43037  1.0000
  C   C4762     1.0  0.58409  0.00503  0.42754  1.0000
  H   H3795     1.0  0.87980  0.07112  0.42452  1.0000
  C   C4763     1.0  0.93936  0.17557  0.46753  1.0000
  H   H3796     1.0  0.54067  0.99981  0.30811  1.0000
  H   H3797     1.0  0.91642  0.20522  0.47021  1.0000
  H   H3798     1.0  0.97721  0.14320  0.43935  1.0000
  H   H3799     1.0  0.95181  0.15415  0.43766  1.0000
  H   H3800     1.0  0.94383  0.18031  0.42967  1.0000
  H   H3801     1.0  0.96138  0.19589  0.42333  1.0000
  H   H3802     1.0  0.98687  0.18540  0.42443  1.0000
  H   H3803     1.0  0.89591  0.19074  0.47359  1.0000
  H   H3804     1.0  0.57114  0.03301  0.31618  1.0000
  C   C4764     1.0  0.52161  0.99174  0.32081  1.0000
  H   H3805     1.0  0.96967  0.19356  0.45266  1.0000
  Fe  Fe321     1.0  0.73154  0.99294  0.39951  1.0000
  C   C4765     1.0  0.88239  0.06074  0.47442  1.0000
  H   H3806     1.0  0.57676  0.09967  0.24390  1.0000
  H   H3807     1.0  0.73579  0.00289  0.44501  1.0000
  H   H3808     1.0  0.93604  0.21778  0.45752  1.0000
  C   C4766     1.0  0.63286  0.04592  0.24646  1.0000
  C   C4767     1.0  0.70997  0.04994  0.45895  1.0000
  H   H3809     1.0  0.72579  0.03636  0.32878  1.0000
  C   C4768     1.0  0.59294  0.01450  0.33119  1.0000
  C   C4769     1.0  0.70779  0.02012  0.46736  1.0000
  C   C4770     1.0  0.72159  0.01674  0.45854  1.0000
  H   H3810     1.0  0.65770  0.00653  0.37279  1.0000
  C   C4771     1.0  0.94968  0.06331  0.41978  1.0000
  C   C4772     1.0  0.57832  0.00060  0.44211  1.0000
  C   C4773     1.0  0.58656  0.03617  0.39403  1.0000
  H   H3811     1.0  0.63711  0.05990  0.25706  1.0000
  C   C4774     1.0  0.96168  0.03378  0.47441  1.0000
  H   H3812     1.0  0.88668  0.05671  0.46472  1.0000
  C   C4775     1.0  0.59341  0.06327  0.38524  1.0000
  C   C4776     1.0  0.61317  0.05279  0.30396  1.0000
  C   C4777     1.0  0.60512  0.05740  0.31640  1.0000
  C   C4778     1.0  0.59000  0.05936  0.31987  1.0000
  C   C4779     1.0  0.58295  0.05657  0.31096  1.0000
  C   C4780     1.0  0.59105  0.05118  0.29884  1.0000
  C   C4781     1.0  0.60620  0.04970  0.29519  1.0000
  P   P157      1.0  0.58205  0.04818  0.28693  1.0000
  C   C4782     1.0  0.59266  0.03346  0.27879  1.0000
  C   C4783     1.0  0.56512  0.04278  0.29580  1.0000
  C   C4784     1.0  0.56287  0.03537  0.31015  1.0000
  C   C4785     1.0  0.54993  0.03077  0.31684  1.0000
  H   H3813     1.0  0.67873  0.03625  0.30128  1.0000
  H   H3814     1.0  0.58379  0.06294  0.32952  1.0000
  C   C4786     1.0  0.56825  0.01916  0.39059  1.0000
  C   C4787     1.0  0.59113  0.03307  0.26542  1.0000
  P   P158      1.0  0.96807  0.18514  0.48383  1.0000
  H   H3815     1.0  0.91608  0.09616  0.47029  1.0000
  C   C4788     1.0  0.60962  0.01035  0.27975  1.0000
  C   C4789     1.0  0.60171  0.02187  0.28607  1.0000
  C   C4790     1.0  0.89259  0.10262  0.47329  1.0000
  C   C4791     1.0  0.69157  0.02774  0.28298  1.0000
  C   C4792     1.0  0.71013  0.05035  0.44476  1.0000
  H   H3816     1.0  0.60194  0.02098  0.43403  1.0000
  S   S640      1.0  0.64180  0.00097  0.33900  1.0000
  H   H3817     1.0  0.71759  0.05864  0.47236  1.0000
  H   H3818     1.0  0.62485  0.05153  0.30112  1.0000
  H   H3819     1.0  0.61062  0.05933  0.32341  1.0000
  H   H3820     1.0  0.70494  0.04331  0.44240  1.0000
  H   H3821     1.0  0.99853  0.16938  0.47917  1.0000
  C   C4793     1.0  0.57773  0.09004  0.25231  1.0000
  C   C4794     1.0  0.87662  0.21591  0.47738  1.0000
  H   H3822     1.0  0.58848  0.00832  0.48036  1.0000
  C   C4795     1.0  0.65981  0.05338  0.46973  1.0000
  H   H3823     1.0  0.61053  0.00464  0.46104  1.0000
  C   C4796     1.0  0.95928  0.17551  0.47731  1.0000
  H   H3824     1.0  0.58518  0.99301  0.44886  1.0000
  H   H3825     1.0  0.55921  0.00203  0.45914  1.0000
  H   H3826     1.0  0.53530  0.99260  0.35338  1.0000
  H   H3827     1.0  0.63507  0.99841  0.38997  1.0000
  C   C4797     1.0  0.91241  0.13459  0.47913  1.0000
  H   H3828     1.0  0.54666  0.07046  0.24716  1.0000
  C   C4798     1.0  0.62451  0.99722  0.38985  1.0000
  H   H3829     1.0  0.90721  0.16503  0.47914  1.0000
  H   H3830     1.0  0.62258  0.99982  0.43275  1.0000
  H   H3831     1.0  0.98704  0.14128  0.45940  1.0000
  C   C4799     1.0  0.67896  0.01890  0.25240  1.0000
  H   H3832     1.0  0.50278  0.01146  0.26878  1.0000
  C   C4800     1.0  0.96643  0.04400  0.47805  1.0000
  H   H3833     1.0  0.74414  0.99964  0.29169  1.0000
  C   C4801     1.0  0.87162  0.05501  0.48516  1.0000
  C   C4802     1.0  0.88774  0.07151  0.47627  1.0000
  C   C4803     1.0  0.99698  0.14248  0.46106  1.0000
  C   C4804     1.0  0.55000  0.99748  0.24220  1.0000
  S   S641      1.0  0.92373  0.00315  0.48354  1.0000
  H   H3834     1.0  0.54662  0.99192  0.25313  1.0000
  H   H3835     1.0  0.97867  0.23505  0.46356  1.0000
  C   C4805     1.0  0.50677  0.99226  0.26109  1.0000
  H   H3836     1.0  0.96084  0.24004  0.44866  1.0000
  C   C4806     1.0  0.67271  0.02373  0.24051  1.0000
  H   H3837     1.0  0.97377  0.15486  0.48213  1.0000
  C   C4807     1.0  0.50853  0.02008  0.29578  1.0000
  C   C4808     1.0  0.75068  0.99344  0.47544  1.0000
  H   H3838     1.0  0.84804  0.20381  0.47598  1.0000
  C   C4809     1.0  0.60446  0.99295  0.23790  1.0000
  H   H3839     1.0  0.78378  0.13325  0.47966  1.0000
  H   H3840     1.0  0.66883  0.03511  0.23661  1.0000
  H   H3841     1.0  0.69469  0.99192  0.46751  1.0000
  C   C4810     1.0  0.86529  0.20861  0.48181  1.0000
  C   C4811     1.0  0.89887  0.18603  0.48381  1.0000
  C   C4812     1.0  0.65203  0.04763  0.48318  1.0000
  Fe  Fe322     1.0  0.87612  0.14966  0.48419  1.0000
  C   C4813     1.0  0.52089  0.05452  0.23605  1.0000
  H   H3842     1.0  0.57619  0.99141  0.36708  1.0000
  H   H3843     1.0  0.84991  0.00315  0.48397  1.0000
  H   H3844     1.0  0.78466  0.10742  0.48363  1.0000
  H   H3845     1.0  0.64027  0.04985  0.48544  1.0000
  C   C4814     1.0  0.00187  0.13948  0.41356  1.0000
  Fe  Fe323     1.0  0.82007  0.08582  0.55255  1.0000
  S   S642      1.0  0.84304  0.08445  0.55302  1.0000
  S   S643      1.0  0.81198  0.09161  0.53227  1.0000
  Fe  Fe324     1.0  0.80969  0.08221  0.58458  1.0000
  S   S644      1.0  0.83180  0.08057  0.58810  1.0000
  S   S645      1.0  0.78977  0.08054  0.60237  1.0000
  Fe  Fe325     1.0  0.83381  0.09862  0.56872  1.0000
  S   S646      1.0  0.84214  0.11883  0.56387  1.0000
  Fe  Fe326     1.0  0.83952  0.06654  0.57218  1.0000
  S   S647      1.0  0.85695  0.04638  0.57482  1.0000
  S   S648      1.0  0.81091  0.10154  0.56675  1.0000
  S   S649      1.0  0.81726  0.06659  0.57033  1.0000
  Fe  Fe327     1.0  0.89879  0.15225  0.57411  1.0000
  S   S650      1.0  0.89154  0.17437  0.57887  1.0000
  S   S651      1.0  0.88983  0.13253  0.58692  1.0000
  Fe  Fe328     1.0  0.92074  0.16166  0.54717  1.0000
  S   S652      1.0  0.91446  0.18453  0.54912  1.0000
  S   S653      1.0  0.93825  0.15658  0.52818  1.0000
  Fe  Fe329     1.0  0.91530  0.17568  0.57226  1.0000
  S   S654      1.0  0.93191  0.18302  0.57934  1.0000
  Fe  Fe330     1.0  0.89162  0.18135  0.55536  1.0000
  S   S655      1.0  0.87290  0.19771  0.54741  1.0000
  S   S656      1.0  0.92243  0.15267  0.56989  1.0000
  S   S657      1.0  0.89796  0.15944  0.55100  1.0000
  C   C4815     1.0  0.97550  0.12543  0.53061  1.0000
  H   H3846     1.0  0.64632  0.00857  0.59286  1.0000
  S   S658      1.0  0.95453  0.09493  0.51493  1.0000
  C   C4816     1.0  0.83051  0.17053  0.55598  1.0000
  S   S659      1.0  0.95364  0.23516  0.63790  1.0000
  H   H3847     1.0  0.62459  0.07951  0.69916  1.0000
  H   H3848     1.0  0.98888  0.07860  0.60041  1.0000
  H   H3849     1.0  0.78837  0.05059  0.57532  1.0000
  C   C4817     1.0  0.77651  0.07689  0.54008  1.0000
  H   H3850     1.0  0.98680  0.08798  0.52159  1.0000
  C   C4818     1.0  0.77093  0.13495  0.50080  1.0000
  C   C4819     1.0  0.83032  0.00865  0.58003  1.0000
  C   C4820     1.0  0.97184  0.19878  0.55095  1.0000
  C   C4821     1.0  0.79332  0.18149  0.53296  1.0000
  C   C4822     1.0  0.64128  0.00353  0.60354  1.0000
  C   C4823     1.0  0.71767  0.03169  0.51416  1.0000
  Fe  Fe331     1.0  0.88692  0.01318  0.50954  1.0000
  S   S660      1.0  0.86475  0.01912  0.52293  1.0000
  C   C4824     1.0  0.78055  0.03649  0.59491  1.0000
  H   H3851     1.0  0.99448  0.22048  0.69104  1.0000
  C   C4825     1.0  0.51198  0.02346  0.64838  1.0000
  S   S661      1.0  0.55780  0.01105  0.64564  1.0000
  H   H3852     1.0  0.65453  0.02979  0.70297  1.0000
  H   H3853     1.0  0.52266  0.01766  0.64382  1.0000
  C   C4826     1.0  0.85292  0.99807  0.50546  1.0000
  H   H3854     1.0  0.83949  0.15940  0.57443  1.0000
  S   S662      1.0  0.71534  0.00204  0.54034  1.0000
  Fe  Fe332     1.0  0.61630  0.03075  0.69552  1.0000
  S   S663      1.0  0.63681  0.02132  0.68112  1.0000
  Fe  Fe333     1.0  0.58342  0.03550  0.70149  1.0000
  S   S664      1.0  0.56284  0.03550  0.69560  1.0000
  S   S665      1.0  0.59892  0.04976  0.68893  1.0000
  S   S666      1.0  0.60081  0.01604  0.70649  1.0000
  Fe  Fe334     1.0  0.71092  0.02468  0.60866  1.0000
  S   S667      1.0  0.73491  0.02335  0.60091  1.0000
  S   S668      1.0  0.69596  0.01742  0.60032  1.0000
  Fe  Fe335     1.0  0.70759  0.03928  0.63236  1.0000
  S   S669      1.0  0.73139  0.03940  0.62687  1.0000
  S   S670      1.0  0.69070  0.04990  0.64923  1.0000
  Fe  Fe336     1.0  0.72958  0.04589  0.60400  1.0000
  S   S671      1.0  0.74060  0.06208  0.58667  1.0000
  Fe  Fe337     1.0  0.73529  0.01690  0.62415  1.0000
  S   S672      1.0  0.70544  0.04778  0.60960  1.0000
  S   S673      1.0  0.71169  0.01614  0.63179  1.0000
  H   H3855     1.0  0.99662  0.18276  0.63458  1.0000
  S   S674      1.0  0.83834  0.18682  0.50793  1.0000
  H   H3856     1.0  0.91079  0.10451  0.49268  1.0000
  H   H3857     1.0  0.92521  0.04924  0.48897  1.0000
  H   H3858     1.0  0.98007  0.13372  0.50789  1.0000
  H   H3859     1.0  0.69603  0.02996  0.67807  1.0000
  C   C4827     1.0  0.81108  0.13703  0.53808  1.0000
  H   H3860     1.0  0.68700  0.01084  0.55759  1.0000
  H   H3861     1.0  0.98672  0.14985  0.57518  1.0000
  H   H3862     1.0  0.67291  0.04799  0.70338  1.0000
  C   C4828     1.0  0.99936  0.24009  0.70164  1.0000
  C   C4829     1.0  0.77604  0.05538  0.53368  1.0000
  S   S675      1.0  0.93440  0.01927  0.51129  1.0000
  H   H3863     1.0  0.98783  0.20696  0.67768  1.0000
  C   C4830     1.0  0.65165  0.02954  0.67282  1.0000
  C   C4831     1.0  0.65063  0.04401  0.67200  1.0000
  C   C4832     1.0  0.66264  0.05020  0.66461  1.0000
  C   C4833     1.0  0.67572  0.04195  0.65823  1.0000
  C   C4834     1.0  0.67672  0.02744  0.65930  1.0000
  C   C4835     1.0  0.66475  0.02127  0.66656  1.0000
  H   H3864     1.0  0.64054  0.05047  0.67676  1.0000
  H   H3865     1.0  0.66171  0.06149  0.66352  1.0000
  H   H3866     1.0  0.68667  0.02098  0.65438  1.0000
  H   H3867     1.0  0.66561  0.01010  0.66713  1.0000
  C   C4836     1.0  0.62675  0.99980  0.66020  1.0000
  C   C4837     1.0  0.51922  0.99705  0.71595  1.0000
  C   C4838     1.0  0.65826  0.99573  0.73339  1.0000
  H   H3868     1.0  0.53460  0.02322  0.71714  1.0000
  C   C4839     1.0  0.70975  0.00923  0.55560  1.0000
  C   C4840     1.0  0.71998  0.01145  0.56155  1.0000
  C   C4841     1.0  0.71566  0.01502  0.57498  1.0000
  C   C4842     1.0  0.70117  0.01623  0.58240  1.0000
  C   C4843     1.0  0.69080  0.01517  0.57589  1.0000
  C   C4844     1.0  0.69508  0.01177  0.56246  1.0000
  H   H3869     1.0  0.98003  0.08994  0.54671  1.0000
  H   H3870     1.0  0.72355  0.01628  0.57987  1.0000
  H   H3871     1.0  0.77370  0.04893  0.50036  1.0000
  H   H3872     1.0  0.85721  0.22656  0.49953  1.0000
  C   C4845     1.0  0.84178  0.00049  0.57163  1.0000
  H   H3873     1.0  0.61905  0.01171  0.58475  1.0000
  H   H3874     1.0  0.82004  0.17938  0.53843  1.0000
  C   C4846     1.0  0.86380  0.23454  0.52751  1.0000
  Fe  Fe338     1.0  0.69697  0.99303  0.53996  1.0000
  C   C4847     1.0  0.55986  0.01683  0.65990  1.0000
  C   C4848     1.0  0.71831  0.02448  0.66694  1.0000
  C   C4849     1.0  0.70485  0.02145  0.67457  1.0000
  C   C4850     1.0  0.56237  0.02794  0.68183  1.0000
  C   C4851     1.0  0.55067  0.03399  0.67513  1.0000
  C   C4852     1.0  0.54949  0.02857  0.66417  1.0000
  H   H3875     1.0  0.81225  0.12080  0.51194  1.0000
  H   H3876     1.0  0.54581  0.04647  0.72008  1.0000
  H   H3877     1.0  0.54264  0.04316  0.67820  1.0000
  H   H3878     1.0  0.54053  0.03357  0.65890  1.0000
  C   C4853     1.0  0.88211  0.07684  0.48877  1.0000
  C   C4854     1.0  0.72723  0.99991  0.66422  1.0000
  C   C4855     1.0  0.89969  0.24066  0.57280  1.0000
  H   H3879     1.0  0.89758  0.21772  0.51272  1.0000
  C   C4856     1.0  0.94731  0.02812  0.49856  1.0000
  H   H3880     1.0  0.63846  0.99962  0.48643  1.0000
  S   S676      1.0  0.89610  0.13667  0.49194  1.0000
  C   C4857     1.0  0.80257  0.15055  0.53337  1.0000
  C   C4858     1.0  0.57276  0.01600  0.67777  1.0000
  C   C4859     1.0  0.94168  0.19310  0.50250  1.0000
  H   H3881     1.0  0.78088  0.04439  0.53292  1.0000
  C   C4860     1.0  0.54639  0.00329  0.71135  1.0000
  H   H3882     1.0  0.92102  0.19903  0.51651  1.0000
  H   H3883     1.0  0.81661  0.01799  0.52499  1.0000
  C   C4861     1.0  0.65579  0.02042  0.71158  1.0000
  Fe  Fe339     1.0  0.96764  0.09308  0.49267  1.0000
  C   C4862     1.0  0.95199  0.21822  0.54405  1.0000
  C   C4863     1.0  0.93210  0.19636  0.58801  1.0000
  C   C4864     1.0  0.91939  0.20519  0.59408  1.0000
  C   C4865     1.0  0.92015  0.21558  0.60079  1.0000
  C   C4866     1.0  0.93359  0.21719  0.60176  1.0000
  C   C4867     1.0  0.94633  0.20831  0.59574  1.0000
  C   C4868     1.0  0.94557  0.19800  0.58892  1.0000
  H   H3884     1.0  0.90895  0.20394  0.59371  1.0000
  C   C4869     1.0  0.99679  0.23159  0.71554  1.0000
  H   H3885     1.0  0.84456  0.23803  0.51968  1.0000
  H   H3886     1.0  0.95548  0.19118  0.58437  1.0000
  C   C4870     1.0  0.94059  0.13971  0.52454  1.0000
  C   C4871     1.0  0.94699  0.13795  0.51063  1.0000
  C   C4872     1.0  0.95060  0.12439  0.50745  1.0000
  C   C4873     1.0  0.94798  0.11240  0.51823  1.0000
  C   C4874     1.0  0.94073  0.11429  0.53204  1.0000
  C   C4875     1.0  0.93709  0.12793  0.53525  1.0000
  H   H3887     1.0  0.94936  0.14711  0.50238  1.0000
  H   H3888     1.0  0.95569  0.12323  0.49674  1.0000
  H   H3889     1.0  0.93810  0.10517  0.54026  1.0000
  H   H3890     1.0  0.93192  0.12922  0.54603  1.0000
  C   C4876     1.0  0.86352  0.19354  0.53691  1.0000
  C   C4877     1.0  0.86933  0.18216  0.52985  1.0000
  C   C4878     1.0  0.86182  0.17993  0.52084  1.0000
  C   C4879     1.0  0.84829  0.18890  0.51912  1.0000
  C   C4880     1.0  0.84238  0.20002  0.52645  1.0000
  C   C4881     1.0  0.84994  0.20232  0.53526  1.0000
  H   H3891     1.0  0.87969  0.17519  0.53115  1.0000
  H   H3892     1.0  0.86647  0.17125  0.51528  1.0000
  C   C4882     1.0  0.77593  0.07585  0.59787  1.0000
  C   C4883     1.0  0.77580  0.07718  0.58361  1.0000
  C   C4884     1.0  0.76468  0.07328  0.58030  1.0000
  C   C4885     1.0  0.75390  0.06765  0.59118  1.0000
  C   C4886     1.0  0.75397  0.06646  0.60542  1.0000
  C   C4887     1.0  0.76488  0.07066  0.60874  1.0000
  H   H3893     1.0  0.78416  0.08135  0.57512  1.0000
  H   H3894     1.0  0.76460  0.07431  0.56929  1.0000
  H   H3895     1.0  0.74552  0.06251  0.61387  1.0000
  H   H3896     1.0  0.76484  0.06974  0.61978  1.0000
  C   C4888     1.0  0.85583  0.12178  0.57033  1.0000
  C   C4889     1.0  0.86169  0.11213  0.58155  1.0000
  C   C4890     1.0  0.87198  0.11554  0.58672  1.0000
  C   C4891     1.0  0.87644  0.12860  0.58072  1.0000
  C   C4892     1.0  0.87045  0.13819  0.56959  1.0000
  C   C4893     1.0  0.86045  0.13468  0.56428  1.0000
  H   H3897     1.0  0.85818  0.10216  0.58633  1.0000
  H   H3898     1.0  0.87646  0.10808  0.59538  1.0000
  H   H3899     1.0  0.87343  0.14840  0.56505  1.0000
  H   H3900     1.0  0.85613  0.14214  0.55549  1.0000
  C   C4894     1.0  0.86025  0.03932  0.55975  1.0000
  C   C4895     1.0  0.85122  0.04548  0.55007  1.0000
  C   C4896     1.0  0.85310  0.03949  0.53847  1.0000
  C   C4897     1.0  0.86418  0.02746  0.53631  1.0000
  C   C4898     1.0  0.87366  0.02154  0.54563  1.0000
  C   C4899     1.0  0.87161  0.02742  0.55746  1.0000
  H   H3901     1.0  0.84263  0.05478  0.55157  1.0000
  H   H3902     1.0  0.84583  0.04407  0.53122  1.0000
  H   H3903     1.0  0.88223  0.01219  0.54397  1.0000
  H   H3904     1.0  0.87874  0.02275  0.56483  1.0000
  C   C4900     1.0  0.77789  0.02010  0.57744  1.0000
  C   C4901     1.0  0.82194  0.15087  0.57377  1.0000
  C   C4902     1.0  0.81266  0.07817  0.52376  1.0000
  C   C4903     1.0  0.81802  0.06368  0.52933  1.0000
  C   C4904     1.0  0.81745  0.05316  0.52276  1.0000
  H   H3905     1.0  0.75241  0.10856  0.58285  1.0000
  H   H3906     1.0  0.82231  0.06061  0.53883  1.0000
  H   H3907     1.0  0.82153  0.04197  0.52707  1.0000
  H   H3908     1.0  0.80471  0.14413  0.57016  1.0000
  C   C4905     1.0  0.81196  0.04434  0.60707  1.0000
  C   C4906     1.0  0.80064  0.04251  0.61907  1.0000
  C   C4907     1.0  0.79768  0.02893  0.62527  1.0000
  C   C4908     1.0  0.80594  0.01719  0.61937  1.0000
  C   C4909     1.0  0.81690  0.01908  0.60689  1.0000
  C   C4910     1.0  0.82012  0.03269  0.60103  1.0000
  P   P159      1.0  0.82790  0.00409  0.59916  1.0000
  C   C4911     1.0  0.95362  0.19780  0.49255  1.0000
  H   H3909     1.0  0.98785  0.10961  0.50221  1.0000
  H   H3910     1.0  0.50883  0.99434  0.71788  1.0000
  C   C4912     1.0  0.51057  0.05857  0.69356  1.0000
  H   H3911     1.0  0.99647  0.23514  0.55431  1.0000
  H   H3912     1.0  0.82063  0.11584  0.53437  1.0000
  S   S677      1.0  0.97515  0.23499  0.60630  1.0000
  C   C4913     1.0  0.65517  0.02159  0.72543  1.0000
  H   H3913     1.0  0.85427  0.01498  0.58516  1.0000
  C   C4914     1.0  0.58976  0.17048  0.73464  1.0000
  S   S678      1.0  0.90572  0.99711  0.51706  1.0000
  C   C4915     1.0  0.98057  0.13462  0.56772  1.0000
  C   C4916     1.0  0.99171  0.08432  0.58943  1.0000
  C   C4917     1.0  0.82061  0.02008  0.57342  1.0000
  C   C4918     1.0  0.82240  0.02343  0.55859  1.0000
  H   H3914     1.0  0.79800  0.00175  0.60386  1.0000
  P   P160      1.0  0.79668  0.16374  0.54421  1.0000
  C   C4919     1.0  0.99908  0.09913  0.56112  1.0000
  H   H3915     1.0  0.81438  0.05485  0.60244  1.0000
  H   H3916     1.0  0.79420  0.05168  0.62352  1.0000
  H   H3917     1.0  0.78897  0.02752  0.63466  1.0000
  H   H3918     1.0  0.80370  0.00672  0.62462  1.0000
  H   H3919     1.0  0.82893  0.03435  0.59176  1.0000
  C   C4920     1.0  0.76452  0.03493  0.49426  1.0000
  H   H3920     1.0  0.62688  0.06056  0.72091  1.0000
  C   C4921     1.0  0.70175  0.04462  0.49797  1.0000
  C   C4922     1.0  0.79743  0.15317  0.52090  1.0000
  S   S679      1.0  0.89969  0.02961  0.49665  1.0000
  C   C4923     1.0  0.50923  0.03839  0.64606  1.0000
  S   S680      1.0  0.98764  0.07566  0.48837  1.0000
  C   C4924     1.0  0.90955  0.16509  0.49983  1.0000
  H   H3921     1.0  0.65347  0.03411  0.50401  1.0000
  H   H3922     1.0  0.75900  0.05721  0.52333  1.0000
  H   H3923     1.0  0.81181  0.02656  0.57966  1.0000
  H   H3924     1.0  0.81523  0.03263  0.55350  1.0000
  H   H3925     1.0  0.81514  0.13457  0.54768  1.0000
  C   C4925     1.0  0.52775  0.99539  0.67104  1.0000
  S   S681      1.0  0.75461  0.00158  0.63207  1.0000
  C   C4926     1.0  0.82021  0.17150  0.54837  1.0000
  C   C4927     1.0  0.72964  0.11853  0.52961  1.0000
  C   C4928     1.0  0.71447  0.12092  0.53249  1.0000
  C   C4929     1.0  0.70723  0.11129  0.54325  1.0000
  C   C4930     1.0  0.71515  0.09924  0.55110  1.0000
  C   C4931     1.0  0.73030  0.09680  0.54822  1.0000
  H   H3926     1.0  0.74441  0.10260  0.56459  1.0000
  H   H3927     1.0  0.70833  0.13022  0.52636  1.0000
  H   H3928     1.0  0.69549  0.11316  0.54550  1.0000
  H   H3929     1.0  0.70959  0.09177  0.55949  1.0000
  C   C4932     1.0  0.54893  0.07252  0.68787  1.0000
  C   C4933     1.0  0.56201  0.07698  0.68406  1.0000
  C   C4934     1.0  0.56658  0.08092  0.69411  1.0000
  C   C4935     1.0  0.55820  0.08023  0.70805  1.0000
  C   C4936     1.0  0.54504  0.07575  0.71198  1.0000
  C   C4937     1.0  0.54046  0.07192  0.70176  1.0000
  C   C4938     1.0  0.62937  0.99796  0.56986  1.0000
  H   H3930     1.0  0.51854  0.06143  0.68389  1.0000
  C   C4939     1.0  0.57141  0.01035  0.66685  1.0000
  H   H3931     1.0  0.58179  0.01121  0.68297  1.0000
  C   C4940     1.0  0.70838  0.03468  0.48924  1.0000
  C   C4941     1.0  0.81151  0.05712  0.51065  1.0000
  C   C4942     1.0  0.52000  0.01030  0.71763  1.0000
  C   C4943     1.0  0.89610  0.19439  0.49388  1.0000
  C   C4944     1.0  0.87874  0.22877  0.52552  1.0000
  C   C4945     1.0  0.97172  0.22467  0.66956  1.0000
  C   C4946     1.0  0.98450  0.11065  0.51318  1.0000
  H   H3932     1.0  0.93897  0.06934  0.51451  1.0000
  C   C4947     1.0  0.63516  0.99141  0.49562  1.0000
  C   C4948     1.0  0.76407  0.02072  0.49550  1.0000
  C   C4949     1.0  0.65012  0.05292  0.71383  1.0000
  C   C4950     1.0  0.80709  0.08212  0.51145  1.0000
  H   H3933     1.0  0.69179  0.00574  0.68229  1.0000
  H   H3934     1.0  0.89774  0.19376  0.51522  1.0000
  Fe  Fe340     1.0  0.91897  0.01280  0.50258  1.0000
  H   H3935     1.0  0.54564  0.06900  0.68022  1.0000
  H   H3936     1.0  0.56878  0.07707  0.67342  1.0000
  H   H3937     1.0  0.57687  0.08413  0.69121  1.0000
  H   H3938     1.0  0.56225  0.08295  0.71569  1.0000
  C   C4951     1.0  0.67462  0.03578  0.49070  1.0000
  H   H3939     1.0  0.64407  0.99769  0.50965  1.0000
  C   C4952     1.0  0.77224  0.10568  0.50527  1.0000
  H   H3940     1.0  0.86736  0.07421  0.50955  1.0000
  C   C4953     1.0  0.76374  0.06264  0.52819  1.0000
  S   S682      1.0  0.93373  0.23082  0.61008  1.0000
  C   C4954     1.0  0.80042  0.19845  0.51091  1.0000
  C   C4955     1.0  0.54395  0.04399  0.73157  1.0000
  C   C4956     1.0  0.97330  0.16931  0.51059  1.0000
  C   C4957     1.0  0.65860  0.99469  0.71969  1.0000
  C   C4958     1.0  0.98453  0.10162  0.56870  1.0000
  H   H3941     1.0  0.78762  0.00414  0.51749  1.0000
  H   H3942     1.0  0.91455  0.15374  0.50218  1.0000
  H   H3943     1.0  0.77140  0.02120  0.61256  1.0000
  C   C4959     1.0  0.84359  0.00390  0.55680  1.0000
  C   C4960     1.0  0.87166  0.07064  0.49967  1.0000
  H   H3944     1.0  0.83545  0.01809  0.53877  1.0000
  C   C4961     1.0  0.98024  0.12418  0.51639  1.0000
  H   H3945     1.0  0.78314  0.17073  0.57222  1.0000
  C   C4962     1.0  0.90375  0.21855  0.56532  1.0000
  H   H3946     1.0  0.92329  0.05304  0.51598  1.0000
  P   P161      1.0  0.97077  0.11449  0.56020  1.0000
  C   C4963     1.0  0.75361  0.99410  0.57813  1.0000
  C   C4964     1.0  0.97050  0.13228  0.56156  1.0000
  C   C4965     1.0  0.71979  0.02329  0.49303  1.0000
  H   H3947     1.0  0.77036  0.21440  0.53238  1.0000
  H   H3948     1.0  0.78714  0.21984  0.50879  1.0000
  C   C4966     1.0  0.95810  0.15736  0.55962  1.0000
  C   C4967     1.0  0.95937  0.14381  0.55739  1.0000
  C   C4968     1.0  0.65750  0.00700  0.70878  1.0000
  H   H3949     1.0  0.76098  0.16581  0.59009  1.0000
  C   C4969     1.0  0.87134  0.99621  0.61209  1.0000
  S   S683      1.0  0.80974  0.04386  0.50321  1.0000
  H   H3950     1.0  0.74523  0.15297  0.58531  1.0000
  C   C4970     1.0  0.95299  0.11071  0.56887  1.0000
  C   C4971     1.0  0.94802  0.10076  0.56501  1.0000
  C   C4972     1.0  0.93393  0.09858  0.57114  1.0000
  C   C4973     1.0  0.92473  0.10619  0.58128  1.0000
  C   C4974     1.0  0.92974  0.11572  0.58556  1.0000
  C   C4975     1.0  0.94383  0.11790  0.57950  1.0000
  H   H3951     1.0  0.65914  0.00400  0.63474  1.0000
  C   C4976     1.0  0.87831  0.10740  0.51190  1.0000
  C   C4977     1.0  0.92052  0.06431  0.51093  1.0000
  C   C4978     1.0  0.97986  0.09961  0.53837  1.0000
  H   H3952     1.0  0.88943  0.10702  0.51151  1.0000
  H   H3953     1.0  0.74735  0.99652  0.52807  1.0000
  H   H3954     1.0  0.55691  0.00581  0.70943  1.0000
  C   C4979     1.0  0.77309  0.03797  0.50153  1.0000
  H   H3955     1.0  0.94923  0.16612  0.55671  1.0000
  H   H3956     1.0  0.95146  0.14219  0.55270  1.0000
  H   H3957     1.0  0.90165  0.06231  0.50562  1.0000
  P   P162      1.0  0.50384  0.02253  0.72458  1.0000
  S   S684      1.0  0.64429  0.00613  0.56270  1.0000
  C   C4980     1.0  0.50229  0.04074  0.71429  1.0000
  C   C4981     1.0  0.90462  0.08412  0.49830  1.0000
  C   C4982     1.0  0.99302  0.23415  0.51131  1.0000
  H   H3958     1.0  0.58426  0.99399  0.55317  1.0000
  H   H3959     1.0  0.91363  0.10494  0.58569  1.0000
  H   H3960     1.0  0.92247  0.12176  0.59329  1.0000
  H   H3961     1.0  0.94735  0.12549  0.58291  1.0000
  H   H3962     1.0  0.78785  0.02915  0.51565  1.0000
  H   H3963     1.0  0.94322  0.21558  0.52765  1.0000
  C   C4983     1.0  0.72437  0.02180  0.50549  1.0000
  H   H3964     1.0  0.83815  0.17748  0.55185  1.0000
  P   P163      1.0  0.88864  0.09120  0.49085  1.0000
  C   C4984     1.0  0.99384  0.16715  0.49054  1.0000
  P   P164      1.0  0.62769  0.01260  0.64325  1.0000
  C   C4985     1.0  0.61008  0.02474  0.64432  1.0000
  C   C4986     1.0  0.64193  0.02213  0.63971  1.0000
  C   C4987     1.0  0.63876  0.03669  0.64009  1.0000
  C   C4988     1.0  0.64993  0.04412  0.63593  1.0000
  C   C4989     1.0  0.66429  0.03712  0.63133  1.0000
  C   C4990     1.0  0.66756  0.02258  0.63124  1.0000
  C   C4991     1.0  0.65645  0.01514  0.63530  1.0000
  C   C4992     1.0  0.60415  0.03152  0.65588  1.0000
  C   C4993     1.0  0.59029  0.04054  0.65713  1.0000
  C   C4994     1.0  0.58210  0.04252  0.64710  1.0000
  C   C4995     1.0  0.58780  0.03556  0.63575  1.0000
  C   C4996     1.0  0.60178  0.02676  0.63429  1.0000
  C   C4997     1.0  0.92934  0.07344  0.51009  1.0000
  C   C4998     1.0  0.77885  0.11310  0.49208  1.0000
  H   H3965     1.0  0.90079  0.03850  0.53775  1.0000
  C   C4999     1.0  0.91750  0.22038  0.55722  1.0000
  H   H3966     1.0  0.77062  0.14624  0.49908  1.0000
  C   C5000     1.0  0.63828  0.01020  0.61491  1.0000
  C   C5001     1.0  0.78162  0.19230  0.53753  1.0000
  C   C5002     1.0  0.78281  0.03286  0.57145  1.0000
  H   H3967     1.0  0.52200  0.03668  0.69800  1.0000
  S   S685      1.0  0.67778  0.00569  0.53061  1.0000
  H   H3968     1.0  0.75850  0.04358  0.48735  1.0000
  H   H3969     1.0  0.62776  0.04243  0.64345  1.0000
  H   H3970     1.0  0.64750  0.05529  0.63640  1.0000
  H   H3971     1.0  0.67297  0.04285  0.62822  1.0000
  H   H3972     1.0  0.67875  0.01710  0.62802  1.0000
  H   H3973     1.0  0.88143  0.99471  0.61524  1.0000
  H   H3974     1.0  0.61022  0.02973  0.66397  1.0000
  H   H3975     1.0  0.58568  0.04558  0.66618  1.0000
  H   H3976     1.0  0.57117  0.04908  0.64838  1.0000
  H   H3977     1.0  0.58125  0.03670  0.62826  1.0000
  H   H3978     1.0  0.60588  0.02134  0.62550  1.0000
  H   H3979     1.0  0.87726  0.01110  0.59222  1.0000
  C   C5003     1.0  0.80110  0.14254  0.51310  1.0000
  C   C5004     1.0  0.66233  0.05495  0.70271  1.0000
  H   H3980     1.0  0.97166  0.13599  0.53276  1.0000
  H   H3981     1.0  0.64106  0.02047  0.61283  1.0000
  C   C5005     1.0  0.85073  0.99489  0.49363  1.0000
  H   H3982     1.0  0.94904  0.03955  0.51311  1.0000
  H   H3983     1.0  0.55559  0.20156  0.73275  1.0000
  C   C5006     1.0  0.95347  0.21253  0.48863  1.0000
  H   H3984     1.0  0.75730  0.01879  0.48976  1.0000
  C   C5007     1.0  0.64735  0.07476  0.68930  1.0000
  H   H3985     1.0  0.56231  0.11868  0.71942  1.0000
  C   C5008     1.0  0.63165  0.00371  0.62873  1.0000
  P   P165      1.0  0.53465  0.07352  0.73022  1.0000
  C   C5009     1.0  0.86751  0.11408  0.52192  1.0000
  C   C5010     1.0  0.85619  0.23381  0.51799  1.0000
  C   C5011     1.0  0.63515  0.07275  0.70026  1.0000
  H   H3986     1.0  0.51780  0.04395  0.63989  1.0000
  H   H3987     1.0  0.90012  0.20906  0.56586  1.0000
  C   C5012     1.0  0.72951  0.01370  0.66183  1.0000
  H   H3988     1.0  0.54620  0.99403  0.67918  1.0000
  C   C5013     1.0  0.91347  0.09322  0.49764  1.0000
  H   H3989     1.0  0.73281  0.01273  0.50869  1.0000
  H   H3990     1.0  0.72093  0.03027  0.52402  1.0000
  C   C5014     1.0  0.70637  0.04310  0.51040  1.0000
  C   C5015     1.0  0.86636  0.05986  0.49782  1.0000
  H   H3991     1.0  0.74639  0.00275  0.57263  1.0000
  C   C5016     1.0  0.77250  0.00943  0.50380  1.0000
  C   C5017     1.0  0.76488  0.11285  0.51641  1.0000
  C   C5018     1.0  0.56512  0.19287  0.73326  1.0000
  H   H3992     1.0  0.85664  0.09925  0.49552  1.0000
  C   C5019     1.0  0.96227  0.21190  0.55257  1.0000
  C   C5020     1.0  0.76377  0.16242  0.58009  1.0000
  H   H3993     1.0  0.96549  0.05391  0.49490  1.0000
  C   C5021     1.0  0.90821  0.06961  0.50504  1.0000
  C   C5022     1.0  0.78876  0.20915  0.51549  1.0000
  H   H3994     1.0  0.61237  0.10542  0.73338  1.0000
  C   C5023     1.0  0.78116  0.02682  0.51008  1.0000
  H   H3995     1.0  0.98579  0.23126  0.72153  1.0000
  H   H3996     1.0  0.59881  0.99928  0.59656  1.0000
  C   C5024     1.0  0.97555  0.11316  0.54174  1.0000
  C   C5025     1.0  0.87466  0.10150  0.50254  1.0000
  H   H3997     1.0  0.95676  0.20942  0.59634  1.0000
  C   C5026     1.0  0.94165  0.22230  0.49462  1.0000
  H   H3998     1.0  0.83789  0.11057  0.51326  1.0000
  C   C5027     1.0  0.77115  0.15344  0.55440  1.0000
  H   H3999     1.0  0.87042  0.11865  0.52906  1.0000
  H   H4000     1.0  0.95475  0.09499  0.55694  1.0000
  C   C5028     1.0  0.90159  0.12080  0.55028  1.0000
  C   C5029     1.0  0.90354  0.12512  0.53546  1.0000
  C   C5030     1.0  0.90509  0.11516  0.52748  1.0000
  C   C5031     1.0  0.90455  0.10095  0.53429  1.0000
  C   C5032     1.0  0.90226  0.09658  0.54920  1.0000
  C   C5033     1.0  0.90084  0.10665  0.55715  1.0000
  P   P166      1.0  0.90295  0.07788  0.55766  1.0000
  C   C5034     1.0  0.89215  0.07594  0.57575  1.0000
  C   C5035     1.0  0.89592  0.06988  0.54771  1.0000
  C   C5036     1.0  0.88366  0.07760  0.54215  1.0000
  C   C5037     1.0  0.87774  0.07129  0.53500  1.0000
  C   C5038     1.0  0.88388  0.05721  0.53345  1.0000
  C   C5039     1.0  0.89607  0.04944  0.53897  1.0000
  C   C5040     1.0  0.90209  0.05573  0.54610  1.0000
  C   C5041     1.0  0.89725  0.07820  0.58652  1.0000
  C   C5042     1.0  0.88899  0.07670  0.60054  1.0000
  C   C5043     1.0  0.87571  0.07267  0.60398  1.0000
  C   C5044     1.0  0.87071  0.07008  0.59341  1.0000
  C   C5045     1.0  0.87881  0.07180  0.57934  1.0000
  C   C5046     1.0  0.92164  0.06891  0.55781  1.0000
  C   C5047     1.0  0.93298  0.07379  0.54704  1.0000
  C   C5048     1.0  0.94743  0.06672  0.54714  1.0000
  C   C5049     1.0  0.95068  0.05467  0.55789  1.0000
  C   C5050     1.0  0.93946  0.04964  0.56856  1.0000
  C   C5051     1.0  0.92498  0.05670  0.56851  1.0000
  H   H4001     1.0  0.90064  0.12844  0.55648  1.0000
  H   H4002     1.0  0.90400  0.13613  0.53015  1.0000
  H   H4003     1.0  0.90679  0.11846  0.51599  1.0000
  H   H4004     1.0  0.90601  0.09332  0.52792  1.0000
  H   H4005     1.0  0.89912  0.10375  0.56862  1.0000
  H   H4006     1.0  0.87846  0.08839  0.54362  1.0000
  H   H4007     1.0  0.86819  0.07730  0.53092  1.0000
  C   C5052     1.0  0.85599  0.00748  0.59507  1.0000
  H   H4008     1.0  0.79058  0.16339  0.51718  1.0000
  H   H4009     1.0  0.91145  0.04947  0.55038  1.0000
  H   H4010     1.0  0.90755  0.08124  0.58405  1.0000
  H   H4011     1.0  0.89281  0.07882  0.60872  1.0000
  H   H4012     1.0  0.86924  0.07161  0.61481  1.0000
  H   H4013     1.0  0.86050  0.06679  0.59605  1.0000
  H   H4014     1.0  0.87454  0.06981  0.57141  1.0000
  H   H4015     1.0  0.93077  0.08298  0.53847  1.0000
  H   H4016     1.0  0.95610  0.07056  0.53875  1.0000
  H   H4017     1.0  0.96190  0.04915  0.55783  1.0000
  H   H4018     1.0  0.94196  0.04019  0.57679  1.0000
  H   H4019     1.0  0.91639  0.05253  0.57670  1.0000
  C   C5053     1.0  0.77498  0.02420  0.60106  1.0000
  H   H4020     1.0  0.93246  0.09510  0.50280  1.0000
  C   C5054     1.0  0.87843  0.22104  0.50465  1.0000
  H   H4021     1.0  0.57939  0.00122  0.66360  1.0000
  C   C5055     1.0  0.98599  0.22577  0.68520  1.0000
  C   C5056     1.0  0.96079  0.19798  0.53255  1.0000
  C   C5057     1.0  0.97914  0.17298  0.49587  1.0000
  H   H4022     1.0  0.72502  0.01547  0.48654  1.0000
  H   H4023     1.0  0.75172  0.14511  0.56247  1.0000
  P   P167      1.0  0.77469  0.01057  0.56603  1.0000
  C   C5058     1.0  0.76105  0.02252  0.55672  1.0000
  C   C5059     1.0  0.75936  0.01974  0.54437  1.0000
  C   C5060     1.0  0.74842  0.02858  0.53743  1.0000
  C   C5061     1.0  0.73890  0.04008  0.54296  1.0000
  C   C5062     1.0  0.74047  0.04289  0.55529  1.0000
  C   C5063     1.0  0.75149  0.03417  0.56214  1.0000
  C   C5064     1.0  0.79044  0.00491  0.55236  1.0000
  P   P168      1.0  0.88831  0.21343  0.48931  1.0000
  H   H4024     1.0  0.96979  0.09607  0.58902  1.0000
  H   H4025     1.0  0.99545  0.16402  0.62330  1.0000
  C   C5065     1.0  0.81022  0.01041  0.53203  1.0000
  C   C5066     1.0  0.79902  0.01450  0.54332  1.0000
  H   H4026     1.0  0.68018  0.02856  0.49882  1.0000
  H   H4027     1.0  0.73125  0.00987  0.55605  1.0000
  H   H4028     1.0  0.70101  0.05059  0.51729  1.0000
  H   H4029     1.0  0.88437  0.22699  0.57967  1.0000
  C   C5067     1.0  0.75490  0.15520  0.57740  1.0000
  H   H4030     1.0  0.76628  0.01058  0.54027  1.0000
  H   H4031     1.0  0.74712  0.02631  0.52796  1.0000
  H   H4032     1.0  0.73021  0.04674  0.53780  1.0000
  H   H4033     1.0  0.73307  0.05173  0.55970  1.0000
  H   H4034     1.0  0.75230  0.03650  0.57178  1.0000
  C   C5068     1.0  0.97920  0.14819  0.57005  1.0000
  H   H4035     1.0  0.77383  0.14978  0.54458  1.0000
  H   H4036     1.0  0.92425  0.21218  0.55159  1.0000
  C   C5069     1.0  0.78099  0.01263  0.51111  1.0000
  C   C5070     1.0  0.90011  0.18786  0.50701  1.0000
  H   H4037     1.0  0.82159  0.99371  0.52064  1.0000
  C   C5071     1.0  0.56310  0.14751  0.73088  1.0000
  H   H4038     1.0  0.85285  0.99807  0.55024  1.0000
  H   H4039     1.0  0.82309  0.14245  0.58325  1.0000
  C   C5072     1.0  0.80648  0.07163  0.50492  1.0000
  C   C5073     1.0  0.61844  0.00276  0.58102  1.0000
  H   H4040     1.0  0.80798  0.20081  0.50076  1.0000
  C   C5074     1.0  0.84916  0.10963  0.51306  1.0000
  H   H4041     1.0  0.94115  0.18191  0.50521  1.0000
  C   C5075     1.0  0.75854  0.15079  0.56453  1.0000
  H   H4042     1.0  0.77433  0.19018  0.54784  1.0000
  C   C5076     1.0  0.81054  0.16223  0.55353  1.0000
  C   C5077     1.0  0.66804  0.04058  0.73443  1.0000
  H   H4043     1.0  0.94018  0.23432  0.57503  1.0000
  H   H4044     1.0  0.85818  0.05520  0.50621  1.0000
  H   H4045     1.0  0.78137  0.04296  0.60158  1.0000
  H   H4046     1.0  0.73503  0.12606  0.52119  1.0000
  C   C5078     1.0  0.95127  0.21109  0.53410  1.0000
  H   H4047     1.0  0.97759  0.15802  0.53124  1.0000
  C   C5079     1.0  0.90695  0.17331  0.50987  1.0000
  H   H4048     1.0  0.57997  0.20596  0.71960  1.0000
  H   H4049     1.0  0.84464  0.12025  0.53043  1.0000
  H   H4050     1.0  0.96190  0.17298  0.51501  1.0000
  C   C5080     1.0  0.77934  0.20607  0.52879  1.0000
  C   C5081     1.0  0.96182  0.04608  0.49202  1.0000
  C   C5082     1.0  0.73766  0.10648  0.53749  1.0000
  H   H4051     1.0  0.73625  0.08737  0.55445  1.0000
  C   C5083     1.0  0.63650  0.06192  0.71255  1.0000
  S   S686      1.0  0.85456  0.14791  0.49892  1.0000
  C   C5084     1.0  0.83380  0.01525  0.55030  1.0000
  C   C5085     1.0  0.81163  0.15178  0.56621  1.0000
  H   H4052     1.0  0.52553  0.00695  0.66838  1.0000
  H   H4053     1.0  0.76890  0.00678  0.59757  1.0000
  H   H4054     1.0  0.81195  0.17657  0.51597  1.0000
  C   C5086     1.0  0.77635  0.16514  0.56997  1.0000
  C   C5087     1.0  0.77547  0.11286  0.54404  1.0000
  H   H4055     1.0  0.60836  0.09868  0.71311  1.0000
  H   H4056     1.0  0.53061  0.06795  0.70468  1.0000
  C   C5088     1.0  0.70250  0.00771  0.67690  1.0000
  H   H4057     1.0  0.94139  0.23365  0.49111  1.0000
  C   C5089     1.0  0.98218  0.16063  0.51988  1.0000
  C   C5090     1.0  0.95250  0.03796  0.50231  1.0000
  C   C5091     1.0  0.93007  0.20287  0.50875  1.0000
  H   H4058     1.0  0.67041  0.06732  0.68196  1.0000
  H   H4059     1.0  0.91021  0.22237  0.60537  1.0000
  C   C5092     1.0  0.77970  0.11658  0.55443  1.0000
  C   C5093     1.0  0.60484  0.09283  0.72388  1.0000
  Fe  Fe341     1.0  0.84917  0.17184  0.49288  1.0000
  C   C5094     1.0  0.78230  0.06247  0.53975  1.0000
  S   S687      1.0  0.61607  0.03685  0.71548  1.0000
  H   H4060     1.0  0.86341  0.20175  0.49238  1.0000
  H   H4061     1.0  0.71987  0.03531  0.66458  1.0000
  H   H4062     1.0  0.91001  0.16829  0.52000  1.0000
  C   C5095     1.0  0.85993  0.10313  0.50291  1.0000
  C   C5096     1.0  0.75412  0.10676  0.56145  1.0000
  H   H4063     1.0  0.80188  0.07478  0.49559  1.0000
  H   H4064     1.0  0.73983  0.01614  0.65562  1.0000
  H   H4065     1.0  0.77330  0.09430  0.50672  1.0000
  C   C5097     1.0  0.75859  0.11022  0.57190  1.0000
  C   C5098     1.0  0.93001  0.21748  0.50477  1.0000
  C   C5099     1.0  0.96783  0.15949  0.56620  1.0000
  H   H4066     1.0  0.67949  0.01654  0.58141  1.0000
  H   H4067     1.0  0.93001  0.09130  0.56768  1.0000
  C   C5100     1.0  0.56013  0.13972  0.72280  1.0000
  C   C5101     1.0  0.59115  0.18417  0.72654  1.0000
  C   C5102     1.0  0.88603  0.22211  0.51412  1.0000
  C   C5103     1.0  0.97912  0.24027  0.68475  1.0000
  C   C5104     1.0  0.98403  0.09841  0.52416  1.0000
  C   C5105     1.0  0.77369  0.01598  0.59241  1.0000
  H   H4068     1.0  0.80306  0.09333  0.50705  1.0000
  H   H4069     1.0  0.79703  0.02528  0.54453  1.0000
  H   H4070     1.0  0.78968  0.12023  0.55170  1.0000
  P   P169      1.0  0.93984  0.23538  0.54564  1.0000
  C   C5106     1.0  0.92577  0.08790  0.50343  1.0000
  H   H4071     1.0  0.96283  0.21693  0.56060  1.0000
  C   C5107     1.0  0.86906  0.00536  0.59909  1.0000
  C   C5108     1.0  0.83127  0.16034  0.56874  1.0000
  S   S688      1.0  0.58035  0.04233  0.72194  1.0000
  H   H4072     1.0  0.83191  0.20693  0.52526  1.0000
  H   H4073     1.0  0.79195  0.05699  0.54383  1.0000
  Fe  Fe342     1.0  0.66453  0.99397  0.55027  1.0000
  H   H4074     1.0  0.77510  0.11734  0.57659  1.0000
  H   H4075     1.0  0.78194  0.08230  0.54429  1.0000
  C   C5109     1.0  0.98091  0.09421  0.58293  1.0000
  C   C5110     1.0  0.78443  0.04082  0.58010  1.0000
  Fe  Fe343     1.0  0.97756  0.23339  0.62841  1.0000
  C   C5111     1.0  0.66096  0.06592  0.69057  1.0000
  C   C5112     1.0  0.97114  0.19185  0.54090  1.0000
  H   H4076     1.0  0.85371  0.00885  0.50493  1.0000
  C   C5113     1.0  0.78021  0.16054  0.55710  1.0000
  H   H4077     1.0  0.84524  0.21098  0.54081  1.0000
  H   H4078     1.0  0.74840  0.08260  0.52413  1.0000
  H   H4079     1.0  0.55959  0.15905  0.72851  1.0000
  C   C5114     1.0  0.76408  0.08420  0.53473  1.0000
  H   H4080     1.0  0.99003  0.22862  0.50507  1.0000
  C   C5115     1.0  0.98225  0.21802  0.67765  1.0000
  H   H4081     1.0  0.64622  0.08305  0.67972  1.0000
  Fe  Fe344     1.0  0.59739  0.05477  0.70999  1.0000
  H   H4082     1.0  0.97963  0.19390  0.55768  1.0000
  H   H4083     1.0  0.97844  0.18162  0.53976  1.0000
  H   H4084     1.0  0.92088  0.22509  0.50940  1.0000
  C   C5116     1.0  0.81434  0.12634  0.53047  1.0000
  C   C5117     1.0  0.76421  0.12758  0.51403  1.0000
  P   P170      1.0  0.75725  0.10311  0.53389  1.0000
  C   C5118     1.0  0.76253  0.10807  0.54740  1.0000
  H   H4085     1.0  0.75877  0.13327  0.52252  1.0000
  S   S689      1.0  0.59513  0.07758  0.71133  1.0000
  C   C5119     1.0  0.80268  0.18468  0.51959  1.0000
  H   H4086     1.0  0.87916  0.05226  0.52806  1.0000
  H   H4087     1.0  0.96907  0.21871  0.66347  1.0000
  H   H4088     1.0  0.78257  0.11336  0.53350  1.0000
  H   H4089     1.0  0.78466  0.03714  0.56018  1.0000
  C   C5120     1.0  0.85293  0.11503  0.52264  1.0000
  C   C5121     1.0  0.51049  0.09089  0.71978  1.0000
  C   C5122     1.0  0.99683  0.15508  0.51453  1.0000
  C   C5123     1.0  0.53370  0.01322  0.71556  1.0000
  C   C5124     1.0  0.75774  0.07701  0.52873  1.0000
  C   C5125     1.0  0.77140  0.11508  0.56840  1.0000
  C   C5126     1.0  0.59827  0.08139  0.72622  1.0000
  H   H4090     1.0  0.51797  0.09690  0.71194  1.0000
  H   H4091     1.0  0.95998  0.19254  0.52498  1.0000
  H   H4092     1.0  0.69292  0.05349  0.49522  1.0000
  H   H4093     1.0  0.82909  0.10266  0.48905  1.0000
  C   C5127     1.0  0.50863  0.99373  0.64124  1.0000
  H   H4094     1.0  0.98926  0.12596  0.57109  1.0000
  C   C5128     1.0  0.56449  0.12477  0.72570  1.0000
  C   C5129     1.0  0.80947  0.12909  0.51794  1.0000
  H   H4095     1.0  0.79868  0.00179  0.48660  1.0000
  H   H4096     1.0  0.92489  0.12415  0.49523  1.0000
  H   H4097     1.0  0.88455  0.22892  0.53317  1.0000
  C   C5130     1.0  0.51258  0.04452  0.70173  1.0000
  H   H4098     1.0  0.79758  0.14466  0.50325  1.0000
  C   C5131     1.0  0.86344  0.22708  0.50662  1.0000
  H   H4099     1.0  0.95968  0.23774  0.51762  1.0000
  Fe  Fe345     1.0  0.59905  0.02392  0.72589  1.0000
  C   C5132     1.0  0.61407  0.99458  0.66676  1.0000
  H   H4100     1.0  0.60500  0.99794  0.66160  1.0000
  H   H4101     1.0  0.85807  0.23919  0.53667  1.0000
  H   H4102     1.0  0.96629  0.16985  0.56857  1.0000
  H   H4103     1.0  0.64785  0.99973  0.66272  1.0000
  C   C5133     1.0  0.89487  0.22864  0.57314  1.0000
  C   C5134     1.0  0.76787  0.99500  0.57701  1.0000
  H   H4104     1.0  0.60180  0.18609  0.72080  1.0000
  C   C5135     1.0  0.84513  0.00038  0.60396  1.0000
  C   C5136     1.0  0.92242  0.23247  0.55674  1.0000
  S   S690      1.0  0.99440  0.21534  0.63774  1.0000
  H   H4105     1.0  0.66197  0.06381  0.73014  1.0000
  Fe  Fe346     1.0  0.95107  0.23864  0.61540  1.0000
  C   C5137     1.0  0.57885  0.19536  0.72586  1.0000
  S   S691      1.0  0.88859  0.00385  0.49120  1.0000
  H   H4106     1.0  0.55449  0.14526  0.71426  1.0000
  C   C5138     1.0  0.65944  0.03881  0.49365  1.0000
  H   H4107     1.0  0.65764  0.00617  0.69818  1.0000
  P   P171      1.0  0.65233  0.03887  0.72953  1.0000
  C   C5139     1.0  0.51556  0.07905  0.73007  1.0000
  C   C5140     1.0  0.77832  0.12768  0.48985  1.0000
  C   C5141     1.0  0.96497  0.23911  0.66894  1.0000
  P   P172      1.0  0.50470  0.99685  0.65895  1.0000
  C   C5142     1.0  0.81298  0.99674  0.52951  1.0000
  C   C5143     1.0  0.90544  0.17145  0.48683  1.0000
  H   H4108     1.0  0.61260  0.99194  0.72818  1.0000
  H   H4109     1.0  0.68336  0.99329  0.59844  1.0000
  C   C5144     1.0  0.60703  0.99568  0.58778  1.0000
  H   H4110     1.0  0.84949  0.99171  0.57650  1.0000
  C   C5145     1.0  0.63830  0.99531  0.66718  1.0000
  H   H4111     1.0  0.55181  0.02135  0.73262  1.0000
  C   C5146     1.0  0.71375  0.99679  0.67190  1.0000
  C   C5147     1.0  0.60704  0.09672  0.73537  1.0000
  C   C5148     1.0  0.66987  0.05430  0.73363  1.0000
  H   H4112     1.0  0.59945  0.16203  0.73501  1.0000
  C   C5149     1.0  0.84730  0.99152  0.61718  1.0000
  H   H4113     1.0  0.73587  0.99186  0.65971  1.0000
  Fe  Fe347     1.0  0.55500  0.09978  0.79629  1.0000
  S   S692      1.0  0.55746  0.09981  0.81786  1.0000
  S   S693      1.0  0.53245  0.10510  0.79204  1.0000
  Fe  Fe348     1.0  0.58754  0.09628  0.78356  1.0000
  S   S694      1.0  0.59268  0.09631  0.80409  1.0000
  Fe  Fe349     1.0  0.57684  0.08191  0.81388  1.0000
  S   S695      1.0  0.58056  0.06213  0.83123  1.0000
  Fe  Fe350     1.0  0.57293  0.11434  0.80640  1.0000
  S   S696      1.0  0.56834  0.13546  0.81324  1.0000
  S   S697      1.0  0.57320  0.08060  0.79311  1.0000
  S   S698      1.0  0.56914  0.11548  0.78496  1.0000
  Fe  Fe351     1.0  0.58653  0.17103  0.86520  1.0000
  S   S699      1.0  0.57361  0.19347  0.86676  1.0000
  S   S700      1.0  0.59848  0.16142  0.84575  1.0000
  Fe  Fe352     1.0  0.58108  0.16077  0.89735  1.0000
  S   S701      1.0  0.56742  0.18186  0.90172  1.0000
  S   S702      1.0  0.58444  0.14105  0.91467  1.0000
  Fe  Fe353     1.0  0.55754  0.18236  0.88391  1.0000
  S   S703      1.0  0.53310  0.18903  0.88744  1.0000
  Fe  Fe354     1.0  0.58454  0.19130  0.88464  1.0000
  S   S704      1.0  0.59061  0.21069  0.88754  1.0000
  S   S705      1.0  0.56964  0.16032  0.88110  1.0000
  S   S706      1.0  0.59903  0.16991  0.88142  1.0000
  H   H4114     1.0  0.55593  0.06946  0.81873  1.0000
  S   S707      1.0  0.51531  0.08595  0.92820  1.0000
  Fe  Fe355     1.0  0.52633  0.08154  0.96387  1.0000
  S   S708      1.0  0.54244  0.08240  0.94283  1.0000
  Fe  Fe356     1.0  0.52523  0.10022  0.93439  1.0000
  S   S709      1.0  0.52721  0.12174  0.92051  1.0000
  Fe  Fe357     1.0  0.53094  0.06792  0.93882  1.0000
  S   S710      1.0  0.54389  0.04948  0.92849  1.0000
  C   C5150     1.0  0.51489  0.19723  0.93084  1.0000
  Fe  Fe358     1.0  0.52380  0.01582  0.85777  1.0000
  C   C5151     1.0  0.62594  0.17722  0.84683  1.0000
  S   S711      1.0  0.53252  0.02918  0.83664  1.0000
  C   C5152     1.0  0.51801  0.17560  0.92287  1.0000
  H   H4115     1.0  0.60452  0.12978  0.78865  1.0000
  H   H4116     1.0  0.61598  0.13282  0.91808  1.0000
  C   C5153     1.0  0.52393  0.16747  0.93458  1.0000
  S   S712      1.0  0.53444  0.00446  0.87630  1.0000
  H   H4117     1.0  0.53196  0.21268  0.90067  1.0000
  C   C5154     1.0  0.51480  0.99840  0.80926  1.0000
  C   C5155     1.0  0.50560  0.07165  0.74028  1.0000
  C   C5156     1.0  0.71624  0.23866  0.96663  1.0000
  S   S713      1.0  0.51603  0.06559  0.96056  1.0000
  S   S714      1.0  0.61803  0.21547  0.93648  1.0000
  H   H4118     1.0  0.52404  0.11294  0.75531  1.0000
  S   S715      1.0  0.50784  0.15735  0.85650  1.0000
  H   H4119     1.0  0.53678  0.07606  0.84555  1.0000
  H   H4120     1.0  0.50307  0.12627  0.79994  1.0000
  C   C5157     1.0  0.52102  0.09456  0.87903  1.0000
  C   C5158     1.0  0.52564  0.08115  0.84489  1.0000
  C   C5159     1.0  0.53806  0.14425  0.78452  1.0000
  C   C5160     1.0  0.62166  0.14095  0.91106  1.0000
  C   C5161     1.0  0.69251  0.04385  0.74140  1.0000
  C   C5162     1.0  0.63578  0.16223  0.89241  1.0000
  C   C5163     1.0  0.52859  0.09266  0.88960  1.0000
  C   C5164     1.0  0.53297  0.04177  0.92296  1.0000
  C   C5165     1.0  0.51783  0.04607  0.92653  1.0000
  H   H4121     1.0  0.51333  0.18983  0.83733  1.0000
  H   H4122     1.0  0.62440  0.12130  0.74688  1.0000
  C   C5166     1.0  0.53080  0.02486  0.91062  1.0000
  C   C5167     1.0  0.53945  0.03109  0.91507  1.0000
  H   H4123     1.0  0.53580  0.01657  0.90462  1.0000
  H   H4124     1.0  0.55116  0.02767  0.91238  1.0000
  C   C5168     1.0  0.59752  0.21201  0.90166  1.0000
  C   C5169     1.0  0.60099  0.22494  0.90111  1.0000
  C   C5170     1.0  0.60681  0.22636  0.91189  1.0000
  C   C5171     1.0  0.60942  0.21477  0.92330  1.0000
  C   C5172     1.0  0.60569  0.20191  0.92399  1.0000
  C   C5173     1.0  0.59962  0.20059  0.91334  1.0000
  H   H4125     1.0  0.52180  0.12728  0.89232  1.0000
  H   H4126     1.0  0.62767  0.02434  0.74222  1.0000
  H   H4127     1.0  0.60762  0.19288  0.93276  1.0000
  H   H4128     1.0  0.59665  0.19072  0.91412  1.0000
  C   C5174     1.0  0.56868  0.13509  0.91701  1.0000
  C   C5175     1.0  0.55609  0.14525  0.91443  1.0000
  C   C5176     1.0  0.54370  0.14089  0.91482  1.0000
  C   C5177     1.0  0.54353  0.12639  0.91861  1.0000
  C   C5178     1.0  0.55607  0.11610  0.92123  1.0000
  C   C5179     1.0  0.56875  0.12048  0.92025  1.0000
  H   H4129     1.0  0.55590  0.15654  0.91187  1.0000
  H   H4130     1.0  0.53417  0.14878  0.91227  1.0000
  H   H4131     1.0  0.55610  0.10483  0.92373  1.0000
  H   H4132     1.0  0.57864  0.11260  0.92157  1.0000
  C   C5180     1.0  0.51434  0.16609  0.86560  1.0000
  H   H4133     1.0  0.50603  0.14884  0.93135  1.0000
  C   C5181     1.0  0.51131  0.17888  0.88398  1.0000
  C   C5182     1.0  0.52592  0.17996  0.87924  1.0000
  C   C5183     1.0  0.53465  0.17417  0.86767  1.0000
  C   C5184     1.0  0.52883  0.16741  0.86080  1.0000
  S   S716      1.0  0.63807  0.23297  0.95457  1.0000
  C   C5185     1.0  0.53878  0.05489  0.73925  1.0000
  H   H4134     1.0  0.54586  0.17510  0.86383  1.0000
  H   H4135     1.0  0.53565  0.16313  0.85171  1.0000
  C   C5186     1.0  0.69238  0.15975  0.86123  1.0000
  C   C5187     1.0  0.59513  0.07842  0.75185  1.0000
  C   C5188     1.0  0.53804  0.15278  0.79345  1.0000
  C   C5189     1.0  0.68344  0.16864  0.85208  1.0000
  H   H4136     1.0  0.59136  0.07291  0.76268  1.0000
  C   C5190     1.0  0.52992  0.99664  0.80594  1.0000
  C   C5191     1.0  0.57673  0.14083  0.82384  1.0000
  C   C5192     1.0  0.56833  0.15102  0.83191  1.0000
  C   C5193     1.0  0.57474  0.15684  0.83925  1.0000
  C   C5194     1.0  0.58977  0.15298  0.83813  1.0000
  C   C5195     1.0  0.59819  0.14264  0.83020  1.0000
  C   C5196     1.0  0.59168  0.13640  0.82329  1.0000
  H   H4137     1.0  0.55678  0.15455  0.83237  1.0000
  H   H4138     1.0  0.56810  0.16474  0.84531  1.0000
  H   H4139     1.0  0.60982  0.13957  0.82927  1.0000
  H   H4140     1.0  0.59830  0.12866  0.81704  1.0000
  H   H4141     1.0  0.50447  0.18340  0.89289  1.0000
  H   H4142     1.0  0.55535  0.09827  0.96736  1.0000
  H   H4143     1.0  0.53134  0.03094  0.80413  1.0000
  C   C5197     1.0  0.53386  0.07794  0.78920  1.0000
  P   P173      1.0  0.55574  0.00585  0.80047  1.0000
  H   H4144     1.0  0.57511  0.10603  0.73895  1.0000
  H   H4145     1.0  0.54509  0.07544  0.78988  1.0000
  C   C5198     1.0  0.56698  0.05292  0.83354  1.0000
  C   C5199     1.0  0.56694  0.03946  0.84287  1.0000
  C   C5200     1.0  0.55595  0.03229  0.84449  1.0000
  C   C5201     1.0  0.54538  0.03838  0.83634  1.0000
  C   C5202     1.0  0.54562  0.05167  0.82689  1.0000
  C   C5203     1.0  0.55618  0.05903  0.82572  1.0000
  H   H4146     1.0  0.57542  0.03457  0.84876  1.0000
  H   H4147     1.0  0.55592  0.02190  0.85166  1.0000
  H   H4148     1.0  0.53767  0.05630  0.82036  1.0000
  C   C5204     1.0  0.68202  0.05590  0.73714  1.0000
  C   C5205     1.0  0.53887  0.08399  0.73999  1.0000
  C   C5206     1.0  0.55201  0.07941  0.74457  1.0000
  C   C5207     1.0  0.59147  0.13912  0.77295  1.0000
  H   H4149     1.0  0.53029  0.08310  0.82210  1.0000
  P   P174      1.0  0.72375  0.23489  0.98218  1.0000
  C   C5208     1.0  0.67877  0.02853  0.73857  1.0000
  H   H4150     1.0  0.65539  0.00976  0.74718  1.0000
  H   H4151     1.0  0.70194  0.04511  0.74409  1.0000
  C   C5209     1.0  0.56837  0.99204  0.84424  1.0000
  H   H4152     1.0  0.51855  0.13104  0.83386  1.0000
  S   S717      1.0  0.50999  0.10066  0.95566  1.0000
  H   H4153     1.0  0.54762  0.01496  0.75901  1.0000
  H   H4154     1.0  0.50700  0.01751  0.78171  1.0000
  C   C5210     1.0  0.61534  0.12663  0.75403  1.0000
  C   C5211     1.0  0.52165  0.11815  0.88858  1.0000
  C   C5212     1.0  0.57675  0.99971  0.83246  1.0000
  C   C5213     1.0  0.52203  0.08505  0.83156  1.0000
  H   H4155     1.0  0.51272  0.05419  0.93273  1.0000
  C   C5214     1.0  0.52798  0.06766  0.78696  1.0000
  C   C5215     1.0  0.61576  0.15534  0.91155  1.0000
  C   C5216     1.0  0.51346  0.07095  0.78577  1.0000
  C   C5217     1.0  0.53510  0.22253  0.89981  1.0000
  H   H4156     1.0  0.51032  0.10226  0.98447  1.0000
  C   C5218     1.0  0.62274  0.16594  0.90220  1.0000
  H   H4157     1.0  0.75364  0.23581  0.96672  1.0000
  C   C5219     1.0  0.51891  0.22695  0.87122  1.0000
  C   C5220     1.0  0.50635  0.21157  0.95803  1.0000
  H   H4158     1.0  0.50619  0.04304  0.73958  1.0000
  C   C5221     1.0  0.54501  0.02605  0.75356  1.0000
  S   S718      1.0  0.60506  0.09506  0.76343  1.0000
  H   H4159     1.0  0.51744  0.11614  0.81833  1.0000
  C   C5222     1.0  0.61607  0.12502  0.76815  1.0000
  H   H4160     1.0  0.50741  0.04055  0.76445  1.0000
  C   C5223     1.0  0.54790  0.16165  0.78927  1.0000
  P   P175      1.0  0.64370  0.17622  0.87946  1.0000
  C   C5224     1.0  0.69864  0.23558  0.95552  1.0000
  C   C5225     1.0  0.51349  0.19045  0.92102  1.0000
  C   C5226     1.0  0.57601  0.16789  0.74217  1.0000
  H   H4161     1.0  0.50819  0.13066  0.87391  1.0000
  H   H4162     1.0  0.68330  0.06652  0.73647  1.0000
  C   C5227     1.0  0.52450  0.23488  0.90216  1.0000
  C   C5228     1.0  0.55396  0.23555  0.89473  1.0000
  C   C5229     1.0  0.56611  0.11986  0.98407  1.0000
  H   H4163     1.0  0.57007  0.01626  0.77029  1.0000
  H   H4164     1.0  0.66741  0.15801  0.89276  1.0000
  C   C5230     1.0  0.60198  0.08972  0.74940  1.0000
  S   S719      1.0  0.50648  0.05802  0.78252  1.0000
  C   C5231     1.0  0.56138  0.02238  0.79080  1.0000
  H   H4165     1.0  0.64526  0.20637  0.86786  1.0000
  C   C5232     1.0  0.51385  0.10838  0.87319  1.0000
  H   H4166     1.0  0.51322  0.23433  0.90480  1.0000
  C   C5233     1.0  0.51243  0.13566  0.82555  1.0000
  H   H4167     1.0  0.50283  0.14176  0.96525  1.0000
  C   C5234     1.0  0.51922  0.14211  0.97552  1.0000
  C   C5235     1.0  0.61235  0.04471  0.76690  1.0000
  C   C5236     1.0  0.61447  0.03419  0.75936  1.0000
  H   H4168     1.0  0.54746  0.10497  0.76285  1.0000
  H   H4169     1.0  0.50388  0.10510  0.79055  1.0000
  H   H4170     1.0  0.61778  0.17709  0.90226  1.0000
  C   C5237     1.0  0.66266  0.16956  0.87219  1.0000
  H   H4171     1.0  0.69352  0.14919  0.88299  1.0000
  H   H4172     1.0  0.70386  0.15594  0.85699  1.0000
  H   H4173     1.0  0.62019  0.06215  0.76848  1.0000
  H   H4174     1.0  0.67798  0.01785  0.73900  1.0000
  H   H4175     1.0  0.64268  0.16316  0.85721  1.0000
  C   C5238     1.0  0.50481  0.08452  0.78699  1.0000
  C   C5239     1.0  0.64296  0.19835  0.90856  1.0000
  C   C5240     1.0  0.57058  0.14037  0.74185  1.0000
  H   H4176     1.0  0.58021  0.11948  0.75341  1.0000
  C   C5241     1.0  0.63482  0.17330  0.85663  1.0000
  H   H4177     1.0  0.52772  0.17957  0.76537  1.0000
  C   C5242     1.0  0.63319  0.18217  0.86591  1.0000
  H   H4178     1.0  0.60802  0.19262  0.83910  1.0000
  C   C5243     1.0  0.50652  0.01835  0.77084  1.0000
  H   H4179     1.0  0.60303  0.04604  0.77571  1.0000
  H   H4180     1.0  0.60679  0.02735  0.76231  1.0000
  S   S720      1.0  0.53562  0.07855  0.98302  1.0000
  C   C5244     1.0  0.60747  0.08165  0.83324  1.0000
  C   C5245     1.0  0.61819  0.08945  0.82618  1.0000
  C   C5246     1.0  0.61917  0.10053  0.83158  1.0000
  C   C5247     1.0  0.60954  0.10371  0.84413  1.0000
  C   C5248     1.0  0.59882  0.09581  0.85140  1.0000
  C   C5249     1.0  0.59768  0.08496  0.84564  1.0000
  P   P176      1.0  0.58599  0.10011  0.86741  1.0000
  C   C5250     1.0  0.58132  0.08412  0.87976  1.0000
  C   C5251     1.0  0.59377  0.10872  0.87615  1.0000
  C   C5252     1.0  0.59893  0.10122  0.88855  1.0000
  C   C5253     1.0  0.60478  0.10809  0.89527  1.0000
  C   C5254     1.0  0.60564  0.12241  0.88959  1.0000
  C   C5255     1.0  0.60054  0.12991  0.87729  1.0000
  C   C5256     1.0  0.59452  0.12315  0.87065  1.0000
  C   C5257     1.0  0.59121  0.07079  0.88004  1.0000
  C   C5258     1.0  0.58747  0.05849  0.88972  1.0000
  C   C5259     1.0  0.57399  0.05948  0.89936  1.0000
  C   C5260     1.0  0.56431  0.07277  0.89943  1.0000
  C   C5261     1.0  0.56794  0.08504  0.88968  1.0000
  C   C5262     1.0  0.56961  0.11201  0.86272  1.0000
  C   C5263     1.0  0.56131  0.12221  0.87081  1.0000
  C   C5264     1.0  0.54867  0.13146  0.86713  1.0000
  C   C5265     1.0  0.54403  0.13036  0.85561  1.0000
  C   C5266     1.0  0.55201  0.12005  0.84774  1.0000
  C   C5267     1.0  0.56479  0.11093  0.85122  1.0000
  H   H4181     1.0  0.60645  0.07326  0.82889  1.0000
  H   H4182     1.0  0.62553  0.08708  0.81637  1.0000
  H   H4183     1.0  0.62727  0.10681  0.82595  1.0000
  H   H4184     1.0  0.61043  0.11246  0.84795  1.0000
  H   H4185     1.0  0.58913  0.07914  0.85058  1.0000
  H   H4186     1.0  0.59832  0.09015  0.89316  1.0000
  H   H4187     1.0  0.60842  0.10240  0.90500  1.0000
  H   H4188     1.0  0.60991  0.12784  0.89489  1.0000
  H   H4189     1.0  0.60102  0.14107  0.87299  1.0000
  H   H4190     1.0  0.59037  0.12923  0.86126  1.0000
  H   H4191     1.0  0.60179  0.06986  0.87282  1.0000
  H   H4192     1.0  0.59499  0.04818  0.88976  1.0000
  H   H4193     1.0  0.57101  0.04997  0.90683  1.0000
  H   H4194     1.0  0.55397  0.07350  0.90709  1.0000
  H   H4195     1.0  0.56034  0.09525  0.88998  1.0000
  H   H4196     1.0  0.56452  0.12308  0.87997  1.0000
  H   H4197     1.0  0.54241  0.13940  0.87330  1.0000
  H   H4198     1.0  0.53428  0.13752  0.85270  1.0000
  H   H4199     1.0  0.54846  0.11942  0.83868  1.0000
  H   H4200     1.0  0.57088  0.10320  0.84478  1.0000
  C   C5268     1.0  0.57338  0.08665  0.95422  1.0000
  C   C5269     1.0  0.58717  0.08652  0.94526  1.0000
  C   C5270     1.0  0.59359  0.09816  0.94245  1.0000
  C   C5271     1.0  0.58612  0.11004  0.94843  1.0000
  C   C5272     1.0  0.57220  0.11030  0.95732  1.0000
  C   C5273     1.0  0.56596  0.09844  0.96028  1.0000
  P   P177      1.0  0.56297  0.12495  0.96616  1.0000
  H   H4201     1.0  0.64464  0.22565  0.87917  1.0000
  C   C5274     1.0  0.56980  0.14090  0.95664  1.0000
  C   C5275     1.0  0.58222  0.14310  0.95925  1.0000
  C   C5276     1.0  0.58696  0.15585  0.95249  1.0000
  C   C5277     1.0  0.57937  0.16644  0.94305  1.0000
  C   C5278     1.0  0.56717  0.16421  0.94022  1.0000
  C   C5279     1.0  0.56250  0.15145  0.94684  1.0000
  H   H4202     1.0  0.60481  0.20831  0.85565  1.0000
  H   H4203     1.0  0.66196  0.18076  0.85033  1.0000
  C   C5280     1.0  0.67176  0.16088  0.88136  1.0000
  C   C5281     1.0  0.74213  0.19258  0.98148  1.0000
  C   C5282     1.0  0.50428  0.07234  0.88735  1.0000
  C   C5283     1.0  0.54376  0.12955  0.96645  1.0000
  C   C5284     1.0  0.53955  0.17974  0.97420  1.0000
  C   C5285     1.0  0.50667  0.22577  0.95718  1.0000
  H   H4204     1.0  0.53250  0.05939  0.76032  1.0000
  C   C5286     1.0  0.52396  0.13074  0.95584  1.0000
  C   C5287     1.0  0.53868  0.12637  0.95620  1.0000
  H   H4205     1.0  0.56835  0.07764  0.95648  1.0000
  H   H4206     1.0  0.59282  0.07742  0.94044  1.0000
  H   H4207     1.0  0.60421  0.09815  0.93539  1.0000
  H   H4208     1.0  0.59114  0.11907  0.94589  1.0000
  H   H4209     1.0  0.53745  0.13998  0.98420  1.0000
  C   C5288     1.0  0.50966  0.16952  0.77596  1.0000
  H   H4210     1.0  0.59655  0.15748  0.95452  1.0000
  H   H4211     1.0  0.58307  0.17628  0.93775  1.0000
  H   H4212     1.0  0.56149  0.17221  0.93266  1.0000
  H   H4213     1.0  0.55335  0.14976  0.94408  1.0000
  H   H4214     1.0  0.62693  0.17016  0.83995  1.0000
  H   H4215     1.0  0.56280  0.05396  0.79655  1.0000
  C   C5289     1.0  0.51490  0.08379  0.85711  1.0000
  H   H4216     1.0  0.55801  0.21349  0.89367  1.0000
  C   C5290     1.0  0.51189  0.02342  0.80876  1.0000
  C   C5291     1.0  0.63648  0.04132  0.74397  1.0000
  H   H4217     1.0  0.50787  0.20523  0.85419  1.0000
  H   H4218     1.0  0.52015  0.12799  0.94804  1.0000
  H   H4219     1.0  0.54603  0.12058  0.94839  1.0000
  H   H4220     1.0  0.50909  0.06288  0.74866  1.0000
  H   H4221     1.0  0.58848  0.06515  0.74213  1.0000
  C   C5292     1.0  0.56370  0.17919  0.74137  1.0000
  C   C5293     1.0  0.63449  0.13717  0.90112  1.0000
  C   C5294     1.0  0.52556  0.18534  0.97140  1.0000
  C   C5295     1.0  0.70455  0.23277  0.96744  1.0000
  H   H4222     1.0  0.53060  0.13715  0.78791  1.0000
  C   C5296     1.0  0.50560  0.00651  0.76659  1.0000
  H   H4223     1.0  0.53469  0.05715  0.78609  1.0000
  C   C5297     1.0  0.64446  0.20404  0.87926  1.0000
  C   C5298     1.0  0.64146  0.14778  0.89171  1.0000
  C   C5299     1.0  0.50219  0.19531  0.84092  1.0000
  C   C5300     1.0  0.50671  0.03144  0.76105  1.0000
  H   H4224     1.0  0.50646  0.17036  0.73800  1.0000
  C   C5301     1.0  0.56453  0.21627  0.93597  1.0000
  H   H4225     1.0  0.54900  0.18291  0.96661  1.0000
  C   C5302     1.0  0.66864  0.17363  0.85754  1.0000
  Fe  Fe359     1.0  0.51225  0.01195  0.88970  1.0000
  C   C5303     1.0  0.64341  0.19031  0.88765  1.0000
  H   H4226     1.0  0.64264  0.17688  0.90899  1.0000
  H   H4227     1.0  0.54436  0.19905  0.92703  1.0000
  C   C5304     1.0  0.50589  0.03282  0.74700  1.0000
  H   H4228     1.0  0.63883  0.12604  0.90049  1.0000
  C   C5305     1.0  0.55621  0.21781  0.94953  1.0000
  C   C5306     1.0  0.50361  0.13314  0.80630  1.0000
  H   H4229     1.0  0.52899  0.22017  0.87386  1.0000
  C   C5307     1.0  0.56082  0.00019  0.81757  1.0000
  C   C5308     1.0  0.51934  0.17533  0.76397  1.0000
  S   S721      1.0  0.59834  0.01039  0.74807  1.0000
  C   C5309     1.0  0.54351  0.21254  0.95512  1.0000
  C   C5310     1.0  0.50922  0.03966  0.92231  1.0000
  P   P178      1.0  0.52303  0.19813  0.95487  1.0000
  H   H4230     1.0  0.55445  0.03176  0.80926  1.0000
  C   C5311     1.0  0.61523  0.18990  0.84635  1.0000
  H   H4231     1.0  0.52774  0.15599  0.93580  1.0000
  H   H4232     1.0  0.51283  0.05877  0.82355  1.0000
  H   H4233     1.0  0.60547  0.15828  0.91882  1.0000
  C   C5312     1.0  0.51566  0.02921  0.91418  1.0000
  C   C5313     1.0  0.56529  0.99248  0.79006  1.0000
  C   C5314     1.0  0.51068  0.09473  0.78935  1.0000
  C   C5315     1.0  0.53391  0.13753  0.97607  1.0000
  H   H4234     1.0  0.51726  0.17048  0.91496  1.0000
  H   H4235     1.0  0.65107  0.14471  0.88374  1.0000
  C   C5316     1.0  0.57063  0.04789  0.77621  1.0000
  C   C5317     1.0  0.64343  0.21213  0.90025  1.0000
  C   C5318     1.0  0.62230  0.19482  0.86547  1.0000
  C   C5319     1.0  0.56816  0.02442  0.77620  1.0000
  H   H4236     1.0  0.68800  0.17176  0.84076  1.0000
  C   C5320     1.0  0.56421  0.04580  0.79078  1.0000
  C   C5321     1.0  0.52879  0.09618  0.74386  1.0000
  H   H4237     1.0  0.68936  0.23137  0.95626  1.0000
  S   S722      1.0  0.51673  0.99685  0.85663  1.0000
  C   C5322     1.0  0.55886  0.15241  0.76775  1.0000
  H   H4238     1.0  0.60214  0.13508  0.73853  1.0000
  P   P179      1.0  0.51922  0.07906  0.87445  1.0000
  C   C5323     1.0  0.53617  0.00835  0.80381  1.0000
  C   C5324     1.0  0.53891  0.20583  0.94709  1.0000
  C   C5325     1.0  0.54725  0.02964  0.73870  1.0000
  H   H4239     1.0  0.58823  0.13498  0.96651  1.0000
  C   C5326     1.0  0.53956  0.03681  0.76132  1.0000
  C   C5327     1.0  0.61344  0.19872  0.85565  1.0000
  C   C5328     1.0  0.55949  0.03318  0.79800  1.0000
  C   C5329     1.0  0.55821  0.16157  0.77640  1.0000
  C   C5330     1.0  0.63405  0.05209  0.75143  1.0000
  H   H4240     1.0  0.50788  0.11018  0.86508  1.0000
  C   C5331     1.0  0.50553  0.17186  0.87722  1.0000
  H   H4241     1.0  0.62572  0.11857  0.77188  1.0000
  C   C5332     1.0  0.50578  0.01174  0.81082  1.0000
  H   H4242     1.0  0.53374  0.08202  0.89461  1.0000
  H   H4243     1.0  0.53760  0.03413  0.77287  1.0000
  C   C5333     1.0  0.68655  0.15592  0.87587  1.0000
  C   C5334     1.0  0.52533  0.17417  0.94447  1.0000
  H   H4244     1.0  0.56502  0.08332  0.75655  1.0000
  H   H4245     1.0  0.62021  0.20146  0.87303  1.0000
  C   C5335     1.0  0.62643  0.03251  0.74792  1.0000
  C   C5336     1.0  0.60264  0.13437  0.74937  1.0000
  C   C5337     1.0  0.65629  0.00912  0.73633  1.0000
  C   C5338     1.0  0.52909  0.10446  0.89417  1.0000
  C   C5339     1.0  0.59359  0.07400  0.74024  1.0000
  H   H4246     1.0  0.56674  0.20819  0.91753  1.0000
  H   H4247     1.0  0.53016  0.16769  0.95334  1.0000
  C   C5340     1.0  0.53631  0.06607  0.87429  1.0000
  C   C5341     1.0  0.53686  0.05138  0.87986  1.0000
  C   C5342     1.0  0.55026  0.04160  0.87946  1.0000
  C   C5343     1.0  0.56317  0.04640  0.87382  1.0000
  C   C5344     1.0  0.56271  0.06096  0.86815  1.0000
  C   C5345     1.0  0.54937  0.07077  0.86835  1.0000
  H   H4248     1.0  0.52707  0.04736  0.88459  1.0000
  H   H4249     1.0  0.55063  0.03026  0.88352  1.0000
  H   H4250     1.0  0.57352  0.03880  0.87350  1.0000
  H   H4251     1.0  0.57271  0.06458  0.86332  1.0000
  H   H4252     1.0  0.54925  0.08202  0.86374  1.0000
  H   H4253     1.0  0.53493  0.10291  0.90235  1.0000
  C   C5346     1.0  0.52072  0.18911  0.94270  1.0000
  C   C5347     1.0  0.64427  0.21495  0.88559  1.0000
  C   C5348     1.0  0.61311  0.99562  0.74820  1.0000
  H   H4254     1.0  0.57968  0.00967  0.81018  1.0000
  C   C5349     1.0  0.54831  0.14420  0.77159  1.0000
  C   C5350     1.0  0.55251  0.99241  0.82948  1.0000
  H   H4255     1.0  0.57784  0.03865  0.75766  1.0000
  H   H4256     1.0  0.57410  0.05776  0.77061  1.0000
  H   H4257     1.0  0.50614  0.15670  0.82993  1.0000
  H   H4258     1.0  0.69986  0.22620  0.97736  1.0000
  C   C5351     1.0  0.62209  0.05370  0.76288  1.0000
  H   H4259     1.0  0.53736  0.21352  0.96578  1.0000
  C   C5352     1.0  0.60414  0.13128  0.77759  1.0000
  H   H4260     1.0  0.54853  0.13697  0.76521  1.0000
  C   C5353     1.0  0.54980  0.22293  0.89589  1.0000
  C   C5354     1.0  0.57266  0.03718  0.76893  1.0000
  H   H4261     1.0  0.53069  0.15222  0.80380  1.0000
  H   H4262     1.0  0.56630  0.16792  0.77369  1.0000
  H   H4263     1.0  0.59933  0.23389  0.89219  1.0000
  C   C5355     1.0  0.59057  0.14073  0.75878  1.0000
  S   S723      1.0  0.50440  0.02142  0.90922  1.0000
  H   H4264     1.0  0.54811  0.16789  0.79646  1.0000
  H   H4265     1.0  0.55298  0.17743  0.74700  1.0000
  C   C5356     1.0  0.53194  0.10376  0.75201  1.0000
  P   P180      1.0  0.57398  0.15028  0.75270  1.0000
  C   C5357     1.0  0.53662  0.05118  0.75417  1.0000
  C   C5358     1.0  0.52525  0.09156  0.79026  1.0000
  H   H4266     1.0  0.61629  0.99651  0.76831  1.0000
  C   C5359     1.0  0.55505  0.08699  0.75278  1.0000
  C   C5360     1.0  0.50538  0.15010  0.82340  1.0000
  H   H4267     1.0  0.58236  0.14340  0.78071  1.0000
  C   C5361     1.0  0.57308  0.00367  0.81915  1.0000
  C   C5362     1.0  0.64300  0.18746  0.90231  1.0000
  H   H4268     1.0  0.64221  0.19625  0.91996  1.0000
  H   H4269     1.0  0.51066  0.16952  0.78644  1.0000
  H   H4270     1.0  0.50884  0.20925  0.87578  1.0000
  H   H4271     1.0  0.64124  0.05936  0.74843  1.0000
  C   C5363     1.0  0.52699  0.02176  0.80527  1.0000
  C   C5364     1.0  0.54510  0.09922  0.75637  1.0000
  C   C5365     1.0  0.56015  0.20949  0.92798  1.0000
  C   C5366     1.0  0.54738  0.20434  0.93346  1.0000
  H   H4272     1.0  0.55974  0.22297  0.95573  1.0000
  H   H4273     1.0  0.50492  0.03379  0.81007  1.0000
  H   H4274     1.0  0.51839  0.09973  0.74091  1.0000
  H   H4275     1.0  0.50409  0.99860  0.74932  1.0000
  H   H4276     1.0  0.52581  0.17999  0.74100  1.0000
  H   H4277     1.0  0.50939  0.19671  0.91164  1.0000
  C   C5367     1.0  0.57465  0.12532  0.74485  1.0000
  H   H4278     1.0  0.50658  0.14686  0.90716  1.0000
  C   C5368     1.0  0.51423  0.13862  0.96547  1.0000
  H   H4279     1.0  0.57183  0.09690  0.98537  1.0000
  H   H4280     1.0  0.55984  0.06989  0.74195  1.0000
  H   H4281     1.0  0.51165  0.20881  0.92904  1.0000
  H   H4282     1.0  0.74107  0.18456  0.97668  1.0000
  H   H4283     1.0  0.51681  0.22906  0.95473  1.0000
  C   C5369     1.0  0.51403  0.12008  0.87813  1.0000
  H   H4284     1.0  0.64296  0.22062  0.90527  1.0000
  H   H4285     1.0  0.58593  0.00284  0.83370  1.0000
  H   H4286     1.0  0.54805  0.99582  0.77923  1.0000
  C   C5370     1.0  0.51375  0.18032  0.98127  1.0000
  H   H4287     1.0  0.50293  0.18415  0.97936  1.0000
  C   C5371     1.0  0.50754  0.22074  0.87210  1.0000
  H   H4288     1.0  0.57446  0.22024  0.93166  1.0000
  H   H4289     1.0  0.56542  0.23576  0.89176  1.0000
  C   C5372     1.0  0.57172  0.11761  0.73672  1.0000
  C   C5373     1.0  0.69090  0.03018  0.74209  1.0000
  C   C5374     1.0  0.51170  0.12725  0.81688  1.0000
  C   C5375     1.0  0.50773  0.09149  0.83035  1.0000
  H   H4290     1.0  0.51032  0.05174  0.84975  1.0000
  H   H4291     1.0  0.72592  0.20894  0.97219  1.0000
  C   C5376     1.0  0.51827  0.17554  0.75029  1.0000
  H   H4292     1.0  0.69911  0.02083  0.74528  1.0000
  Fe  Fe360     1.0  0.62192  0.23511  0.94134  1.0000
  H   H4293     1.0  0.50502  0.09438  0.82001  1.0000
  H   H4294     1.0  0.60965  0.23630  0.91116  1.0000
  C   C5377     1.0  0.50473  0.02106  0.74269  1.0000
  C   C5378     1.0  0.73351  0.20646  0.97898  1.0000
  H   H4295     1.0  0.51166  0.14774  0.98339  1.0000
  C   C5379     1.0  0.50740  0.17009  0.74860  1.0000
  H   H4296     1.0  0.50506  0.05638  0.87622  1.0000
  C   C5380     1.0  0.50480  0.00783  0.75252  1.0000
  C   C5381     1.0  0.73481  0.21691  0.98518  1.0000
  H   H4297     1.0  0.50539  0.99639  0.77425  1.0000
  S   S724      1.0  0.50435  0.99247  0.89134  1.0000
  C   C5382     1.0  0.50223  0.06088  0.83059  1.0000
  S   S725      1.0  0.50237  0.02474  0.87108  1.0000
  Fe  Fe361     1.0  0.73790  0.34151  0.08178  1.0000
  S   S726      1.0  0.71748  0.33675  0.09746  1.0000
  S   S727      1.0  0.75877  0.34219  0.08733  1.0000
  Fe  Fe362     1.0  0.72436  0.34634  0.05620  1.0000
  S   S728      1.0  0.70259  0.34318  0.06986  1.0000
  S   S729      1.0  0.72712  0.35250  0.03220  1.0000
  Fe  Fe363     1.0  0.70619  0.35582  0.08329  1.0000
  S   S730      1.0  0.68951  0.37207  0.09432  1.0000
  Fe  Fe364     1.0  0.71550  0.32426  0.08274  1.0000
  S   S731      1.0  0.70879  0.30271  0.09053  1.0000
  S   S732      1.0  0.72661  0.36120  0.06832  1.0000
  S   S733      1.0  0.73733  0.32683  0.06834  1.0000
  H   H4298     1.0  0.77109  0.31831  0.04838  1.0000
  H   H4299     1.0  0.93411  0.45147  0.19125  1.0000
  H   H4300     1.0  0.85123  0.46640  0.17637  1.0000
  C   C5383     1.0  0.81448  0.48879  0.10084  1.0000
  C   C5384     1.0  0.66214  0.34395  0.09483  1.0000
  C   C5385     1.0  0.72788  0.26310  0.02862  1.0000
  H   H4301     1.0  0.50768  0.25808  0.04319  1.0000
  C   C5386     1.0  0.92166  0.40621  0.00493  1.0000
  C   C5387     1.0  0.88631  0.45152  0.99323  1.0000
  S   S734      1.0  0.55864  0.29343  0.03451  1.0000
  S   S735      1.0  0.64112  0.47280  0.04505  1.0000
  Fe  Fe365     1.0  0.61999  0.38853  0.03417  1.0000
  C   C5388     1.0  0.83843  0.43592  0.98736  1.0000
  S   S736      1.0  0.61018  0.36912  0.04030  1.0000
  Fe  Fe366     1.0  0.63359  0.40278  0.04869  1.0000
  S   S737      1.0  0.64575  0.41384  0.02812  1.0000
  S   S738      1.0  0.63406  0.40618  0.06967  1.0000
  Fe  Fe367     1.0  0.62486  0.41879  0.02114  1.0000
  Fe  Fe368     1.0  0.55609  0.31565  0.02030  1.0000
  Fe  Fe369     1.0  0.65042  0.39345  0.02087  1.0000
  S   S739      1.0  0.61219  0.40885  0.04238  1.0000
  S   S740      1.0  0.64044  0.38184  0.04233  1.0000
  S   S741      1.0  0.81202  0.46074  0.16187  1.0000
  Fe  Fe370     1.0  0.82043  0.38300  0.11152  1.0000
  S   S742      1.0  0.80021  0.39883  0.10679  1.0000
  S   S743      1.0  0.83602  0.37094  0.09553  1.0000
  Fe  Fe371     1.0  0.81173  0.38260  0.14325  1.0000
  S   S744      1.0  0.79005  0.39772  0.14133  1.0000
  S   S745      1.0  0.82110  0.37228  0.16310  1.0000
  Fe  Fe372     1.0  0.78857  0.38531  0.12611  1.0000
  S   S746      1.0  0.76734  0.38113  0.12444  1.0000
  Fe  Fe373     1.0  0.80336  0.40983  0.12210  1.0000
  S   S747      1.0  0.80055  0.43382  0.11702  1.0000
  S   S748      1.0  0.80881  0.36892  0.13022  1.0000
  S   S749      1.0  0.82499  0.39534  0.12466  1.0000
  S   S750      1.0  0.92237  0.37973  0.18568  1.0000
  Fe  Fe374     1.0  0.96450  0.44035  0.13315  1.0000
  S   S751      1.0  0.94549  0.45789  0.12773  1.0000
  S   S752      1.0  0.96602  0.41658  0.14208  1.0000
  Fe  Fe375     1.0  0.98583  0.46007  0.12056  1.0000
  C   C5389     1.0  0.70026  0.24720  0.07978  1.0000
  C   C5390     1.0  0.50544  0.25006  0.00479  1.0000
  Fe  Fe376     1.0  0.95518  0.47156  0.13528  1.0000
  C   C5391     1.0  0.58231  0.24904  0.05055  1.0000
  Fe  Fe377     1.0  0.96063  0.46418  0.10679  1.0000
  S   S753      1.0  0.95282  0.47232  0.08630  1.0000
  S   S754      1.0  0.97287  0.45346  0.14265  1.0000
  S   S755      1.0  0.97903  0.44557  0.11141  1.0000
  Fe  Fe378     1.0  0.89307  0.44729  0.03795  1.0000
  S   S756      1.0  0.90910  0.42674  0.04352  1.0000
  S   S757      1.0  0.89290  0.45855  0.01504  1.0000
  Fe  Fe379     1.0  0.87575  0.44545  0.06825  1.0000
  S   S758      1.0  0.88990  0.42448  0.07653  1.0000
  S   S759      1.0  0.85488  0.45448  0.08223  1.0000
  Fe  Fe380     1.0  0.90837  0.43449  0.06268  1.0000
  S   S760      1.0  0.92837  0.42733  0.07180  1.0000
  Fe  Fe381     1.0  0.88958  0.41837  0.05686  1.0000
  S   S761      1.0  0.88911  0.39646  0.05557  1.0000
  S   S762      1.0  0.89417  0.45621  0.05588  1.0000
  S   S763      1.0  0.87352  0.43828  0.04993  1.0000
  S   S764      1.0  0.84129  0.48443  0.15104  1.0000
  C   C5392     1.0  0.88867  0.44701  0.00714  1.0000
  C   C5393     1.0  0.88779  0.43308  0.01477  1.0000
  C   C5394     1.0  0.88453  0.42371  0.00869  1.0000
  C   C5395     1.0  0.88266  0.42800  0.99468  1.0000
  C   C5396     1.0  0.75427  0.34637  0.98844  1.0000
  C   C5397     1.0  0.61071  0.35122  0.99946  1.0000
  H   H4302     1.0  0.88990  0.42931  0.02532  1.0000
  H   H4303     1.0  0.88396  0.41295  0.01474  1.0000
  C   C5398     1.0  0.79866  0.47857  0.20684  1.0000
  C   C5399     1.0  0.73687  0.31593  0.01780  1.0000
  C   C5400     1.0  0.94547  0.45999  0.08267  1.0000
  C   C5401     1.0  0.94678  0.44598  0.09089  1.0000
  C   C5402     1.0  0.94146  0.43604  0.08746  1.0000
  C   C5403     1.0  0.93457  0.44015  0.07598  1.0000
  C   C5404     1.0  0.93298  0.45424  0.06793  1.0000
  C   C5405     1.0  0.93849  0.46415  0.07125  1.0000
  H   H4304     1.0  0.95214  0.44274  0.09971  1.0000
  H   H4305     1.0  0.94268  0.42514  0.09370  1.0000
  H   H4306     1.0  0.92771  0.45742  0.05905  1.0000
  H   H4307     1.0  0.93747  0.47499  0.06490  1.0000
  S   S765      1.0  0.59614  0.27679  0.08091  1.0000
  Fe  Fe382     1.0  0.81872  0.48203  0.15328  1.0000
  C   C5406     1.0  0.93380  0.39073  0.17352  1.0000
  C   C5407     1.0  0.92944  0.40574  0.17010  1.0000
  C   C5408     1.0  0.93912  0.41404  0.16040  1.0000
  C   C5409     1.0  0.95313  0.40725  0.15421  1.0000
  C   C5410     1.0  0.95735  0.39229  0.15769  1.0000
  C   C5411     1.0  0.94775  0.38409  0.16722  1.0000
  H   H4308     1.0  0.73416  0.27821  0.98861  1.0000
  H   H4309     1.0  0.93575  0.42558  0.15757  1.0000
  H   H4310     1.0  0.96812  0.38698  0.15289  1.0000
  H   H4311     1.0  0.95118  0.37253  0.16974  1.0000
  C   C5412     1.0  0.82976  0.38187  0.16951  1.0000
  C   C5413     1.0  0.82780  0.39677  0.16518  1.0000
  C   C5414     1.0  0.83420  0.40417  0.17097  1.0000
  H   H4312     1.0  0.82117  0.40265  0.15751  1.0000
  H   H4313     1.0  0.83245  0.41570  0.16759  1.0000
  C   C5415     1.0  0.85043  0.37865  0.08461  1.0000
  C   C5416     1.0  0.86121  0.37068  0.07561  1.0000
  C   C5417     1.0  0.87316  0.37617  0.06699  1.0000
  C   C5418     1.0  0.87424  0.38983  0.06704  1.0000
  C   C5419     1.0  0.86333  0.39800  0.07582  1.0000
  C   C5420     1.0  0.85143  0.39235  0.08473  1.0000
  H   H4314     1.0  0.86042  0.36012  0.07547  1.0000
  H   H4315     1.0  0.88154  0.36988  0.06016  1.0000
  H   H4316     1.0  0.86407  0.40865  0.07569  1.0000
  H   H4317     1.0  0.84305  0.39858  0.09163  1.0000
  C   C5421     1.0  0.80949  0.45287  0.14933  1.0000
  C   C5422     1.0  0.81110  0.45988  0.13498  1.0000
  C   C5423     1.0  0.80823  0.45397  0.12519  1.0000
  C   C5424     1.0  0.80412  0.44079  0.12963  1.0000
  C   C5425     1.0  0.80280  0.43355  0.14395  1.0000
  C   C5426     1.0  0.80538  0.43965  0.15381  1.0000
  H   H4318     1.0  0.81437  0.46996  0.13152  1.0000
  H   H4319     1.0  0.80934  0.45950  0.11411  1.0000
  H   H4320     1.0  0.79966  0.42334  0.14745  1.0000
  H   H4321     1.0  0.80414  0.43413  0.16490  1.0000
  C   C5427     1.0  0.85629  0.46716  0.09051  1.0000
  C   C5428     1.0  0.86335  0.47827  0.08274  1.0000
  C   C5429     1.0  0.99939  0.42080  0.16021  1.0000
  H   H4322     1.0  0.86888  0.47856  0.07170  1.0000
  C   C5430     1.0  0.57732  0.48027  0.04996  1.0000
  C   C5431     1.0  0.63569  0.46446  0.03474  1.0000
  C   C5432     1.0  0.62894  0.45300  0.04181  1.0000
  C   C5433     1.0  0.62409  0.44621  0.03417  1.0000
  C   C5434     1.0  0.62561  0.45103  0.01939  1.0000
  C   C5435     1.0  0.63222  0.46261  0.01224  1.0000
  C   C5436     1.0  0.63753  0.46915  0.01988  1.0000
  H   H4323     1.0  0.62759  0.44921  0.05326  1.0000
  H   H4324     1.0  0.61908  0.43723  0.03978  1.0000
  C   C5437     1.0  0.90032  0.34244  0.23430  1.0000
  H   H4325     1.0  0.64304  0.47776  0.01425  1.0000
  H   H4326     1.0  0.96846  0.42979  0.22529  1.0000
  H   H4327     1.0  0.67157  0.30350  0.11243  1.0000
  C   C5438     1.0  0.69113  0.28320  0.00468  1.0000
  H   H4328     1.0  0.54808  0.24856  0.07617  1.0000
  H   H4329     1.0  0.98737  0.45781  0.16407  1.0000
  C   C5439     1.0  0.95084  0.43797  0.17858  1.0000
  S   S766      1.0  0.66038  0.25404  0.05735  1.0000
  H   H4330     1.0  0.60077  0.34611  0.03664  1.0000
  H   H4331     1.0  0.81707  0.30388  0.13943  1.0000
  H   H4332     1.0  0.74832  0.34411  0.99939  1.0000
  H   H4333     1.0  0.73628  0.36916  0.00024  1.0000
  H   H4334     1.0  0.64827  0.44272  0.98933  1.0000
  C   C5440     1.0  0.73131  0.39856  0.01323  1.0000
  C   C5441     1.0  0.61907  0.49029  0.07497  1.0000
  C   C5442     1.0  0.86924  0.44400  0.13565  1.0000
  H   H4335     1.0  0.71845  0.26173  0.99178  1.0000
  C   C5443     1.0  0.89184  0.33059  0.22124  1.0000
  C   C5444     1.0  0.58605  0.28214  0.06763  1.0000
  C   C5445     1.0  0.57109  0.28792  0.07113  1.0000
  C   C5446     1.0  0.56280  0.29199  0.06074  1.0000
  C   C5447     1.0  0.56943  0.29024  0.04682  1.0000
  C   C5448     1.0  0.58436  0.28430  0.04334  1.0000
  C   C5449     1.0  0.59270  0.28038  0.05370  1.0000
  H   H4336     1.0  0.56585  0.28910  0.08191  1.0000
  H   H4337     1.0  0.55122  0.29627  0.06354  1.0000
  H   H4338     1.0  0.58942  0.28248  0.03273  1.0000
  C   C5450     1.0  0.76080  0.35379  0.09706  1.0000
  C   C5451     1.0  0.77474  0.35293  0.09880  1.0000
  C   C5452     1.0  0.77700  0.36140  0.10681  1.0000
  C   C5453     1.0  0.76525  0.37087  0.11336  1.0000
  C   C5454     1.0  0.75127  0.37188  0.11150  1.0000
  C   C5455     1.0  0.74906  0.36351  0.10332  1.0000
  H   H4339     1.0  0.78382  0.34555  0.09392  1.0000
  H   H4340     1.0  0.78781  0.36040  0.10815  1.0000
  H   H4341     1.0  0.74206  0.37909  0.11655  1.0000
  H   H4342     1.0  0.73824  0.36434  0.10214  1.0000
  C   C5456     1.0  0.67405  0.38073  0.08729  1.0000
  C   C5457     1.0  0.67285  0.37913  0.07424  1.0000
  C   C5458     1.0  0.66046  0.38671  0.06877  1.0000
  C   C5459     1.0  0.64927  0.39577  0.07644  1.0000
  C   C5460     1.0  0.65044  0.39714  0.08955  1.0000
  C   C5461     1.0  0.66281  0.38971  0.09491  1.0000
  H   H4343     1.0  0.68151  0.37222  0.06830  1.0000
  H   H4344     1.0  0.65970  0.38573  0.05854  1.0000
  H   H4345     1.0  0.64187  0.40418  0.09545  1.0000
  H   H4346     1.0  0.66373  0.39100  0.10497  1.0000
  C   C5462     1.0  0.69495  0.29951  0.08436  1.0000
  C   C5463     1.0  0.68708  0.31034  0.07533  1.0000
  C   C5464     1.0  0.67662  0.30744  0.07012  1.0000
  H   H4347     1.0  0.68913  0.32096  0.07221  1.0000
  H   H4348     1.0  0.67089  0.31587  0.06289  1.0000
  H   H4349     1.0  0.59368  0.45364  0.03162  1.0000
  C   C5465     1.0  0.64754  0.32439  0.00985  1.0000
  C   C5466     1.0  0.73637  0.32585  0.02561  1.0000
  C   C5467     1.0  0.72703  0.33938  0.02360  1.0000
  C   C5468     1.0  0.71842  0.34302  0.01356  1.0000
  H   H4350     1.0  0.58664  0.24470  0.01092  1.0000
  H   H4351     1.0  0.77948  0.36832  0.15513  1.0000
  H   H4352     1.0  0.74322  0.32304  0.03318  1.0000
  C   C5469     1.0  0.75473  0.25153  0.01218  1.0000
  H   H4353     1.0  0.65307  0.26182  0.99322  1.0000
  C   C5470     1.0  0.65192  0.43395  0.07109  1.0000
  C   C5471     1.0  0.65039  0.44733  0.07382  1.0000
  C   C5472     1.0  0.66253  0.45325  0.07058  1.0000
  C   C5473     1.0  0.67618  0.44583  0.06444  1.0000
  C   C5474     1.0  0.67770  0.43258  0.06122  1.0000
  C   C5475     1.0  0.66554  0.42652  0.06490  1.0000
  P   P181      1.0  0.69528  0.42355  0.05268  1.0000
  C   C5476     1.0  0.70274  0.43578  0.03702  1.0000
  C   C5477     1.0  0.70591  0.41695  0.06618  1.0000
  C   C5478     1.0  0.71712  0.42328  0.06579  1.0000
  C   C5479     1.0  0.72536  0.41772  0.07626  1.0000
  C   C5480     1.0  0.72232  0.40598  0.08727  1.0000
  C   C5481     1.0  0.71081  0.40002  0.08802  1.0000
  C   C5482     1.0  0.70249  0.40563  0.07766  1.0000
  C   C5483     1.0  0.71759  0.43263  0.03051  1.0000
  C   C5484     1.0  0.72329  0.44199  0.01817  1.0000
  C   C5485     1.0  0.71415  0.45440  0.01216  1.0000
  C   C5486     1.0  0.69928  0.45726  0.01826  1.0000
  C   C5487     1.0  0.69356  0.44797  0.03056  1.0000
  C   C5488     1.0  0.69393  0.40918  0.04582  1.0000
  C   C5489     1.0  0.68473  0.41209  0.03641  1.0000
  C   C5490     1.0  0.63781  0.25897  0.01351  1.0000
  H   H4354     1.0  0.60528  0.38715  0.99618  1.0000
  H   H4355     1.0  0.70786  0.37368  0.04620  1.0000
  C   C5491     1.0  0.70258  0.39532  0.04901  1.0000
  H   H4356     1.0  0.64248  0.42944  0.07352  1.0000
  H   H4357     1.0  0.63973  0.45326  0.07809  1.0000
  H   H4358     1.0  0.66128  0.46377  0.07241  1.0000
  H   H4359     1.0  0.68546  0.45063  0.06181  1.0000
  H   H4360     1.0  0.66645  0.41618  0.06286  1.0000
  H   H4361     1.0  0.71943  0.43255  0.05754  1.0000
  H   H4362     1.0  0.73408  0.42253  0.07592  1.0000
  H   H4363     1.0  0.72879  0.40156  0.09531  1.0000
  H   H4364     1.0  0.70830  0.39099  0.09660  1.0000
  H   H4365     1.0  0.69350  0.40097  0.07848  1.0000
  H   H4366     1.0  0.72470  0.42297  0.03501  1.0000
  C   C5492     1.0  0.94523  0.38982  0.00317  1.0000
  H   H4367     1.0  0.56247  0.28242  0.98787  1.0000
  H   H4368     1.0  0.69214  0.46677  0.01351  1.0000
  H   H4369     1.0  0.68194  0.45039  0.03489  1.0000
  H   H4370     1.0  0.67805  0.42273  0.03367  1.0000
  H   H4371     1.0  0.60693  0.24723  0.01960  1.0000
  H   H4372     1.0  0.63362  0.46624  0.00079  1.0000
  C   C5493     1.0  0.94183  0.38430  0.01793  1.0000
  H   H4373     1.0  0.71011  0.39273  0.05586  1.0000
  S   S767      1.0  0.72911  0.30688  0.99812  1.0000
  C   C5494     1.0  0.55186  0.26449  0.99656  1.0000
  H   H4374     1.0  0.96342  0.40899  0.98883  1.0000
  C   C5495     1.0  0.69648  0.24822  0.99538  1.0000
  H   H4375     1.0  0.75854  0.41758  0.98759  1.0000
  C   C5496     1.0  0.74577  0.39838  0.01237  1.0000
  H   H4376     1.0  0.77224  0.45338  0.09086  1.0000
  H   H4377     1.0  0.62998  0.32131  0.02819  1.0000
  H   H4378     1.0  0.50342  0.25691  0.07434  1.0000
  C   C5497     1.0  0.95007  0.49038  0.18820  1.0000
  S   S768      1.0  0.55038  0.31753  0.99958  1.0000
  C   C5498     1.0  0.77237  0.47297  0.13175  1.0000
  H   H4379     1.0  0.92565  0.38559  0.03762  1.0000
  H   H4380     1.0  0.62728  0.47336  0.09140  1.0000
  H   H4381     1.0  0.75885  0.27275  0.00706  1.0000
  H   H4382     1.0  0.69727  0.24697  0.04211  1.0000
  C   C5499     1.0  0.67319  0.33863  0.10242  1.0000
  H   H4383     1.0  0.69634  0.30152  0.03222  1.0000
  C   C5500     1.0  0.66225  0.32517  0.00535  1.0000
  C   C5501     1.0  0.52576  0.25433  0.07483  1.0000
  C   C5502     1.0  0.52882  0.29180  0.00712  1.0000
  C   C5503     1.0  0.51910  0.30226  0.01407  1.0000
  H   H4384     1.0  0.71447  0.41836  0.99184  1.0000
  C   C5504     1.0  0.69847  0.24695  0.05252  1.0000
  C   C5505     1.0  0.70451  0.25740  0.05421  1.0000
  H   H4385     1.0  0.87342  0.47799  0.03646  1.0000
  H   H4386     1.0  0.65484  0.41620  0.99542  1.0000
  C   C5506     1.0  0.81343  0.28329  0.15169  1.0000
  C   C5507     1.0  0.70152  0.38443  0.04337  1.0000
  C   C5508     1.0  0.79774  0.35893  0.99516  1.0000
  C   C5509     1.0  0.75694  0.38771  0.00694  1.0000
  H   H4387     1.0  0.83351  0.47403  0.99305  1.0000
  C   C5510     1.0  0.62611  0.37231  0.99495  1.0000
  H   H4388     1.0  0.69129  0.37880  0.03000  1.0000
  H   H4389     1.0  0.74828  0.40619  0.01637  1.0000
  C   C5511     1.0  0.79136  0.42700  0.20078  1.0000
  C   C5512     1.0  0.52508  0.28778  0.99651  1.0000
  H   H4390     1.0  0.59886  0.24516  0.08997  1.0000
  C   C5513     1.0  0.50441  0.24601  0.99292  1.0000
  C   C5514     1.0  0.88978  0.48637  0.17397  1.0000
  C   C5515     1.0  0.62476  0.31672  0.00030  1.0000
  C   C5516     1.0  0.67311  0.37416  0.99741  1.0000
  C   C5517     1.0  0.86256  0.48946  0.08907  1.0000
  C   C5518     1.0  0.85162  0.48088  0.04938  1.0000
  C   C5519     1.0  0.56976  0.47227  0.06230  1.0000
  C   C5520     1.0  0.80302  0.45630  0.23285  1.0000
  C   C5521     1.0  0.61566  0.33071  0.09834  1.0000
  C   C5522     1.0  0.94491  0.48928  0.16245  1.0000
  H   H4391     1.0  0.73539  0.28293  0.02131  1.0000
  H   H4392     1.0  0.53409  0.25686  0.03904  1.0000
  C   C5523     1.0  0.73917  0.37754  0.00304  1.0000
  H   H4393     1.0  0.58438  0.49080  0.09609  1.0000
  C   C5524     1.0  0.59545  0.24370  0.05488  1.0000
  H   H4394     1.0  0.79747  0.34885  0.00285  1.0000
  C   C5525     1.0  0.76885  0.34816  0.01374  1.0000
  S   S769      1.0  0.63594  0.26056  0.08644  1.0000
  H   H4395     1.0  0.65208  0.31266  0.09917  1.0000
  H   H4396     1.0  0.71285  0.27854  0.00768  1.0000
  H   H4397     1.0  0.57506  0.25872  0.05345  1.0000
  H   H4398     1.0  0.53924  0.28711  0.00998  1.0000
  C   C5526     1.0  0.59296  0.35591  0.03373  1.0000
  H   H4399     1.0  0.62054  0.25543  0.03202  1.0000
  S   S770      1.0  0.96881  0.47920  0.11391  1.0000
  H   H4400     1.0  0.73589  0.33066  0.12178  1.0000
  H   H4401     1.0  0.99090  0.39703  0.22544  1.0000
  C   C5527     1.0  0.70154  0.27921  0.01294  1.0000
  C   C5528     1.0  0.83453  0.46341  0.99158  1.0000
  H   H4402     1.0  0.97736  0.44545  0.19633  1.0000
  H   H4403     1.0  0.52663  0.26481  0.06805  1.0000
  C   C5529     1.0  0.88193  0.36253  0.16555  1.0000
  C   C5530     1.0  0.88178  0.37243  0.17306  1.0000
  C   C5531     1.0  0.87959  0.38702  0.16662  1.0000
  C   C5532     1.0  0.87756  0.39174  0.15265  1.0000
  C   C5533     1.0  0.87761  0.38188  0.14506  1.0000
  C   C5534     1.0  0.88001  0.36720  0.15154  1.0000
  P   P182      1.0  0.87725  0.38774  0.12640  1.0000
  C   C5535     1.0  0.86326  0.40331  0.12218  1.0000
  C   C5536     1.0  0.89502  0.39112  0.11745  1.0000
  C   C5537     1.0  0.89690  0.40518  0.11143  1.0000
  C   C5538     1.0  0.91075  0.40767  0.10468  1.0000
  C   C5539     1.0  0.92285  0.39625  0.10411  1.0000
  C   C5540     1.0  0.92113  0.38225  0.11049  1.0000
  C   C5541     1.0  0.90726  0.37969  0.11722  1.0000
  C   C5542     1.0  0.86271  0.40920  0.10781  1.0000
  C   C5543     1.0  0.85172  0.42099  0.10414  1.0000
  C   C5544     1.0  0.84120  0.42697  0.11478  1.0000
  C   C5545     1.0  0.84149  0.42095  0.12914  1.0000
  C   C5546     1.0  0.85243  0.40909  0.13285  1.0000
  C   C5547     1.0  0.87307  0.37423  0.12050  1.0000
  C   C5548     1.0  0.86061  0.36889  0.12800  1.0000
  C   C5549     1.0  0.85679  0.35884  0.12327  1.0000
  C   C5550     1.0  0.86534  0.35413  0.11101  1.0000
  C   C5551     1.0  0.87761  0.35961  0.10335  1.0000
  C   C5552     1.0  0.88138  0.36977  0.10797  1.0000
  H   H4404     1.0  0.88360  0.35123  0.17057  1.0000
  H   H4405     1.0  0.88329  0.36878  0.18388  1.0000
  H   H4406     1.0  0.87930  0.39472  0.17251  1.0000
  H   H4407     1.0  0.87601  0.40308  0.14775  1.0000
  H   H4408     1.0  0.88059  0.35930  0.14578  1.0000
  H   H4409     1.0  0.88775  0.41428  0.11183  1.0000
  H   H4410     1.0  0.91212  0.41847  0.09967  1.0000
  H   H4411     1.0  0.93351  0.39834  0.09866  1.0000
  H   H4412     1.0  0.93054  0.37341  0.11015  1.0000
  H   H4413     1.0  0.90605  0.36881  0.12217  1.0000
  H   H4414     1.0  0.87077  0.40463  0.09944  1.0000
  H   H4415     1.0  0.85138  0.42551  0.09304  1.0000
  H   H4416     1.0  0.83279  0.43617  0.11182  1.0000
  H   H4417     1.0  0.83319  0.42541  0.13742  1.0000
  H   H4418     1.0  0.85224  0.40439  0.14400  1.0000
  H   H4419     1.0  0.85366  0.37271  0.13735  1.0000
  H   H4420     1.0  0.84693  0.35510  0.12888  1.0000
  H   H4421     1.0  0.86206  0.34676  0.10706  1.0000
  H   H4422     1.0  0.88385  0.35643  0.09350  1.0000
  H   H4423     1.0  0.89049  0.37439  0.10150  1.0000
  C   C5553     1.0  0.75780  0.43490  0.13002  1.0000
  C   C5554     1.0  0.76370  0.42687  0.11951  1.0000
  C   C5555     1.0  0.76881  0.43362  0.10541  1.0000
  C   C5556     1.0  0.76828  0.44835  0.10185  1.0000
  C   C5557     1.0  0.85212  0.48365  0.23467  1.0000
  H   H4424     1.0  0.81129  0.46880  0.07741  1.0000
  P   P183      1.0  0.53673  0.27345  0.98821  1.0000
  H   H4425     1.0  0.81308  0.33502  0.13732  1.0000
  C   C5558     1.0  0.51152  0.29432  0.99301  1.0000
  S   S771      1.0  0.84987  0.40691  0.18847  1.0000
  C   C5559     1.0  0.75735  0.31767  0.12275  1.0000
  C   C5560     1.0  0.51579  0.25777  0.00344  1.0000
  Fe  Fe383     1.0  0.55458  0.34760  0.01480  1.0000
  H   H4426     1.0  0.59707  0.31292  0.98849  1.0000
  H   H4427     1.0  0.83792  0.43921  0.15993  1.0000
  H   H4428     1.0  0.67857  0.27247  0.08687  1.0000
  H   H4429     1.0  0.99095  0.40169  0.17059  1.0000
  H   H4430     1.0  0.85969  0.48778  0.20106  1.0000
  H   H4431     1.0  0.78760  0.31538  0.17093  1.0000
  C   C5561     1.0  0.81320  0.33226  0.09944  1.0000
  C   C5562     1.0  0.99743  0.45560  0.16747  1.0000
  C   C5563     1.0  0.78302  0.34851  0.14874  1.0000
  H   H4432     1.0  0.78271  0.35382  0.13775  1.0000
  C   C5564     1.0  0.95748  0.48070  0.16690  1.0000
  C   C5565     1.0  0.82361  0.33810  0.10145  1.0000
  H   H4433     1.0  0.75383  0.42963  0.14094  1.0000
  H   H4434     1.0  0.76433  0.41540  0.12229  1.0000
  H   H4435     1.0  0.77338  0.42735  0.09731  1.0000
  C   C5566     1.0  0.70541  0.31202  0.04232  1.0000
  C   C5567     1.0  0.80545  0.42911  0.19482  1.0000
  H   H4436     1.0  0.95551  0.38518  0.99689  1.0000
  C   C5568     1.0  0.84497  0.38186  0.18519  1.0000
  C   C5569     1.0  0.80545  0.48955  0.20589  1.0000
  C   C5570     1.0  0.78959  0.47170  0.09051  1.0000
  H   H4437     1.0  0.71625  0.31972  0.05355  1.0000
  H   H4438     1.0  0.99913  0.47759  0.16040  1.0000
  H   H4439     1.0  0.96940  0.42523  0.16724  1.0000
  H   H4440     1.0  0.94347  0.43628  0.17328  1.0000
  C   C5571     1.0  0.81295  0.33415  0.12682  1.0000
  C   C5572     1.0  0.93016  0.41927  0.20901  1.0000
  P   P184      1.0  0.78807  0.32315  0.13992  1.0000
  C   C5573     1.0  0.74562  0.32902  0.12562  1.0000
  H   H4441     1.0  0.73765  0.34751  0.13494  1.0000
  H   H4442     1.0  0.61203  0.33975  0.10339  1.0000
  H   H4443     1.0  0.82108  0.44082  0.19335  1.0000
  C   C5574     1.0  0.83996  0.49033  0.05604  1.0000
  H   H4444     1.0  0.60650  0.48715  0.04195  1.0000
  C   C5575     1.0  0.84303  0.45169  0.99922  1.0000
  C   C5576     1.0  0.59525  0.36908  0.03400  1.0000
  H   H4445     1.0  0.71213  0.33597  0.99810  1.0000
  C   C5577     1.0  0.58516  0.38172  0.03021  1.0000
  C   C5578     1.0  0.66867  0.31486  0.10781  1.0000
  H   H4446     1.0  0.68236  0.32170  0.01176  1.0000
  H   H4447     1.0  0.77101  0.43344  0.21506  1.0000
  C   C5579     1.0  0.99956  0.40268  0.14821  1.0000
  C   C5580     1.0  0.57680  0.25022  0.00720  1.0000
  H   H4448     1.0  0.68545  0.31985  0.11424  1.0000
  C   C5581     1.0  0.69216  0.38733  0.03425  1.0000
  S   S772      1.0  0.51091  0.34238  0.00183  1.0000
  C   C5582     1.0  0.67637  0.28488  0.01124  1.0000
  C   C5583     1.0  0.61704  0.25028  0.01388  1.0000
  H   H4449     1.0  0.78780  0.41909  0.19787  1.0000
  C   C5584     1.0  0.67099  0.32122  0.01530  1.0000
  H   H4450     1.0  0.58140  0.48581  0.14192  1.0000
  H   H4451     1.0  0.59944  0.29058  0.00726  1.0000
  H   H4452     1.0  0.90775  0.40469  0.02604  1.0000
  H   H4453     1.0  0.70276  0.44413  0.99010  1.0000
  H   H4454     1.0  0.66058  0.28401  0.03118  1.0000
  C   C5585     1.0  0.78380  0.29624  0.15580  1.0000
  H   H4455     1.0  0.94946  0.47169  0.23367  1.0000
  C   C5586     1.0  0.79744  0.48233  0.99542  1.0000
  H   H4456     1.0  0.85185  0.42899  0.00281  1.0000
  H   H4457     1.0  0.84853  0.45325  0.00648  1.0000
  H   H4458     1.0  0.66829  0.28789  0.00487  1.0000
  C   C5587     1.0  0.75717  0.44965  0.12648  1.0000
  H   H4459     1.0  0.88444  0.49005  0.10450  1.0000
  H   H4460     1.0  0.76802  0.38730  0.00706  1.0000
  H   H4461     1.0  0.58441  0.26969  0.99734  1.0000
  H   H4462     1.0  0.77932  0.45132  0.22180  1.0000
  H   H4463     1.0  0.69450  0.28500  0.99317  1.0000
  H   H4464     1.0  0.80107  0.41843  0.99019  1.0000
  H   H4465     1.0  0.81319  0.33168  0.08880  1.0000
  C   C5588     1.0  0.83199  0.46403  0.19279  1.0000
  H   H4466     1.0  0.59028  0.48699  0.16232  1.0000
  C   C5589     1.0  0.50558  0.30862  0.01060  1.0000
  H   H4467     1.0  0.76505  0.24713  0.00577  1.0000
  C   C5590     1.0  0.69725  0.27624  0.02787  1.0000
  C   C5591     1.0  0.85640  0.45246  0.19582  1.0000
  S   S773      1.0  0.61986  0.44199  0.00997  1.0000
  C   C5592     1.0  0.56558  0.24318  0.00980  1.0000
  C   C5593     1.0  0.61106  0.37610  0.99643  1.0000
  S   S774      1.0  0.67282  0.38336  0.01006  1.0000
  C   C5594     1.0  0.65028  0.31658  0.03441  1.0000
  Fe  Fe384     1.0  0.61977  0.26804  0.07247  1.0000
  C   C5595     1.0  0.78375  0.43376  0.03345  1.0000
  C   C5596     1.0  0.78912  0.44352  0.02135  1.0000
  C   C5597     1.0  0.80395  0.44342  0.01743  1.0000
  C   C5598     1.0  0.81342  0.43359  0.02557  1.0000
  C   C5599     1.0  0.80824  0.42332  0.03730  1.0000
  C   C5600     1.0  0.79326  0.42374  0.04146  1.0000
  P   P185      1.0  0.82058  0.41072  0.04774  1.0000
  C   C5601     1.0  0.81334  0.39498  0.05673  1.0000
  C   C5602     1.0  0.83778  0.40420  0.03650  1.0000
  C   C5603     1.0  0.85023  0.39829  0.04219  1.0000
  C   C5604     1.0  0.86360  0.39338  0.03348  1.0000
  H   H4468     1.0  0.89304  0.41441  0.15062  1.0000
  C   C5605     1.0  0.85208  0.39907  0.01361  1.0000
  C   C5606     1.0  0.83871  0.40414  0.02224  1.0000
  C   C5607     1.0  0.80762  0.38874  0.04922  1.0000
  C   C5608     1.0  0.80185  0.37661  0.05614  1.0000
  C   C5609     1.0  0.80196  0.37054  0.07052  1.0000
  C   C5610     1.0  0.80792  0.37651  0.07796  1.0000
  C   C5611     1.0  0.81372  0.38861  0.07107  1.0000
  C   C5612     1.0  0.82182  0.42003  0.06028  1.0000
  C   C5613     1.0  0.83419  0.42525  0.05867  1.0000
  C   C5614     1.0  0.83469  0.43256  0.06853  1.0000
  C   C5615     1.0  0.82277  0.43502  0.07979  1.0000
  C   C5616     1.0  0.81024  0.43039  0.08107  1.0000
  C   C5617     1.0  0.80976  0.42292  0.07141  1.0000
  H   H4469     1.0  0.77221  0.43404  0.03672  1.0000
  H   H4470     1.0  0.78176  0.45128  0.01513  1.0000
  H   H4471     1.0  0.82479  0.43393  0.02274  1.0000
  H   H4472     1.0  0.78889  0.41642  0.05095  1.0000
  H   H4473     1.0  0.84965  0.39756  0.05332  1.0000
  H   H4474     1.0  0.87331  0.38935  0.03776  1.0000
  H   H4475     1.0  0.82919  0.40803  0.01772  1.0000
  H   H4476     1.0  0.80760  0.39327  0.03805  1.0000
  H   H4477     1.0  0.79731  0.37187  0.05040  1.0000
  H   H4478     1.0  0.79752  0.36116  0.07587  1.0000
  H   H4479     1.0  0.80818  0.37169  0.08908  1.0000
  H   H4480     1.0  0.81863  0.39283  0.07694  1.0000
  H   H4481     1.0  0.84349  0.42373  0.04991  1.0000
  H   H4482     1.0  0.84434  0.43627  0.06756  1.0000
  H   H4483     1.0  0.82325  0.44048  0.08756  1.0000
  H   H4484     1.0  0.80097  0.43239  0.08973  1.0000
  H   H4485     1.0  0.80000  0.41925  0.07274  1.0000
  C   C5618     1.0  0.90205  0.45868  0.09448  1.0000
  C   C5619     1.0  0.89577  0.47326  0.09318  1.0000
  C   C5620     1.0  0.88990  0.47888  0.10541  1.0000
  C   C5621     1.0  0.89043  0.46998  0.11887  1.0000
  C   C5622     1.0  0.89757  0.45549  0.12020  1.0000
  C   C5623     1.0  0.90312  0.44984  0.10789  1.0000
  P   P186      1.0  0.89698  0.44386  0.13773  1.0000
  C   C5624     1.0  0.90404  0.45021  0.14905  1.0000
  C   C5625     1.0  0.90567  0.44168  0.16256  1.0000
  C   C5626     1.0  0.91600  0.45907  0.16660  1.0000
  C   C5627     1.0  0.91485  0.46737  0.15304  1.0000
  C   C5628     1.0  0.90906  0.46295  0.14422  1.0000
  C   C5629     1.0  0.90880  0.42650  0.13675  1.0000
  C   C5630     1.0  0.92338  0.42556  0.12938  1.0000
  C   C5631     1.0  0.93293  0.41219  0.12928  1.0000
  C   C5632     1.0  0.92806  0.39968  0.13675  1.0000
  C   C5633     1.0  0.91362  0.40054  0.14429  1.0000
  C   C5634     1.0  0.90402  0.41391  0.14433  1.0000
  H   H4486     1.0  0.90588  0.45416  0.08509  1.0000
  C   C5635     1.0  0.85344  0.47019  0.23218  1.0000
  C   C5636     1.0  0.98825  0.48883  0.20898  1.0000
  H   H4487     1.0  0.88509  0.47436  0.12825  1.0000
  H   H4488     1.0  0.90795  0.43859  0.10858  1.0000
  H   H4489     1.0  0.87332  0.44607  0.12418  1.0000
  H   H4490     1.0  0.50710  0.39332  0.99657  1.0000
  H   H4491     1.0  0.90883  0.46947  0.13362  1.0000
  H   H4492     1.0  0.92744  0.43518  0.12389  1.0000
  H   H4493     1.0  0.94424  0.41158  0.12381  1.0000
  H   H4494     1.0  0.93559  0.38935  0.13703  1.0000
  H   H4495     1.0  0.91000  0.39084  0.15042  1.0000
  C   C5637     1.0  0.72810  0.31951  0.00787  1.0000
  C   C5638     1.0  0.57555  0.26438  0.99949  1.0000
  H   H4496     1.0  0.89503  0.48009  0.08276  1.0000
  C   C5639     1.0  0.68462  0.25017  0.00676  1.0000
  C   C5640     1.0  0.91405  0.31924  0.22971  1.0000
  C   C5641     1.0  0.97003  0.44298  0.19156  1.0000
  S   S775      1.0  0.87941  0.41559  0.98725  1.0000
  H   H4497     1.0  0.90528  0.31017  0.21771  1.0000
  H   H4498     1.0  0.85091  0.46994  0.05054  1.0000
  H   H4499     1.0  0.83027  0.48654  0.06211  1.0000
  H   H4500     1.0  0.96515  0.47373  0.16038  1.0000
  P   P187      1.0  0.99481  0.42726  0.17640  1.0000
  H   H4501     1.0  0.89340  0.48344  0.18388  1.0000
  C   C5642     1.0  0.63534  0.25386  0.99203  1.0000
  H   H4502     1.0  0.83161  0.34220  0.09240  1.0000
  H   H4503     1.0  0.75997  0.34466  0.14268  1.0000
  H   H4504     1.0  0.93098  0.43203  0.99206  1.0000
  H   H4505     1.0  0.95104  0.45609  0.20255  1.0000
  C   C5643     1.0  0.73793  0.27169  0.02109  1.0000
  C   C5644     1.0  0.62473  0.25493  0.02092  1.0000
  H   H4506     1.0  0.67934  0.34575  0.10312  1.0000
  P   P188      1.0  0.80703  0.46011  0.21356  1.0000
  C   C5645     1.0  0.77531  0.47843  0.14181  1.0000
  H   H4507     1.0  0.69893  0.32252  0.03871  1.0000
  P   P189      1.0  0.63605  0.32927  0.99718  1.0000
  H   H4508     1.0  0.58681  0.39189  0.03052  1.0000
  H   H4509     1.0  0.78091  0.35651  0.18021  1.0000
  H   H4510     1.0  0.65985  0.35524  0.08976  1.0000
  C   C5646     1.0  0.95364  0.32201  0.23139  1.0000
  C   C5647     1.0  0.68242  0.27825  0.03437  1.0000
  C   C5648     1.0  0.77552  0.48045  0.09228  1.0000
  H   H4511     1.0  0.85143  0.37604  0.19300  1.0000
  C   C5649     1.0  0.94049  0.41017  0.20086  1.0000
  S   S776      1.0  0.64784  0.26480  0.02191  1.0000
  H   H4512     1.0  0.65500  0.38906  0.98955  1.0000
  C   C5650     1.0  0.78580  0.32690  0.16730  1.0000
  H   H4513     1.0  0.85294  0.39943  0.00249  1.0000
  S   S777      1.0  0.57306  0.32886  0.01063  1.0000
  C   C5651     1.0  0.94558  0.44656  0.18861  1.0000
  C   C5652     1.0  0.78124  0.35675  0.15857  1.0000
  H   H4514     1.0  0.67681  0.40345  0.02340  1.0000
  P   P190      1.0  0.76164  0.47554  0.10779  1.0000
  H   H4515     1.0  0.66699  0.32898  0.99420  1.0000
  H   H4516     1.0  0.91358  0.41443  0.00003  1.0000
  C   C5653     1.0  0.64150  0.32079  0.02450  1.0000
  C   C5654     1.0  0.83842  0.37445  0.17952  1.0000
  C   C5655     1.0  0.78548  0.48216  0.20246  1.0000
  S   S778      1.0  0.63315  0.28158  0.05507  1.0000
  C   C5656     1.0  0.57013  0.29564  0.10729  1.0000
  C   C5657     1.0  0.57371  0.30649  0.09545  1.0000
  C   C5658     1.0  0.56343  0.31929  0.09243  1.0000
  P   P191      1.0  0.56824  0.33356  0.07751  1.0000
  C   C5659     1.0  0.57440  0.34580  0.08353  1.0000
  C   C5660     1.0  0.58271  0.32594  0.06422  1.0000
  C   C5661     1.0  0.59722  0.32324  0.06527  1.0000
  C   C5662     1.0  0.60838  0.31622  0.05578  1.0000
  C   C5663     1.0  0.60516  0.31208  0.04503  1.0000
  C   C5664     1.0  0.59088  0.31535  0.04346  1.0000
  C   C5665     1.0  0.57964  0.32203  0.05315  1.0000
  C   C5666     1.0  0.58262  0.35519  0.07361  1.0000
  C   C5667     1.0  0.58755  0.36464  0.07809  1.0000
  C   C5668     1.0  0.58445  0.36470  0.09258  1.0000
  C   C5669     1.0  0.57637  0.35531  0.10259  1.0000
  C   C5670     1.0  0.57132  0.34591  0.09810  1.0000
  C   C5671     1.0  0.55282  0.34261  0.06951  1.0000
  C   C5672     1.0  0.54334  0.33475  0.06879  1.0000
  C   C5673     1.0  0.53198  0.34147  0.06171  1.0000
  C   C5674     1.0  0.53002  0.35607  0.05530  1.0000
  C   C5675     1.0  0.53932  0.36398  0.05609  1.0000
  C   C5676     1.0  0.55074  0.35728  0.06307  1.0000
  H   H4517     1.0  0.57807  0.28564  0.10928  1.0000
  H   H4518     1.0  0.58441  0.30467  0.08855  1.0000
  H   H4519     1.0  0.59989  0.32632  0.07356  1.0000
  H   H4520     1.0  0.61950  0.31382  0.05688  1.0000
  H   H4521     1.0  0.61368  0.30619  0.03799  1.0000
  H   H4522     1.0  0.58847  0.31237  0.03493  1.0000
  H   H4523     1.0  0.56864  0.32402  0.05191  1.0000
  H   H4524     1.0  0.58521  0.35522  0.06236  1.0000
  H   H4525     1.0  0.59378  0.37190  0.07022  1.0000
  H   H4526     1.0  0.58829  0.37202  0.09605  1.0000
  H   H4527     1.0  0.57398  0.35536  0.11382  1.0000
  H   H4528     1.0  0.56507  0.33876  0.10603  1.0000
  H   H4529     1.0  0.54507  0.32330  0.07319  1.0000
  H   H4530     1.0  0.52163  0.36118  0.04928  1.0000
  H   H4531     1.0  0.53817  0.37515  0.05057  1.0000
  H   H4532     1.0  0.55817  0.36353  0.06290  1.0000
  P   P192      1.0  0.64035  0.34167  0.08336  1.0000
  C   C5677     1.0  0.62949  0.35852  0.08748  1.0000
  C   C5678     1.0  0.62203  0.36865  0.07759  1.0000
  C   C5679     1.0  0.61397  0.38185  0.08063  1.0000
  C   C5680     1.0  0.61316  0.38497  0.09362  1.0000
  C   C5681     1.0  0.62020  0.37478  0.10371  1.0000
  C   C5682     1.0  0.62822  0.36154  0.10072  1.0000
  C   C5683     1.0  0.64064  0.34501  0.05461  1.0000
  C   C5684     1.0  0.67653  0.32407  0.10881  1.0000
  C   C5685     1.0  0.76521  0.34094  0.03961  1.0000
  H   H4533     1.0  0.64309  0.31604  0.07363  1.0000
  H   H4534     1.0  0.62253  0.36651  0.06744  1.0000
  H   H4535     1.0  0.60879  0.38987  0.07269  1.0000
  H   H4536     1.0  0.60747  0.39547  0.09563  1.0000
  H   H4537     1.0  0.61978  0.37730  0.11367  1.0000
  H   H4538     1.0  0.63361  0.35380  0.10868  1.0000
  H   H4539     1.0  0.62950  0.34377  0.05819  1.0000
  H   H4540     1.0  0.64035  0.34858  0.03243  1.0000
  C   C5686     1.0  0.61730  0.29440  0.01304  1.0000
  C   C5687     1.0  0.72803  0.38818  0.00856  1.0000
  C   C5688     1.0  0.64678  0.34767  0.03995  1.0000
  C   C5689     1.0  0.66102  0.34961  0.03497  1.0000
  H   H4541     1.0  0.66566  0.35186  0.02361  1.0000
  C   C5690     1.0  0.91144  0.44616  0.17137  1.0000
  H   H4542     1.0  0.90267  0.43143  0.16620  1.0000
  H   H4543     1.0  0.68006  0.35079  0.04073  1.0000
  H   H4544     1.0  0.85347  0.43617  0.17648  1.0000
  H   H4545     1.0  0.70907  0.37714  0.99663  1.0000
  C   C5691     1.0  0.64862  0.34453  0.06443  1.0000
  C   C5692     1.0  0.66910  0.34903  0.04464  1.0000
  C   C5693     1.0  0.66292  0.34658  0.05929  1.0000
  H   H4546     1.0  0.91239  0.43962  0.18186  1.0000
  H   H4547     1.0  0.56481  0.39089  0.02357  1.0000
  H   H4548     1.0  0.60423  0.27586  0.05093  1.0000
  C   C5694     1.0  0.86454  0.39383  0.01920  1.0000
  H   H4549     1.0  0.66938  0.34638  0.06648  1.0000
  C   C5695     1.0  0.54965  0.32127  0.10167  1.0000
  C   C5696     1.0  0.76464  0.48213  0.12155  1.0000
  S   S779      1.0  0.67587  0.48795  0.03636  1.0000
  H   H4550     1.0  0.80814  0.45099  0.00815  1.0000
  H   H4551     1.0  0.61849  0.28455  0.02111  1.0000
  Fe  Fe385     1.0  0.88059  0.38714  0.22726  1.0000
  C   C5697     1.0  0.52994  0.24715  0.04340  1.0000
  C   C5698     1.0  0.87821  0.44245  0.14497  1.0000
  H   H4552     1.0  0.59125  0.47941  0.02889  1.0000
  C   C5699     1.0  0.64303  0.25857  0.99903  1.0000
  C   C5700     1.0  0.82358  0.33887  0.11515  1.0000
  Fe  Fe386     1.0  0.64469  0.24254  0.07473  1.0000
  H   H4553     1.0  0.54169  0.33122  0.09971  1.0000
  H   H4554     1.0  0.88792  0.47885  0.22559  1.0000
  H   H4555     1.0  0.94955  0.37572  0.02301  1.0000
  C   C5701     1.0  0.62244  0.24950  0.99951  1.0000
  C   C5702     1.0  0.81013  0.43940  0.19831  1.0000
  C   C5703     1.0  0.61204  0.30831  0.09645  1.0000
  H   H4556     1.0  0.93507  0.38741  0.23028  1.0000
  S   S780      1.0  0.86512  0.40794  0.22046  1.0000
  H   H4557     1.0  0.96571  0.39742  0.22106  1.0000
  H   H4558     1.0  0.73395  0.48814  0.12531  1.0000
  C   C5704     1.0  0.84910  0.44016  0.15574  1.0000
  H   H4559     1.0  0.92032  0.46279  0.17336  1.0000
  C   C5705     1.0  0.51508  0.24782  0.04572  1.0000
  H   H4560     1.0  0.84297  0.47751  0.12220  1.0000
  C   C5706     1.0  0.55634  0.29757  0.11633  1.0000
  H   H4561     1.0  0.52503  0.33528  0.06072  1.0000
  C   C5707     1.0  0.58066  0.35536  0.02963  1.0000
  C   C5708     1.0  0.80215  0.32868  0.12485  1.0000
  C   C5709     1.0  0.78194  0.43509  0.21044  1.0000
  C   C5710     1.0  0.67361  0.29374  0.07406  1.0000
  H   H4562     1.0  0.71678  0.38796  0.00989  1.0000
  H   H4563     1.0  0.80570  0.47650  0.00139  1.0000
  H   H4564     1.0  0.78138  0.47135  0.14960  1.0000
  C   C5711     1.0  0.54611  0.31041  0.11355  1.0000
  C   C5712     1.0  0.68396  0.36183  0.99572  1.0000
  H   H4565     1.0  0.84340  0.45843  0.11069  1.0000
  H   H4566     1.0  0.71137  0.35353  0.01190  1.0000
  C   C5713     1.0  0.87231  0.43986  0.15976  1.0000
  C   C5714     1.0  0.85471  0.44308  0.14104  1.0000
  H   H4567     1.0  0.87864  0.43883  0.16731  1.0000
  H   H4568     1.0  0.84775  0.44469  0.13382  1.0000
  H   H4569     1.0  0.83997  0.36293  0.18298  1.0000
  C   C5715     1.0  0.57998  0.45085  0.05276  1.0000
  H   H4570     1.0  0.55360  0.28912  0.12547  1.0000
  C   C5716     1.0  0.80256  0.32748  0.11109  1.0000
  H   H4571     1.0  0.78478  0.33003  0.18806  1.0000
  H   H4572     1.0  0.91832  0.47736  0.14943  1.0000
  C   C5717     1.0  0.72256  0.28503  0.05129  1.0000
  C   C5718     1.0  0.60339  0.36558  0.99854  1.0000
  C   C5719     1.0  0.60734  0.32031  0.10253  1.0000
  S   S781      1.0  0.90061  0.39614  0.21860  1.0000
  C   C5720     1.0  0.63308  0.31734  0.08163  1.0000
  H   H4573     1.0  0.93266  0.48563  0.10819  1.0000
  C   C5721     1.0  0.99244  0.41016  0.20413  1.0000
  C   C5722     1.0  0.92918  0.35685  0.22668  1.0000
  H   H4574     1.0  0.53544  0.31196  0.12060  1.0000
  H   H4575     1.0  0.85830  0.43935  0.21661  1.0000
  P   P193      1.0  0.76798  0.36204  0.99762  1.0000
  H   H4576     1.0  0.88519  0.46723  0.20812  1.0000
  H   H4577     1.0  0.92461  0.42788  0.22769  1.0000
  C   C5723     1.0  0.69172  0.28583  0.08859  1.0000
  H   H4578     1.0  0.67528  0.25879  0.00506  1.0000
  H   H4579     1.0  0.81588  0.48707  0.20872  1.0000
  C   C5724     1.0  0.62863  0.32926  0.08784  1.0000
  H   H4580     1.0  0.93866  0.40928  0.19104  1.0000
  S   S782      1.0  0.88246  0.37929  0.20770  1.0000
  C   C5725     1.0  0.70530  0.25746  0.06799  1.0000
  H   H4581     1.0  0.82071  0.35649  0.99297  1.0000
  H   H4582     1.0  0.67167  0.31367  0.03763  1.0000
  S   S783      1.0  0.63051  0.39911  0.01207  1.0000
  H   H4583     1.0  0.64565  0.31348  0.04571  1.0000
  C   C5726     1.0  0.66333  0.37946  0.98838  1.0000
  H   H4584     1.0  0.82482  0.47074  0.18585  1.0000
  H   H4585     1.0  0.72948  0.27471  0.05462  1.0000
  C   C5727     1.0  0.85790  0.43852  0.16507  1.0000
  H   H4586     1.0  0.69130  0.35757  0.00286  1.0000
  H   H4587     1.0  0.63518  0.30041  0.01613  1.0000
  C   C5728     1.0  0.58707  0.45884  0.04024  1.0000
  C   C5729     1.0  0.68102  0.28298  0.08354  1.0000
  H   H4588     1.0  0.69757  0.27741  0.09574  1.0000
  C   C5730     1.0  0.92838  0.38979  0.02617  1.0000
  H   H4589     1.0  0.72257  0.40648  0.01789  1.0000
  S   S784      1.0  0.53815  0.33408  0.02640  1.0000
  C   C5731     1.0  0.93530  0.40111  0.99663  1.0000
  C   C5732     1.0  0.80893  0.29782  0.14559  1.0000
  C   C5733     1.0  0.71222  0.28638  0.04351  1.0000
  C   C5734     1.0  0.95516  0.44902  0.19514  1.0000
  C   C5735     1.0  0.65431  0.33473  0.09359  1.0000
  C   C5736     1.0  0.66503  0.31672  0.02982  1.0000
  C   C5737     1.0  0.84697  0.46150  0.18730  1.0000
  H   H4590     1.0  0.88689  0.46231  0.98728  1.0000
  Fe  Fe387     1.0  0.65031  0.27267  0.06802  1.0000
  S   S785      1.0  0.66053  0.29096  0.06667  1.0000
  H   H4591     1.0  0.73148  0.29591  0.06148  1.0000
  C   C5738     1.0  0.77525  0.32300  0.02537  1.0000
  H   H4592     1.0  0.96916  0.45532  0.22074  1.0000
  C   C5739     1.0  0.70389  0.30003  0.03877  1.0000
  C   C5740     1.0  0.79406  0.30437  0.14753  1.0000
  C   C5741     1.0  0.57046  0.36795  0.02603  1.0000
  C   C5742     1.0  0.80041  0.47555  0.07859  1.0000
  H   H4593     1.0  0.74970  0.48030  0.08273  1.0000
  H   H4594     1.0  0.56866  0.24659  0.03858  1.0000
  C   C5743     1.0  0.84280  0.39680  0.18101  1.0000
  H   H4595     1.0  0.70062  0.24756  0.09039  1.0000
  H   H4596     1.0  0.79224  0.46198  0.09842  1.0000
  H   H4597     1.0  0.77648  0.41378  0.00198  1.0000
  H   H4598     1.0  0.67891  0.27649  0.04586  1.0000
  C   C5744     1.0  0.80315  0.27523  0.15980  1.0000
  C   C5745     1.0  0.77064  0.32661  0.03871  1.0000
  C   C5746     1.0  0.71527  0.31046  0.05060  1.0000
  H   H4599     1.0  0.87832  0.46948  0.18003  1.0000
  C   C5747     1.0  0.57561  0.24767  0.09471  1.0000
  C   C5748     1.0  0.75945  0.33688  0.13732  1.0000
  H   H4600     1.0  0.52224  0.30578  0.02185  1.0000
  H   H4601     1.0  0.91870  0.41088  0.17499  1.0000
  C   C5749     1.0  0.93260  0.42055  0.22163  1.0000
  Fe  Fe388     1.0  0.86840  0.40069  0.20018  1.0000
  C   C5750     1.0  0.84900  0.46692  0.10473  1.0000
  H   H4602     1.0  0.56557  0.45139  0.07336  1.0000
  Fe  Fe389     1.0  0.90125  0.39020  0.19838  1.0000
  H   H4603     1.0  0.60578  0.30010  0.09980  1.0000
  H   H4604     1.0  0.60434  0.34330  0.00177  1.0000
  H   H4605     1.0  0.83160  0.34354  0.11666  1.0000
  C   C5751     1.0  0.78351  0.48794  0.00279  1.0000
  C   C5752     1.0  0.63352  0.35803  0.99554  1.0000
  H   H4606     1.0  0.76146  0.34372  0.04998  1.0000
  C   C5753     1.0  0.72392  0.29702  0.05499  1.0000
  C   C5754     1.0  0.96014  0.48134  0.17976  1.0000
  H   H4607     1.0  0.77930  0.31186  0.02470  1.0000
  C   C5755     1.0  0.58572  0.47349  0.03878  1.0000
  C   C5756     1.0  0.77136  0.32555  0.13441  1.0000
  C   C5757     1.0  0.88350  0.44194  0.98691  1.0000
  S   S786      1.0  0.54873  0.35196  0.99370  1.0000
  S   S787      1.0  0.88869  0.43837  0.20751  1.0000
  C   C5758     1.0  0.77443  0.33372  0.01292  1.0000
  Fe  Fe390     1.0  0.64220  0.26217  0.04579  1.0000
  C   C5759     1.0  0.84859  0.47784  0.11118  1.0000
  H   H4608     1.0  0.77805  0.33072  0.00269  1.0000
  C   C5760     1.0  0.76427  0.35168  0.02721  1.0000
  H   H4609     1.0  0.73477  0.43969  0.01329  1.0000
  C   C5761     1.0  0.79728  0.48822  0.06843  1.0000
  C   C5762     1.0  0.68394  0.40120  0.03060  1.0000
  H   H4610     1.0  0.79451  0.32320  0.10921  1.0000
  H   H4611     1.0  0.57903  0.34523  0.02926  1.0000
  H   H4612     1.0  0.75970  0.36263  0.02827  1.0000
  C   C5763     1.0  0.67202  0.28254  0.02608  1.0000
  H   H4613     1.0  0.81283  0.42279  0.18742  1.0000
  H   H4614     1.0  0.78036  0.27549  0.16821  1.0000
  C   C5764     1.0  0.62488  0.30686  0.08596  1.0000
  H   H4615     1.0  0.75663  0.31052  0.11673  1.0000
  C   C5765     1.0  0.95982  0.43683  0.23112  1.0000
  H   H4616     1.0  0.77650  0.46168  0.13176  1.0000
  C   C5766     1.0  0.75375  0.37721  0.00216  1.0000
  H   H4617     1.0  0.86795  0.45012  0.19136  1.0000
  C   C5767     1.0  0.78834  0.28171  0.16187  1.0000
  C   C5768     1.0  0.99379  0.47429  0.21425  1.0000
  C   C5769     1.0  0.71888  0.33311  0.00576  1.0000
  C   C5770     1.0  0.95570  0.40353  0.21795  1.0000
  H   H4618     1.0  0.62861  0.29754  0.08126  1.0000
  H   H4619     1.0  0.74407  0.30546  0.01948  1.0000
  H   H4620     1.0  0.57342  0.25819  0.09695  1.0000
  S   S788      1.0  0.88751  0.41091  0.18937  1.0000
  C   C5771     1.0  0.74663  0.33853  0.13301  1.0000
  H   H4621     1.0  0.70932  0.26561  0.06986  1.0000
  C   C5772     1.0  0.96566  0.43166  0.17520  1.0000
  P   P194      1.0  0.71048  0.27084  0.03878  1.0000
  C   C5773     1.0  0.88816  0.46072  0.21796  1.0000
  C   C5774     1.0  0.78196  0.35009  0.17271  1.0000
  H   H4622     1.0  0.77911  0.30702  0.12486  1.0000
  C   C5775     1.0  0.97542  0.43421  0.18158  1.0000
  C   C5776     1.0  0.65763  0.32013  0.10019  1.0000
  H   H4623     1.0  0.59735  0.32145  0.11062  1.0000
  C   C5777     1.0  0.77012  0.31586  0.12722  1.0000
  H   H4624     1.0  0.77228  0.30114  0.15761  1.0000
  Fe  Fe391     1.0  0.53380  0.33708  0.00483  1.0000
  H   H4625     1.0  0.88389  0.33049  0.21569  1.0000
  C   C5778     1.0  0.78418  0.33517  0.17709  1.0000
  C   C5779     1.0  0.78532  0.33354  0.15300  1.0000
  Fe  Fe392     1.0  0.88547  0.41625  0.21026  1.0000
  C   C5780     1.0  0.57269  0.38112  0.02637  1.0000
  C   C5781     1.0  0.95336  0.40251  0.20517  1.0000
  C   C5782     1.0  0.62590  0.34739  0.99763  1.0000
  C   C5783     1.0  0.60521  0.31039  0.99472  1.0000
  C   C5784     1.0  0.80076  0.44757  0.20804  1.0000
  H   H4626     1.0  0.82007  0.47950  0.10737  1.0000
  H   H4627     1.0  0.56271  0.47738  0.07077  1.0000
  C   C5785     1.0  0.89003  0.44584  0.22087  1.0000
  C   C5786     1.0  0.85092  0.44625  0.21000  1.0000
  H   H4628     1.0  0.58481  0.48333  0.07453  1.0000
  H   H4629     1.0  0.92030  0.42545  0.20550  1.0000
  C   C5787     1.0  0.84499  0.43798  0.99709  1.0000
  H   H4630     1.0  0.59829  0.24931  0.06114  1.0000
  C   C5788     1.0  0.96648  0.31176  0.22840  1.0000
  C   C5789     1.0  0.62661  0.30363  0.01034  1.0000
  C   C5790     1.0  0.91827  0.40064  0.01964  1.0000
  C   C5791     1.0  0.53791  0.24511  0.07962  1.0000
  C   C5792     1.0  0.88996  0.46732  0.22773  1.0000
  H   H4631     1.0  0.58122  0.43946  0.05386  1.0000
  H   H4632     1.0  0.93183  0.37691  0.21208  1.0000
  H   H4633     1.0  0.80666  0.26398  0.16452  1.0000
  H   H4634     1.0  0.71848  0.46186  0.00275  1.0000
  S   S789      1.0  0.62740  0.24918  0.06216  1.0000
  H   H4635     1.0  0.82492  0.27829  0.15014  1.0000
  H   H4636     1.0  0.92735  0.35262  0.21864  1.0000
  C   C5793     1.0  0.86437  0.48537  0.04157  1.0000
  C   C5794     1.0  0.81097  0.36322  0.98957  1.0000
  C   C5795     1.0  0.99742  0.39868  0.21467  1.0000
  C   C5796     1.0  0.99631  0.40773  0.16068  1.0000
  C   C5797     1.0  0.78510  0.36758  0.99074  1.0000
  C   C5798     1.0  0.75129  0.26592  0.01295  1.0000
  C   C5799     1.0  0.76287  0.45641  0.11246  1.0000
  S   S790      1.0  0.55481  0.36751  0.02116  1.0000
  H   H4637     1.0  0.80015  0.47821  0.23444  1.0000
  H   H4638     1.0  0.54467  0.24458  0.00632  1.0000
  C   C5800     1.0  0.94509  0.41221  0.22652  1.0000
  H   H4639     1.0  0.59168  0.36851  0.99983  1.0000
  H   H4640     1.0  0.96145  0.39572  0.19858  1.0000
  H   H4641     1.0  0.87497  0.39027  0.01240  1.0000
  H   H4642     1.0  0.75239  0.45572  0.13473  1.0000
  C   C5801     1.0  0.60655  0.29780  0.00529  1.0000
  H   H4643     1.0  0.51608  0.26137  0.01258  1.0000
  H   H4644     1.0  0.78109  0.48634  0.01431  1.0000
  S   S791      1.0  0.94120  0.48894  0.14650  1.0000
  H   H4645     1.0  0.98689  0.46806  0.22262  1.0000
  C   C5802     1.0  0.57124  0.45758  0.06375  1.0000
  C   C5803     1.0  0.57863  0.24203  0.04233  1.0000
  C   C5804     1.0  0.74376  0.48374  0.10426  1.0000
  H   H4646     1.0  0.62134  0.48339  0.06761  1.0000
  H   H4647     1.0  0.87036  0.47587  0.15715  1.0000
  C   C5805     1.0  0.88126  0.47849  0.17178  1.0000
  C   C5806     1.0  0.87675  0.48215  0.15893  1.0000
  C   C5807     1.0  0.62232  0.48463  0.08842  1.0000
  C   C5808     1.0  0.55309  0.25029  0.00451  1.0000
  C   C5809     1.0  0.56313  0.27151  0.99415  1.0000
  C   C5810     1.0  0.83596  0.44879  0.21558  1.0000
  C   C5811     1.0  0.74111  0.48456  0.09096  1.0000
  H   H4648     1.0  0.85451  0.46907  0.22144  1.0000
  C   C5812     1.0  0.82638  0.45775  0.20700  1.0000
  C   C5813     1.0  0.89349  0.43751  0.23380  1.0000
  C   C5814     1.0  0.78665  0.44526  0.21416  1.0000
  Fe  Fe393     1.0  0.56583  0.33217  0.99034  1.0000
  C   C5815     1.0  0.61439  0.31970  0.99207  1.0000
  C   C5816     1.0  0.73230  0.48903  0.11483  1.0000
  H   H4649     1.0  0.55311  0.24699  0.09943  1.0000
  H   H4650     1.0  0.63206  0.38044  0.99334  1.0000
  C   C5817     1.0  0.51267  0.24989  0.07841  1.0000
  C   C5818     1.0  0.96034  0.45121  0.22860  1.0000
  H   H4651     1.0  0.78025  0.47396  0.20254  1.0000
  C   C5819     1.0  0.52513  0.26157  0.99016  1.0000
  S   S792      1.0  0.95241  0.49035  0.20490  1.0000
  H   H4652     1.0  0.64522  0.35529  0.99424  1.0000
  C   C5820     1.0  0.00090  0.41239  0.19016  1.0000
  C   C5821     1.0  0.77935  0.41744  0.99048  1.0000
  C   C5822     1.0  0.93176  0.37064  0.22289  1.0000
  H   H4653     1.0  0.62220  0.48898  0.10822  1.0000
  H   H4654     1.0  0.96986  0.47475  0.18322  1.0000
  H   H4655     1.0  0.88061  0.35098  0.22659  1.0000
  Fe  Fe394     1.0  0.65290  0.49071  0.03482  1.0000
  C   C5823     1.0  0.73134  0.24869  0.02767  1.0000
  H   H4656     1.0  0.83199  0.44357  0.22648  1.0000
  H   H4657     1.0  0.79400  0.48961  0.11591  1.0000
  C   C5824     1.0  0.90388  0.31914  0.22241  1.0000
  H   H4658     1.0  0.98199  0.41718  0.20692  1.0000
  C   C5825     1.0  0.85515  0.48925  0.10330  1.0000
  H   H4659     1.0  0.99649  0.39298  0.14850  1.0000
  C   C5826     1.0  0.89004  0.34218  0.22726  1.0000
  H   H4660     1.0  0.99165  0.48675  0.12510  1.0000
  C   C5827     1.0  0.56417  0.24137  0.09588  1.0000
  H   H4661     1.0  0.65998  0.30759  0.98600  1.0000
  H   H4662     1.0  0.80572  0.43347  0.23524  1.0000
  H   H4663     1.0  0.92320  0.31022  0.23058  1.0000
  H   H4664     1.0  0.97575  0.31495  0.22048  1.0000
  H   H4665     1.0  0.95318  0.33305  0.22566  1.0000
  C   C5828     1.0  0.72955  0.25939  0.98584  1.0000
  C   C5829     1.0  0.74474  0.24293  0.01953  1.0000
  H   H4666     1.0  0.67560  0.24287  0.02903  1.0000
  C   C5830     1.0  0.93377  0.37652  0.23310  1.0000
  H   H4667     1.0  0.72375  0.24187  0.03313  1.0000
  S   S793      1.0  0.61327  0.24234  0.99138  1.0000
  C   C5831     1.0  0.66109  0.42205  0.98597  1.0000
  H   H4668     1.0  0.97732  0.28950  0.23326  1.0000
  C   C5832     1.0  0.91231  0.33090  0.23576  1.0000
  H   H4669     1.0  0.83375  0.49111  0.08474  1.0000
  C   C5833     1.0  0.96736  0.29742  0.23560  1.0000
  Fe  Fe395     1.0  0.92199  0.35263  0.30771  1.0000
  S   S794      1.0  0.92221  0.35645  0.32876  1.0000
  S   S795      1.0  0.89991  0.35327  0.30469  1.0000
  Fe  Fe396     1.0  0.95463  0.34692  0.29803  1.0000
  S   S796      1.0  0.95752  0.35060  0.31794  1.0000
  S   S797      1.0  0.97508  0.34056  0.28197  1.0000
  Fe  Fe397     1.0  0.94101  0.33742  0.32945  1.0000
  S   S798      1.0  0.94706  0.32281  0.34965  1.0000
  Fe  Fe398     1.0  0.93870  0.36927  0.31566  1.0000
  S   S799      1.0  0.93873  0.39014  0.32023  1.0000
  S   S800      1.0  0.93935  0.33226  0.30965  1.0000
  S   S801      1.0  0.93718  0.36690  0.29446  1.0000
  H   H4670     1.0  0.93242  0.30661  0.34021  1.0000
  H   H4671     1.0  0.92658  0.28260  0.35114  1.0000
  S   S802      1.0  0.94097  0.26660  0.43841  1.0000
  C   C5834     1.0  0.90661  0.29122  0.41668  1.0000
  C   C5835     1.0  0.90220  0.31924  0.33693  1.0000
  S   S803      1.0  0.96895  0.41236  0.37484  1.0000
  H   H4672     1.0  0.98803  0.40189  0.33998  1.0000
  S   S804      1.0  0.96860  0.38964  0.40587  1.0000
  C   C5836     1.0  0.99798  0.47191  0.46210  1.0000
  Fe  Fe399     1.0  0.96772  0.38931  0.38381  1.0000
  S   S805      1.0  0.95328  0.37673  0.38103  1.0000
  Fe  Fe400     1.0  0.97234  0.41183  0.39631  1.0000
  S   S806      1.0  0.96113  0.42997  0.40748  1.0000
  H   H4673     1.0  0.89496  0.42599  0.23607  1.0000
  C   C5837     1.0  0.97380  0.40623  0.25205  1.0000
  H   H4674     1.0  0.97163  0.36689  0.29001  1.0000
  Fe  Fe401     1.0  0.94417  0.25072  0.42495  1.0000
  C   C5838     1.0  0.91050  0.28762  0.40339  1.0000
  C   C5839     1.0  0.97886  0.30150  0.29301  1.0000
  C   C5840     1.0  0.85251  0.45945  0.25735  1.0000
  S   S807      1.0  0.97317  0.32626  0.46372  1.0000
  H   H4675     1.0  0.96768  0.25546  0.35532  1.0000
  H   H4676     1.0  0.93781  0.32056  0.27080  1.0000
  C   C5841     1.0  0.96170  0.24847  0.45294  1.0000
  C   C5842     1.0  0.89602  0.32588  0.28439  1.0000
  C   C5843     1.0  0.98790  0.34902  0.28328  1.0000
  C   C5844     1.0  0.90506  0.32109  0.29408  1.0000
  C   C5845     1.0  0.93138  0.35455  0.25078  1.0000
  Fe  Fe402     1.0  0.99307  0.40385  0.37000  1.0000
  C   C5846     1.0  0.96860  0.44393  0.47560  1.0000
  C   C5847     1.0  0.99908  0.41289  0.45584  1.0000
  C   C5848     1.0  0.86298  0.40844  0.25604  1.0000
  H   H4677     1.0  0.90032  0.31945  0.30542  1.0000
  C   C5849     1.0  0.84573  0.32402  0.39693  1.0000
  S   S808      1.0  0.87434  0.37273  0.24889  1.0000
  C   C5850     1.0  0.95213  0.42961  0.28887  1.0000
  C   C5851     1.0  0.89004  0.43051  0.29396  1.0000
  H   H4678     1.0  0.79516  0.44762  0.27438  1.0000
  H   H4679     1.0  0.82707  0.33847  0.38963  1.0000
  C   C5852     1.0  0.98119  0.40125  0.32153  1.0000
  C   C5853     1.0  0.86332  0.42040  0.26045  1.0000
  H   H4680     1.0  0.99403  0.40050  0.25892  1.0000
  S   S809      1.0  0.95792  0.25359  0.40269  1.0000
  C   C5854     1.0  0.83884  0.33557  0.38768  1.0000
  H   H4681     1.0  0.97832  0.36220  0.34141  1.0000
  H   H4682     1.0  0.98028  0.36568  0.25336  1.0000
  C   C5855     1.0  0.92011  0.31904  0.28913  1.0000
  C   C5856     1.0  0.94251  0.30353  0.24879  1.0000
  H   H4683     1.0  0.81950  0.44446  0.32071  1.0000
  C   C5857     1.0  0.80037  0.43905  0.25561  1.0000
  Fe  Fe403     1.0  0.99232  0.27285  0.47810  1.0000
  C   C5858     1.0  0.82226  0.45888  0.27997  1.0000
  C   C5859     1.0  0.84969  0.40519  0.25734  1.0000
  C   C5860     1.0  0.98343  0.35930  0.43189  1.0000
  C   C5861     1.0  0.97601  0.35077  0.44373  1.0000
  C   C5862     1.0  0.98269  0.33661  0.44883  1.0000
  C   C5863     1.0  0.95537  0.29331  0.24577  1.0000
  H   H4684     1.0  0.89350  0.28674  0.35174  1.0000
  H   H4685     1.0  0.97827  0.37029  0.42828  1.0000
  H   H4686     1.0  0.96516  0.35525  0.44907  1.0000
  C   C5864     1.0  0.89134  0.30265  0.36339  1.0000
  C   C5865     1.0  0.92613  0.32188  0.27445  1.0000
  C   C5866     1.0  0.97291  0.43620  0.41346  1.0000
  C   C5867     1.0  0.96896  0.45019  0.41561  1.0000
  C   C5868     1.0  0.97829  0.45540  0.42021  1.0000
  H   H4687     1.0  0.97503  0.44220  0.36751  1.0000
  C   C5869     1.0  0.97189  0.24566  0.46130  1.0000
  C   C5870     1.0  0.89427  0.45911  0.24023  1.0000
  H   H4688     1.0  0.95877  0.45711  0.41351  1.0000
  H   H4689     1.0  0.88691  0.29617  0.37352  1.0000
  C   C5871     1.0  0.83671  0.41395  0.26298  1.0000
  C   C5872     1.0  0.95294  0.26223  0.44993  1.0000
  C   C5873     1.0  0.95420  0.27300  0.45561  1.0000
  C   C5874     1.0  0.96475  0.27034  0.46354  1.0000
  C   C5875     1.0  0.97365  0.25667  0.46632  1.0000
  C   C5876     1.0  0.93955  0.34692  0.44636  1.0000
  Fe  Fe404     1.0  0.98751  0.30523  0.47126  1.0000
  H   H4690     1.0  0.94727  0.28353  0.45343  1.0000
  H   H4691     1.0  0.96601  0.27883  0.46751  1.0000
  C   C5877     1.0  0.97391  0.38308  0.45841  1.0000
  C   C5878     1.0  0.97715  0.39255  0.31517  1.0000
  C   C5879     1.0  0.94206  0.38689  0.33739  1.0000
  C   C5880     1.0  0.94246  0.37326  0.34633  1.0000
  C   C5881     1.0  0.94558  0.37040  0.35981  1.0000
  C   C5882     1.0  0.94881  0.38100  0.36428  1.0000
  C   C5883     1.0  0.94831  0.39471  0.35543  1.0000
  C   C5884     1.0  0.94478  0.39770  0.34204  1.0000
  H   H4692     1.0  0.94045  0.36486  0.34283  1.0000
  H   H4693     1.0  0.94570  0.35987  0.36670  1.0000
  H   H4694     1.0  0.95055  0.40298  0.35896  1.0000
  H   H4695     1.0  0.94443  0.40828  0.33522  1.0000
  C   C5885     1.0  0.89346  0.35986  0.28873  1.0000
  C   C5886     1.0  0.87962  0.35827  0.28934  1.0000
  C   C5887     1.0  0.87404  0.36245  0.27704  1.0000
  C   C5888     1.0  0.88204  0.36863  0.26393  1.0000
  C   C5889     1.0  0.89576  0.37074  0.26324  1.0000
  C   C5890     1.0  0.90153  0.36626  0.27567  1.0000
  H   H4696     1.0  0.87328  0.35343  0.29935  1.0000
  H   H4697     1.0  0.86345  0.36079  0.27769  1.0000
  H   H4698     1.0  0.93328  0.40599  0.48132  1.0000
  H   H4699     1.0  0.91217  0.36765  0.27519  1.0000
  C   C5891     1.0  0.94198  0.30628  0.35717  1.0000
  C   C5892     1.0  0.94526  0.29855  0.37032  1.0000
  C   C5893     1.0  0.94190  0.28508  0.37653  1.0000
  C   C5894     1.0  0.93532  0.27918  0.36958  1.0000
  C   C5895     1.0  0.93179  0.28705  0.35651  1.0000
  C   C5896     1.0  0.93506  0.30063  0.35032  1.0000
  H   H4700     1.0  0.95072  0.30287  0.37558  1.0000
  H   H4701     1.0  0.94450  0.27923  0.38664  1.0000
  H   H4702     1.0  0.80045  0.42812  0.26155  1.0000
  C   C5897     1.0  0.80832  0.45784  0.30430  1.0000
  C   C5898     1.0  0.91142  0.33713  0.36955  1.0000
  H   H4703     1.0  0.90198  0.37553  0.25312  1.0000
  C   C5899     1.0  0.93634  0.36144  0.44669  1.0000
  H   H4704     1.0  0.93526  0.37300  0.25496  1.0000
  H   H4705     1.0  0.97517  0.46625  0.42171  1.0000
  C   C5900     1.0  0.98889  0.38222  0.25576  1.0000
  C   C5901     1.0  0.98096  0.25365  0.36980  1.0000
  C   C5902     1.0  0.99422  0.42307  0.46434  1.0000
  H   H4706     1.0  0.86603  0.31098  0.40147  1.0000
  H   H4707     1.0  0.97184  0.27653  0.40188  1.0000
  C   C5903     1.0  0.97899  0.47153  0.37565  1.0000
  H   H4708     1.0  0.00166  0.30044  0.28568  1.0000
  H   H4709     1.0  0.92515  0.31397  0.39101  1.0000
  H   H4710     1.0  0.99807  0.47748  0.29340  1.0000
  C   C5904     1.0  0.92690  0.30085  0.47767  1.0000
  H   H4711     1.0  0.99250  0.28548  0.42864  1.0000
  H   H4712     1.0  0.89434  0.30722  0.42873  1.0000
  C   C5905     1.0  0.93761  0.37183  0.43395  1.0000
  C   C5906     1.0  0.92542  0.31302  0.45330  1.0000
  C   C5907     1.0  0.98089  0.43205  0.28382  1.0000
  H   H4713     1.0  0.88433  0.32782  0.28825  1.0000
  C   C5908     1.0  0.97325  0.30231  0.43112  1.0000
  H   H4714     1.0  0.97746  0.30154  0.28265  1.0000
  H   H4715     1.0  0.88840  0.37195  0.38166  1.0000
  H   H4716     1.0  0.98897  0.41635  0.41519  1.0000
  S   S810      1.0  0.98664  0.25304  0.47653  1.0000
  H   H4717     1.0  0.93383  0.24252  0.45942  1.0000
  P   P195      1.0  0.92497  0.33111  0.24568  1.0000
  C   C5909     1.0  0.99659  0.46650  0.35408  1.0000
  C   C5910     1.0  0.91711  0.32678  0.26461  1.0000
  H   H4718     1.0  0.97764  0.45108  0.45307  1.0000
  C   C5911     1.0  0.98374  0.38142  0.34204  1.0000
  H   H4719     1.0  0.96363  0.41906  0.34046  1.0000
  H   H4720     1.0  0.93316  0.36458  0.45683  1.0000
  H   H4721     1.0  0.96594  0.28152  0.34599  1.0000
  C   C5912     1.0  0.95900  0.43615  0.27533  1.0000
  C   C5913     1.0  0.99042  0.47502  0.36427  1.0000
  C   C5914     1.0  0.89491  0.29733  0.35104  1.0000
  H   H4722     1.0  0.89462  0.33307  0.26255  1.0000
  H   H4723     1.0  0.99828  0.32823  0.40869  1.0000
  H   H4724     1.0  0.84993  0.47438  0.27042  1.0000
  H   H4725     1.0  0.97443  0.47803  0.38360  1.0000
  H   H4726     1.0  0.99345  0.25495  0.38357  1.0000
  C   C5915     1.0  0.97336  0.43737  0.27279  1.0000
  H   H4727     1.0  0.94096  0.42871  0.29090  1.0000
  C   C5916     1.0  0.94158  0.31797  0.24167  1.0000
  C   C5917     1.0  0.99061  0.45494  0.35504  1.0000
  H   H4728     1.0  0.92843  0.46278  0.25077  1.0000
  C   C5918     1.0  0.99602  0.36881  0.46599  1.0000
  C   C5919     1.0  0.97222  0.45680  0.32531  1.0000
  H   H4729     1.0  0.82284  0.46296  0.26863  1.0000
  H   H4730     1.0  0.95839  0.46179  0.34503  1.0000
  H   H4731     1.0  0.97272  0.37205  0.31743  1.0000
  H   H4732     1.0  0.98153  0.24227  0.37403  1.0000
  C   C5920     1.0  0.97928  0.45142  0.36652  1.0000
  C   C5921     1.0  0.98086  0.37374  0.46903  1.0000
  H   H4733     1.0  0.89472  0.45115  0.28261  1.0000
  H   H4734     1.0  0.95614  0.30321  0.30298  1.0000
  P   P196      1.0  0.85103  0.44431  0.27231  1.0000
  C   C5922     1.0  0.98310  0.36191  0.28785  1.0000
  C   C5923     1.0  0.94534  0.35323  0.42050  1.0000
  H   H4735     1.0  0.99279  0.30966  0.35345  1.0000
  H   H4736     1.0  0.87371  0.42287  0.25921  1.0000
  H   H4737     1.0  0.97437  0.46744  0.32111  1.0000
  H   H4738     1.0  0.99924  0.34906  0.38543  1.0000
  H   H4739     1.0  0.99433  0.48439  0.36351  1.0000
  C   C5924     1.0  0.99694  0.33097  0.44217  1.0000
  C   C5925     1.0  0.97411  0.42532  0.29742  1.0000
  H   H4740     1.0  0.84948  0.39591  0.25385  1.0000
  C   C5926     1.0  0.95240  0.41375  0.47887  1.0000
  H   H4741     1.0  0.97713  0.29460  0.35572  1.0000
  C   C5927     1.0  0.82026  0.44847  0.30932  1.0000
  H   H4742     1.0  0.96473  0.45691  0.38574  1.0000
  H   H4743     1.0  0.90010  0.33522  0.34823  1.0000
  S   S811      1.0  0.99166  0.38088  0.37721  1.0000
  P   P197      1.0  0.97625  0.42523  0.47564  1.0000
  C   C5928     1.0  0.89544  0.31019  0.39362  1.0000
  C   C5929     1.0  0.88747  0.44399  0.28483  1.0000
  H   H4744     1.0  0.89924  0.42721  0.29898  1.0000
  H   H4745     1.0  0.90774  0.30550  0.46934  1.0000
  C   C5930     1.0  0.94245  0.41407  0.45920  1.0000
  C   C5931     1.0  0.95340  0.42047  0.44959  1.0000
  C   C5932     1.0  0.96388  0.42349  0.45456  1.0000
  H   H4746     1.0  0.88275  0.41083  0.30364  1.0000
  H   H4747     1.0  0.93428  0.41190  0.45527  1.0000
  H   H4748     1.0  0.95363  0.42333  0.43826  1.0000
  H   H4749     1.0  0.97199  0.42891  0.44696  1.0000
  C   C5933     1.0  0.90197  0.32888  0.26973  1.0000
  H   H4750     1.0  0.92707  0.31558  0.29668  1.0000
  H   H4751     1.0  0.99366  0.32879  0.30920  1.0000
  H   H4752     1.0  0.95295  0.43762  0.35455  1.0000
  C   C5934     1.0  0.94135  0.30195  0.47462  1.0000
  C   C5935     1.0  0.96343  0.46853  0.46211  1.0000
  C   C5936     1.0  0.90507  0.29708  0.39189  1.0000
  H   H4753     1.0  0.97257  0.33790  0.41769  1.0000
  C   C5937     1.0  0.99488  0.27578  0.39614  1.0000
  H   H4754     1.0  0.91451  0.37014  0.36988  1.0000
  H   H4755     1.0  0.94150  0.29414  0.40410  1.0000
  H   H4756     1.0  0.95604  0.28218  0.25133  1.0000
  C   C5938     1.0  0.96682  0.30257  0.30443  1.0000
  S   S812      1.0  0.92484  0.24807  0.41908  1.0000
  C   C5939     1.0  0.99699  0.30621  0.41771  1.0000
  C   C5940     1.0  0.85379  0.45810  0.24342  1.0000
  C   C5941     1.0  0.96730  0.31711  0.42795  1.0000
  C   C5942     1.0  0.83699  0.42589  0.26751  1.0000
  C   C5943     1.0  0.93728  0.45549  0.24540  1.0000
  H   H4757     1.0  0.96220  0.38657  0.46070  1.0000
  P   P198      1.0  0.98330  0.41912  0.31201  1.0000
  C   C5944     1.0  0.86908  0.42546  0.28984  1.0000
  C   C5945     1.0  0.86230  0.33943  0.37321  1.0000
  H   H4758     1.0  0.86215  0.41807  0.29180  1.0000
  C   C5946     1.0  0.97570  0.43241  0.32277  1.0000
  H   H4759     1.0  0.99755  0.27743  0.33100  1.0000
  C   C5947     1.0  0.99263  0.30085  0.29480  1.0000
  H   H4760     1.0  0.98522  0.44890  0.30676  1.0000
  C   C5948     1.0  0.97969  0.32790  0.36180  1.0000
  H   H4761     1.0  0.84179  0.35206  0.36850  1.0000
  C   C5949     1.0  0.83440  0.44963  0.28494  1.0000
  H   H4762     1.0  0.97241  0.26059  0.42545  1.0000
  C   C5950     1.0  0.91269  0.24394  0.47356  1.0000
  S   S813      1.0  0.89842  0.46760  0.25133  1.0000
  C   C5951     1.0  0.97322  0.26105  0.35921  1.0000
  H   H4763     1.0  0.91903  0.31746  0.44524  1.0000
  H   H4764     1.0  0.97190  0.41732  0.25251  1.0000
  C   C5952     1.0  0.94789  0.30846  0.46089  1.0000
  C   C5953     1.0  0.94390  0.30712  0.41683  1.0000
  C   C5954     1.0  0.99446  0.30121  0.30810  1.0000
  H   H4765     1.0  0.98326  0.30355  0.32959  1.0000
  C   C5955     1.0  0.98202  0.38767  0.44474  1.0000
  H   H4766     1.0  0.95407  0.41941  0.31041  1.0000
  C   C5956     1.0  0.89368  0.31611  0.36269  1.0000
  H   H4767     1.0  0.86861  0.34532  0.36383  1.0000
  H   H4768     1.0  0.87399  0.45873  0.27124  1.0000
  H   H4769     1.0  0.90870  0.29418  0.38165  1.0000
  C   C5957     1.0  0.86930  0.32801  0.38260  1.0000
  H   H4770     1.0  0.91794  0.27754  0.40189  1.0000
  H   H4771     1.0  0.82646  0.41140  0.26385  1.0000
  C   C5958     1.0  0.98754  0.26096  0.37531  1.0000
  C   C5959     1.0  0.79740  0.45003  0.26282  1.0000
  C   C5960     1.0  0.97864  0.37708  0.25258  1.0000
  C   C5961     1.0  0.96609  0.38654  0.24886  1.0000
  H   H4772     1.0  0.93121  0.34859  0.26165  1.0000
  S   S814      1.0  0.99666  0.40500  0.39064  1.0000
  H   H4773     1.0  0.80009  0.47037  0.28575  1.0000
  C   C5962     1.0  0.93377  0.36843  0.24699  1.0000
  C   C5963     1.0  0.93271  0.40849  0.25817  1.0000
  C   C5964     1.0  0.92068  0.40503  0.25606  1.0000
  C   C5965     1.0  0.91005  0.40037  0.26776  1.0000
  C   C5966     1.0  0.91143  0.39893  0.28163  1.0000
  C   C5967     1.0  0.92318  0.40262  0.28383  1.0000
  C   C5968     1.0  0.93380  0.40735  0.27216  1.0000
  C   C5969     1.0  0.99314  0.36873  0.28910  1.0000
  C   C5970     1.0  0.98222  0.30270  0.31939  1.0000
  H   H4774     1.0  0.90329  0.30137  0.32829  1.0000
  C   C5971     1.0  0.89659  0.33819  0.37575  1.0000
  C   C5972     1.0  0.88835  0.35069  0.38043  1.0000
  C   C5973     1.0  0.97949  0.37293  0.33573  1.0000
  C   C5974     1.0  0.93006  0.33166  0.41316  1.0000
  H   H4775     1.0  0.93891  0.33906  0.45637  1.0000
  C   C5975     1.0  0.99766  0.35380  0.42525  1.0000
  C   C5976     1.0  0.80017  0.46725  0.24018  1.0000
  H   H4776     1.0  0.90624  0.32579  0.32666  1.0000
  C   C5977     1.0  0.97223  0.27575  0.35398  1.0000
  C   C5978     1.0  0.94207  0.36771  0.42089  1.0000
  C   C5979     1.0  0.99533  0.25795  0.42339  1.0000
  S   S815      1.0  0.99977  0.28878  0.45836  1.0000
  C   C5980     1.0  0.97628  0.37848  0.32227  1.0000
  P   P199      1.0  0.88886  0.32293  0.37873  1.0000
  H   H4777     1.0  0.90087  0.39758  0.26610  1.0000
  H   H4778     1.0  0.90352  0.39470  0.29068  1.0000
  H   H4779     1.0  0.92432  0.40135  0.29462  1.0000
  H   H4780     1.0  0.94306  0.40974  0.27409  1.0000
  H   H4781     1.0  0.97621  0.30216  0.39915  1.0000
  H   H4782     1.0  0.79832  0.46111  0.31179  1.0000
  C   C5981     1.0  0.94000  0.31404  0.45013  1.0000
  C   C5982     1.0  0.95960  0.42434  0.29992  1.0000
  C   C5983     1.0  0.89879  0.32453  0.34928  1.0000
  H   H4783     1.0  0.99549  0.25088  0.43382  1.0000
  C   C5984     1.0  0.89720  0.30435  0.41847  1.0000
  S   S816      1.0  0.93104  0.26225  0.37719  1.0000
  H   H4784     1.0  0.92928  0.34764  0.36244  1.0000
  C   C5985     1.0  0.97067  0.45419  0.46273  1.0000
  H   H4785     1.0  0.97460  0.39652  0.30476  1.0000
  H   H4786     1.0  0.96500  0.47635  0.45208  1.0000
  C   C5986     1.0  0.90951  0.36120  0.37166  1.0000
  H   H4787     1.0  0.88456  0.32405  0.40845  1.0000
  H   H4788     1.0  0.91108  0.28390  0.42549  1.0000
  C   C5987     1.0  0.98653  0.31340  0.36302  1.0000
  H   H4789     1.0  0.99192  0.43332  0.28173  1.0000
  C   C5988     1.0  0.97656  0.32642  0.42001  1.0000
  H   H4790     1.0  0.99482  0.44848  0.34707  1.0000
  H   H4791     1.0  0.96436  0.32778  0.39674  1.0000
  H   H4792     1.0  0.83931  0.31793  0.40602  1.0000
  C   C5989     1.0  0.96314  0.45365  0.33878  1.0000
  C   C5990     1.0  0.85104  0.47305  0.25976  1.0000
  C   C5991     1.0  0.97184  0.33308  0.37399  1.0000
  H   H4793     1.0  0.96673  0.34437  0.37308  1.0000
  C   C5992     1.0  0.96012  0.44002  0.34417  1.0000
  H   H4794     1.0  0.98943  0.37896  0.29208  1.0000
  C   C5993     1.0  0.98626  0.27585  0.37042  1.0000
  C   C5994     1.0  0.80322  0.44214  0.24068  1.0000
  C   C5995     1.0  0.94012  0.32077  0.41994  1.0000
  C   C5996     1.0  0.86092  0.32018  0.39438  1.0000
  C   C5997     1.0  0.97057  0.32371  0.38737  1.0000
  C   C5998     1.0  0.97726  0.30915  0.38864  1.0000
  C   C5999     1.0  0.88079  0.42128  0.29653  1.0000
  C   C6000     1.0  0.96362  0.41991  0.46923  1.0000
  C   C6001     1.0  0.89571  0.44417  0.24348  1.0000
  C   C6002     1.0  0.91783  0.34860  0.36741  1.0000
  P   P200      1.0  0.94738  0.41325  0.24345  1.0000
  H   H4795     1.0  0.82684  0.43254  0.27185  1.0000
  H   H4796     1.0  0.94903  0.35032  0.41021  1.0000
  C   C6003     1.0  0.98529  0.30385  0.37645  1.0000
  H   H4797     1.0  0.95094  0.29824  0.42241  1.0000
  H   H4798     1.0  0.91801  0.32741  0.36628  1.0000
  C   C6004     1.0  0.90043  0.30557  0.33782  1.0000
  H   H4799     1.0  0.95314  0.44043  0.26686  1.0000
  H   H4800     1.0  0.95910  0.30465  0.32630  1.0000
  C   C6005     1.0  0.93848  0.30470  0.40646  1.0000
  C   C6006     1.0  0.89166  0.31383  0.40698  1.0000
  C   C6007     1.0  0.99129  0.32096  0.41483  1.0000
  H   H4801     1.0  0.87700  0.35161  0.38573  1.0000
  C   C6008     1.0  0.94390  0.34269  0.43326  1.0000
  C   C6009     1.0  0.98202  0.27252  0.40534  1.0000
  C   C6010     1.0  0.97837  0.44627  0.31727  1.0000
  H   H4802     1.0  0.99013  0.33657  0.47753  1.0000
  H   H4803     1.0  0.91720  0.33773  0.39734  1.0000
  C   C6011     1.0  0.97349  0.45968  0.37683  1.0000
  C   C6012     1.0  0.87562  0.44830  0.27833  1.0000
  P   P201      1.0  0.99463  0.28519  0.37791  1.0000
  H   H4804     1.0  0.95815  0.38235  0.24663  1.0000
  C   C6013     1.0  0.85033  0.42910  0.26640  1.0000
  C   C6014     1.0  0.95409  0.47276  0.47431  1.0000
  P   P202      1.0  0.94785  0.32390  0.43288  1.0000
  C   C6015     1.0  0.96380  0.40127  0.24808  1.0000
  C   C6016     1.0  0.98635  0.39673  0.25577  1.0000
  C   C6017     1.0  0.92913  0.31581  0.39921  1.0000
  C   C6018     1.0  0.98802  0.29690  0.42605  1.0000
  C   C6019     1.0  0.96849  0.30331  0.31758  1.0000
  H   H4805     1.0  0.93531  0.38307  0.43415  1.0000
  H   H4806     1.0  0.94311  0.37576  0.41101  1.0000
  H   H4807     1.0  0.96651  0.29489  0.43741  1.0000
  H   H4808     1.0  0.92710  0.43767  0.25497  1.0000
  C   C6020     1.0  0.97863  0.28315  0.35959  1.0000
  C   C6021     1.0  0.84712  0.34324  0.37580  1.0000
  C   C6022     1.0  0.89479  0.36221  0.37826  1.0000
  C   C6023     1.0  0.83325  0.44434  0.29970  1.0000
  H   H4809     1.0  0.95912  0.30907  0.45866  1.0000
  H   H4810     1.0  0.98600  0.37721  0.35255  1.0000
  C   C6024     1.0  0.92473  0.32921  0.40272  1.0000
  H   H4811     1.0  0.98035  0.33511  0.35138  1.0000
  H   H4812     1.0  0.92622  0.34205  0.41584  1.0000
  Fe  Fe405     1.0  0.93928  0.24931  0.39701  1.0000
  C   C6025     1.0  0.91895  0.30632  0.46699  1.0000
  H   H4813     1.0  0.97661  0.39476  0.43644  1.0000
  C   C6026     1.0  0.80932  0.46303  0.28963  1.0000
  C   C6027     1.0  0.96631  0.42945  0.33618  1.0000
  C   C6028     1.0  0.98229  0.26354  0.41880  1.0000
  C   C6029     1.0  0.86633  0.43907  0.28075  1.0000
  H   H4814     1.0  0.84233  0.43714  0.30387  1.0000
  H   H4815     1.0  0.85506  0.44779  0.24112  1.0000
  H   H4816     1.0  0.89890  0.43775  0.25324  1.0000
  H   H4817     1.0  0.97923  0.48099  0.47667  1.0000
  H   H4818     1.0  0.93328  0.30017  0.25665  1.0000
  H   H4819     1.0  0.99189  0.40668  0.45542  1.0000
  C   C6030     1.0  0.99066  0.47580  0.47507  1.0000
  Fe  Fe406     1.0  0.00130  0.47642  0.42028  1.0000
  C   C6031     1.0  0.85105  0.48505  0.24843  1.0000
  H   H4820     1.0  0.99276  0.34893  0.31912  1.0000
  H   H4821     1.0  0.97860  0.44261  0.26233  1.0000
  H   H4822     1.0  0.79504  0.47267  0.26063  1.0000
  Fe  Fe407     1.0  0.99273  0.38275  0.39856  1.0000
  C   C6032     1.0  0.00005  0.33872  0.32206  1.0000
  H   H4823     1.0  0.91949  0.40558  0.24552  1.0000
  C   C6033     1.0  0.98603  0.42728  0.41639  1.0000
  H   H4824     1.0  0.94851  0.48390  0.47376  1.0000
  H   H4825     1.0  0.99229  0.47401  0.45365  1.0000
  C   C6034     1.0  0.93664  0.44115  0.24785  1.0000
  H   H4826     1.0  0.87303  0.40169  0.25155  1.0000
  C   C6035     1.0  0.94912  0.46050  0.23581  1.0000
  C   C6036     1.0  0.00067  0.32725  0.31638  1.0000
  C   C6037     1.0  0.98468  0.39549  0.33495  1.0000
  C   C6038     1.0  0.79732  0.46412  0.25510  1.0000
  Fe  Fe408     1.0  0.90476  0.48848  0.23857  1.0000
  C   C6039     1.0  0.94808  0.43166  0.24092  1.0000
  C   C6040     1.0  0.99148  0.44655  0.42298  1.0000
  C   C6041     1.0  0.94194  0.41071  0.47385  1.0000
  C   C6042     1.0  0.92877  0.34876  0.24073  1.0000
  H   H4827     1.0  0.89878  0.35156  0.23885  1.0000
  H   H4828     1.0  0.94755  0.29777  0.48287  1.0000
  H   H4829     1.0  0.00038  0.43863  0.47145  1.0000
  C   C6043     1.0  0.99530  0.43247  0.42108  1.0000
  H   H4830     1.0  0.91161  0.25492  0.47403  1.0000
  C   C6044     1.0  0.99711  0.38279  0.44162  1.0000
  C   C6045     1.0  0.99743  0.48239  0.30198  1.0000
  H   H4831     1.0  0.97438  0.37026  0.47954  1.0000
  H   H4832     1.0  0.99859  0.37486  0.25871  1.0000
  H   H4833     1.0  0.99126  0.41116  0.69193  1.0000
  H   H4834     1.0  0.95148  0.41160  0.49027  1.0000
  H   H4835     1.0  0.91467  0.25521  0.53486  1.0000
  C   C6046     1.0  0.94922  0.24456  0.51627  1.0000
  C   C6047     1.0  0.93776  0.43656  0.67177  1.0000
  C   C6048     1.0  0.96184  0.32596  0.63269  1.0000
  S   S817      1.0  0.98428  0.27095  0.58365  1.0000
  C   C6049     1.0  0.95019  0.29100  0.68045  1.0000
  C   C6050     1.0  0.93766  0.28557  0.68411  1.0000
  C   C6051     1.0  0.93428  0.27991  0.67446  1.0000
  C   C6052     1.0  0.94369  0.27893  0.66118  1.0000
  C   C6053     1.0  0.95957  0.29041  0.66700  1.0000
  H   H4836     1.0  0.93043  0.28584  0.69447  1.0000
  H   H4837     1.0  0.92441  0.27600  0.67741  1.0000
  H   H4838     1.0  0.96620  0.30461  0.62899  1.0000
  C   C6054     1.0  0.98243  0.40571  0.69706  1.0000
  C   C6055     1.0  0.90884  0.32063  0.66358  1.0000
  S   S818      1.0  0.95926  0.36491  0.65401  1.0000
  H   H4839     1.0  0.94300  0.33781  0.60034  1.0000
  S   S819      1.0  0.95404  0.29705  0.69373  1.0000
  H   H4840     1.0  0.98450  0.40387  0.62956  1.0000
  Fe  Fe409     1.0  0.95282  0.25879  0.63338  1.0000
  C   C6056     1.0  0.97827  0.32886  0.49855  1.0000
  C   C6057     1.0  0.98413  0.31734  0.58217  1.0000
  C   C6058     1.0  0.97590  0.30953  0.59404  1.0000
  C   C6059     1.0  0.97578  0.29530  0.59462  1.0000
  C   C6060     1.0  0.98388  0.28885  0.58322  1.0000
  H   H4841     1.0  0.91191  0.26901  0.51074  1.0000
  P   P203      1.0  0.94309  0.33096  0.63126  1.0000
  H   H4842     1.0  0.96987  0.31443  0.60289  1.0000
  H   H4843     1.0  0.96952  0.28931  0.60390  1.0000
  H   H4844     1.0  0.89852  0.31819  0.66451  1.0000
  C   C6061     1.0  0.92800  0.37501  0.69539  1.0000
  C   C6062     1.0  0.97214  0.26231  0.71793  1.0000
  H   H4845     1.0  0.93124  0.39115  0.60814  1.0000
  C   C6063     1.0  0.96827  0.41340  0.70163  1.0000
  C   C6064     1.0  0.96082  0.26698  0.72884  1.0000
  C   C6065     1.0  0.90890  0.36186  0.70139  1.0000
  H   H4846     1.0  0.98803  0.39076  0.52889  1.0000
  C   C6066     1.0  0.95694  0.40604  0.70758  1.0000
  H   H4847     1.0  0.97601  0.37214  0.70550  1.0000
  H   H4848     1.0  0.93563  0.29932  0.59550  1.0000
  C   C6067     1.0  0.97886  0.39845  0.63968  1.0000
  H   H4849     1.0  0.98807  0.44061  0.70441  1.0000
  H   H4850     1.0  0.98404  0.26655  0.52008  1.0000
  H   H4851     1.0  0.91572  0.46145  0.69030  1.0000
  S   S820      1.0  0.97812  0.28955  0.49012  1.0000
  H   H4852     1.0  0.96122  0.34607  0.63727  1.0000
  H   H4853     1.0  0.98308  0.26285  0.71754  1.0000
  S   S821      1.0  0.98433  0.33509  0.58170  1.0000
  C   C6068     1.0  0.99223  0.31085  0.57085  1.0000
  H   H4854     1.0  0.96970  0.39863  0.67502  1.0000
  H   H4855     1.0  0.97452  0.32138  0.49517  1.0000
  C   C6069     1.0  0.99793  0.28827  0.67466  1.0000
  H   H4856     1.0  0.95241  0.25243  0.70076  1.0000
  H   H4857     1.0  0.93418  0.28889  0.62137  1.0000
  C   C6070     1.0  0.94663  0.26631  0.72961  1.0000
  H   H4858     1.0  0.91865  0.37467  0.66537  1.0000
  H   H4859     1.0  0.98188  0.33632  0.72032  1.0000
  C   C6071     1.0  0.98741  0.36197  0.60255  1.0000
  C   C6072     1.0  0.95773  0.45337  0.71451  1.0000
  C   C6073     1.0  0.99030  0.26576  0.68049  1.0000
  C   C6074     1.0  0.96017  0.25963  0.56525  1.0000
  C   C6075     1.0  0.97953  0.43984  0.68699  1.0000
  Fe  Fe410     1.0  0.99794  0.28819  0.49769  1.0000
  H   H4860     1.0  0.84470  0.37121  0.71391  1.0000
  C   C6076     1.0  0.92196  0.30426  0.71961  1.0000
  H   H4861     1.0  0.89291  0.24835  0.57908  1.0000
  H   H4862     1.0  0.94436  0.46584  0.49652  1.0000
  C   C6077     1.0  0.99255  0.34686  0.49283  1.0000
  H   H4863     1.0  0.97945  0.36349  0.59639  1.0000
  C   C6078     1.0  0.99586  0.34829  0.60651  1.0000
  H   H4864     1.0  0.96805  0.32250  0.52070  1.0000
  C   C6079     1.0  0.96449  0.38414  0.66586  1.0000
  H   H4865     1.0  0.97491  0.43983  0.66702  1.0000
  C   C6080     1.0  0.95877  0.43890  0.71493  1.0000
  C   C6081     1.0  0.99115  0.27781  0.68458  1.0000
  C   C6082     1.0  0.94765  0.25263  0.50268  1.0000
  S   S822      1.0  0.98671  0.41556  0.65212  1.0000
  H   H4866     1.0  0.84547  0.35950  0.69482  1.0000
  P   P204      1.0  0.89681  0.35142  0.71464  1.0000
  C   C6083     1.0  0.95242  0.24940  0.57403  1.0000
  H   H4867     1.0  0.97700  0.39494  0.48919  1.0000
  H   H4868     1.0  0.97306  0.38426  0.63052  1.0000
  C   C6084     1.0  0.98195  0.44233  0.67206  1.0000
  P   P205      1.0  0.96410  0.43274  0.69842  1.0000
  H   H4869     1.0  0.99333  0.48007  0.69762  1.0000
  C   C6085     1.0  0.98210  0.39141  0.50953  1.0000
  C   C6086     1.0  0.92566  0.44709  0.67595  1.0000
  C   C6087     1.0  0.93915  0.31937  0.59648  1.0000
  C   C6088     1.0  0.93897  0.34999  0.62370  1.0000
  C   C6089     1.0  0.95645  0.28412  0.65746  1.0000
  C   C6090     1.0  0.92234  0.26220  0.51228  1.0000
  C   C6091     1.0  0.91768  0.32441  0.65009  1.0000
  C   C6092     1.0  0.97050  0.31236  0.63127  1.0000
  C   C6093     1.0  0.97799  0.40243  0.65226  1.0000
  C   C6094     1.0  0.96876  0.24689  0.67639  1.0000
  H   H4870     1.0  0.99563  0.44978  0.65178  1.0000
  C   C6095     1.0  0.95544  0.25547  0.54445  1.0000
  C   C6096     1.0  0.92698  0.32239  0.67461  1.0000
  C   C6097     1.0  0.98804  0.34808  0.50717  1.0000
  H   H4871     1.0  0.95693  0.24437  0.66253  1.0000
  C   C6098     1.0  0.93334  0.37969  0.61243  1.0000
  C   C6099     1.0  0.94374  0.26105  0.71941  1.0000
  C   C6100     1.0  0.92775  0.37801  0.68096  1.0000
  C   C6101     1.0  0.90634  0.33282  0.71715  1.0000
  H   H4872     1.0  0.96764  0.27071  0.54374  1.0000
  H   H4873     1.0  0.89079  0.34075  0.69286  1.0000
  C   C6102     1.0  0.85479  0.36455  0.70935  1.0000
  S   S823      1.0  0.95103  0.35522  0.72133  1.0000
  C   C6103     1.0  0.90726  0.30770  0.71926  1.0000
  C   C6104     1.0  0.95504  0.25643  0.70845  1.0000
  C   C6105     1.0  0.95260  0.45855  0.72706  1.0000
  H   H4874     1.0  0.94005  0.31218  0.71986  1.0000
  H   H4875     1.0  0.90204  0.29935  0.71961  1.0000
  S   S824      1.0  0.97462  0.35105  0.68787  1.0000
  C   C6106     1.0  0.88048  0.35398  0.70839  1.0000
  H   H4876     1.0  0.98366  0.43156  0.49935  1.0000
  C   C6107     1.0  0.96936  0.25708  0.70755  1.0000
  H   H4877     1.0  0.96370  0.25813  0.67558  1.0000
  C   C6108     1.0  0.98961  0.37364  0.60615  1.0000
  C   C6109     1.0  0.98722  0.33745  0.48856  1.0000
  H   H4878     1.0  0.99214  0.36973  0.66915  1.0000
  H   H4879     1.0  0.96493  0.26527  0.56992  1.0000
  C   C6110     1.0  0.92515  0.45336  0.68698  1.0000
  H   H4880     1.0  0.91685  0.25207  0.56437  1.0000
  H   H4881     1.0  0.95647  0.44035  0.49756  1.0000
  S   S825      1.0  0.97848  0.32566  0.67155  1.0000
  Fe  Fe411     1.0  0.98781  0.32895  0.68809  1.0000
  Fe  Fe412     1.0  0.97254  0.25862  0.60409  1.0000
  H   H4882     1.0  0.95675  0.25803  0.53299  1.0000
  H   H4883     1.0  0.93499  0.38419  0.67301  1.0000
  C   C6111     1.0  0.99078  0.31854  0.63553  1.0000
  C   C6112     1.0  0.97922  0.33934  0.51716  1.0000
  C   C6113     1.0  0.98289  0.42044  0.50219  1.0000
  C   C6114     1.0  0.99198  0.29673  0.57129  1.0000
  C   C6115     1.0  0.94883  0.35606  0.61194  1.0000
  H   H4884     1.0  0.98645  0.33957  0.63976  1.0000
  H   H4885     1.0  0.95099  0.38560  0.71353  1.0000
  C   C6116     1.0  0.93739  0.24531  0.52802  1.0000
  H   H4886     1.0  0.92825  0.29340  0.71982  1.0000
  H   H4887     1.0  0.96941  0.29436  0.66413  1.0000
  H   H4888     1.0  0.86856  0.34429  0.68435  1.0000
  C   C6117     1.0  0.93675  0.30553  0.60227  1.0000
  C   C6118     1.0  0.86822  0.34939  0.69271  1.0000
  H   H4889     1.0  0.93823  0.43165  0.66322  1.0000
  Fe  Fe413     1.0  0.96172  0.31743  0.69009  1.0000
  C   C6119     1.0  0.97449  0.32960  0.51289  1.0000
  C   C6120     1.0  0.90898  0.36471  0.68678  1.0000
  C   C6121     1.0  0.93677  0.44916  0.69381  1.0000
  H   H4890     1.0  0.94650  0.32778  0.66049  1.0000
  H   H4891     1.0  0.93073  0.32121  0.68415  1.0000
  H   H4892     1.0  0.95878  0.34933  0.60717  1.0000
  C   C6122     1.0  0.93421  0.26138  0.50064  1.0000
  C   C6123     1.0  0.86735  0.36259  0.71424  1.0000
  Fe  Fe414     1.0  0.95826  0.34107  0.70545  1.0000
  C   C6124     1.0  0.96569  0.37986  0.65334  1.0000
  H   H4893     1.0  0.96387  0.28327  0.64730  1.0000
  H   H4894     1.0  0.91377  0.38064  0.62897  1.0000
  H   H4895     1.0  0.91860  0.35460  0.63895  1.0000
  C   C6125     1.0  0.93815  0.30729  0.62544  1.0000
  H   H4896     1.0  0.95686  0.25199  0.49370  1.0000
  S   S826      1.0  0.97232  0.31886  0.70675  1.0000
  C   C6126     1.0  0.98520  0.39085  0.69855  1.0000
  H   H4897     1.0  0.98882  0.41637  0.52243  1.0000
  H   H4898     1.0  0.98205  0.38012  0.51233  1.0000
  C   C6127     1.0  0.97908  0.39990  0.49652  1.0000
  H   H4899     1.0  0.93565  0.37869  0.69869  1.0000
  C   C6128     1.0  0.99374  0.44803  0.66331  1.0000
  H   H4900     1.0  0.99814  0.29193  0.56237  1.0000
  C   C6129     1.0  0.94089  0.32726  0.60519  1.0000
  C   C6130     1.0  0.91868  0.36691  0.70557  1.0000
  C   C6131     1.0  0.94049  0.32123  0.61977  1.0000
  H   H4901     1.0  0.92620  0.33722  0.71839  1.0000
  H   H4902     1.0  0.94586  0.41179  0.71088  1.0000
  S   S827      1.0  0.99572  0.28962  0.52015  1.0000
  C   C6132     1.0  0.98966  0.25558  0.51971  1.0000
  C   C6133     1.0  0.93610  0.29958  0.61678  1.0000
  C   C6134     1.0  0.96167  0.26268  0.55047  1.0000
  H   H4903     1.0  0.91392  0.32510  0.64069  1.0000
  H   H4904     1.0  0.94002  0.32387  0.58515  1.0000
  C   C6135     1.0  0.92350  0.37375  0.62416  1.0000
  H   H4905     1.0  0.86672  0.36782  0.72257  1.0000
  C   C6136     1.0  0.94902  0.43862  0.68963  1.0000
  H   H4906     1.0  0.93598  0.45408  0.70241  1.0000
  H   H4907     1.0  0.95117  0.24708  0.58551  1.0000
  H   H4908     1.0  0.90695  0.31613  0.68632  1.0000
  H   H4909     1.0  0.90198  0.36072  0.68304  1.0000
  C   C6137     1.0  0.92628  0.35895  0.62978  1.0000
  C   C6138     1.0  0.98293  0.48574  0.71795  1.0000
  C   C6139     1.0  0.99651  0.48684  0.53405  1.0000
  S   S828      1.0  0.94832  0.26260  0.61158  1.0000
  S   S829      1.0  0.94628  0.33904  0.69031  1.0000
  C   C6140     1.0  0.93595  0.32600  0.66114  1.0000
  S   S830      1.0  0.93837  0.27172  0.64966  1.0000
  C   C6141     1.0  0.94934  0.43230  0.67861  1.0000
  H   H4910     1.0  0.93797  0.30230  0.63658  1.0000
  H   H4911     1.0  0.97636  0.33984  0.52832  1.0000
  C   C6142     1.0  0.92865  0.31491  0.71952  1.0000
  P   P206      1.0  0.98430  0.25080  0.69371  1.0000
  H   H4912     1.0  0.98907  0.42457  0.72735  1.0000
  C   C6143     1.0  0.99599  0.26461  0.66621  1.0000
  C   C6144     1.0  0.91839  0.37272  0.67664  1.0000
  H   H4913     1.0  0.99213  0.47633  0.49580  1.0000
  C   C6145     1.0  0.98941  0.44276  0.69298  1.0000
  C   C6146     1.0  0.94596  0.37084  0.60629  1.0000
  H   H4914     1.0  0.95915  0.37858  0.67603  1.0000
  S   S831      1.0  0.97688  0.25669  0.62547  1.0000
  H   H4915     1.0  0.99267  0.30830  0.53861  1.0000
  H   H4916     1.0  0.91931  0.36446  0.71666  1.0000
  C   C6147     1.0  0.98593  0.41189  0.51519  1.0000
  H   H4917     1.0  0.95860  0.42407  0.67523  1.0000
  H   H4918     1.0  0.99169  0.29829  0.63145  1.0000
  Fe  Fe415     1.0  0.96385  0.34732  0.67296  1.0000
  C   C6148     1.0  0.85521  0.35796  0.69860  1.0000
  H   H4919     1.0  0.99141  0.35550  0.51087  1.0000
  C   C6149     1.0  0.97389  0.38362  0.70451  1.0000
  C   C6150     1.0  0.91354  0.31952  0.67585  1.0000
  C   C6151     1.0  0.93143  0.32685  0.64876  1.0000
  H   H4920     1.0  0.98323  0.38430  0.60288  1.0000
  H   H4921     1.0  0.91667  0.45036  0.67066  1.0000
  C   C6152     1.0  0.98556  0.32881  0.72945  1.0000
  H   H4922     1.0  0.95359  0.37543  0.59720  1.0000
  H   H4923     1.0  0.95113  0.46986  0.72658  1.0000
  H   H4924     1.0  0.98682  0.27914  0.69541  1.0000
  C   C6153     1.0  0.96773  0.33562  0.63590  1.0000
  H   H4925     1.0  0.96036  0.46077  0.70439  1.0000
  C   C6154     1.0  0.92083  0.32911  0.71847  1.0000
  C   C6155     1.0  0.98210  0.33193  0.63731  1.0000
  C   C6156     1.0  0.98496  0.30872  0.63262  1.0000
  C   C6157     1.0  0.97042  0.39556  0.66529  1.0000
  C   C6158     1.0  0.97243  0.38735  0.64021  1.0000
  C   C6159     1.0  0.88079  0.34741  0.69757  1.0000
  C   C6160     1.0  0.95977  0.39121  0.70904  1.0000
  C   C6161     1.0  0.97911  0.41457  0.49289  1.0000
  H   H4926     1.0  0.93306  0.26748  0.49002  1.0000
  H   H4927     1.0  0.88796  0.32426  0.71827  1.0000
  C   C6162     1.0  0.99361  0.47781  0.70880  1.0000
  C   C6163     1.0  0.98550  0.39740  0.51887  1.0000
  H   H4928     1.0  0.99368  0.48407  0.61427  1.0000
  H   H4929     1.0  0.91859  0.43352  0.73374  1.0000
  C   C6164     1.0  0.89939  0.32190  0.71827  1.0000
  H   H4930     1.0  0.99568  0.25540  0.66274  1.0000
  C   C6165     1.0  0.92394  0.25429  0.52596  1.0000
  H   H4931     1.0  0.97709  0.25363  0.50630  1.0000
  H   H4932     1.0  0.91339  0.46004  0.72911  1.0000
  C   C6166     1.0  0.99722  0.31711  0.72745  1.0000
  C   C6167     1.0  0.89226  0.35692  0.73137  1.0000
  H   H4933     1.0  0.89068  0.37952  0.72161  1.0000
  H   H4934     1.0  0.99783  0.34923  0.69913  1.0000
  C   C6168     1.0  0.95497  0.42965  0.72818  1.0000
  H   H4935     1.0  0.93273  0.26064  0.71988  1.0000
  C   C6169     1.0  0.98351  0.48326  0.73234  1.0000
  C   C6170     1.0  0.94760  0.24516  0.55322  1.0000
  H   H4936     1.0  0.95521  0.41859  0.72889  1.0000
  C   C6171     1.0  0.88986  0.37147  0.73150  1.0000
  H   H4937     1.0  0.99609  0.28312  0.61608  1.0000
  H   H4938     1.0  0.99606  0.38497  0.69475  1.0000
  C   C6172     1.0  0.00025  0.37159  0.61374  1.0000
  H   H4939     1.0  0.92185  0.29582  0.48832  1.0000
  H   H4940     1.0  0.99427  0.33923  0.60367  1.0000
  H   H4941     1.0  0.99845  0.35809  0.64897  1.0000
  H   H4942     1.0  0.99864  0.31676  0.56174  1.0000
  C   C6173     1.0  0.99912  0.37353  0.73541  1.0000
  H   H4943     1.0  0.99888  0.29733  0.67800  1.0000
  C   C6174     1.0  0.95182  0.46259  0.48713  1.0000
  C   C6175     1.0  0.95886  0.44817  0.48772  1.0000
  H   H4944     1.0  0.89165  0.24245  0.48700  1.0000
  C   C6176     1.0  0.99814  0.47337  0.48582  1.0000
  C   C6177     1.0  0.98568  0.24823  0.51201  1.0000
  C   C6178     1.0  0.00116  0.24898  0.52656  1.0000
  C   C6179     1.0  0.00112  0.44860  0.68417  1.0000
  C   C6180     1.0  0.91336  0.24264  0.56455  1.0000
  H   H4945     1.0  0.99094  0.24198  0.57718  1.0000
  C   C6181     1.0  0.94616  0.24220  0.56806  1.0000
  H   H4946     1.0  0.99173  0.35517  0.73542  1.0000
  C   C6182     1.0  0.00174  0.37115  0.66090  1.0000
  H   H4947     1.0  0.00148  0.24150  0.63968  1.0000
  H   H4948     1.0  0.00173  0.46622  0.54807  1.0000
  C   C6183     1.0  0.66965  0.26418  0.95574  1.0000
  S   S832      1.0  0.69626  0.31430  0.97890  1.0000
  C   C6184     1.0  0.71451  0.38521  0.95556  1.0000
  Fe  Fe416     1.0  0.72759  0.32166  0.94637  1.0000
  S   S833      1.0  0.70551  0.32214  0.94354  1.0000
  S   S834      1.0  0.74770  0.32529  0.92942  1.0000
  H   H4949     1.0  0.93128  0.48236  0.83687  1.0000
  H   H4950     1.0  0.65536  0.28983  0.97111  1.0000
  Fe  Fe417     1.0  0.70572  0.30226  0.96122  1.0000
  S   S835      1.0  0.69745  0.28193  0.96502  1.0000
  H   H4951     1.0  0.64543  0.34764  0.92217  1.0000
  S   S836      1.0  0.72866  0.30068  0.96234  1.0000
  S   S837      1.0  0.59504  0.28659  0.93270  1.0000
  C   C6185     1.0  0.93339  0.36459  0.74454  1.0000
  S   S838      1.0  0.58098  0.33339  0.96874  1.0000
  C   C6186     1.0  0.82581  0.34528  0.90795  1.0000
  Fe  Fe418     1.0  0.80551  0.39281  0.91207  1.0000
  S   S839      1.0  0.78440  0.40862  0.91029  1.0000
  S   S840      1.0  0.81576  0.38519  0.93111  1.0000
  Fe  Fe419     1.0  0.81008  0.38656  0.88316  1.0000
  S   S841      1.0  0.78923  0.40161  0.87876  1.0000
  S   S842      1.0  0.82643  0.37252  0.86918  1.0000
  Fe  Fe420     1.0  0.79569  0.41645  0.88776  1.0000
  S   S843      1.0  0.79127  0.43999  0.87752  1.0000
  Fe  Fe421     1.0  0.77940  0.39259  0.90158  1.0000
  S   S844      1.0  0.75648  0.38910  0.90889  1.0000
  S   S845      1.0  0.81747  0.40211  0.89027  1.0000
  S   S846      1.0  0.79962  0.37612  0.90520  1.0000
  Fe  Fe422     1.0  0.88205  0.39391  0.80161  1.0000
  S   S847      1.0  0.89141  0.39028  0.77932  1.0000
  S   S848      1.0  0.85868  0.40465  0.80966  1.0000
  Fe  Fe423     1.0  0.91088  0.38251  0.81016  1.0000
  S   S849      1.0  0.92303  0.37782  0.78885  1.0000
  S   S850      1.0  0.92044  0.37720  0.82940  1.0000
  Fe  Fe424     1.0  0.90985  0.39909  0.77975  1.0000
  H   H4952     1.0  0.84450  0.35795  0.92356  1.0000
  Fe  Fe425     1.0  0.90401  0.36929  0.78969  1.0000
  S   S851      1.0  0.90801  0.34900  0.78201  1.0000
  S   S852      1.0  0.89942  0.40474  0.80109  1.0000
  S   S853      1.0  0.89295  0.37197  0.81200  1.0000
  C   C6187     1.0  0.60320  0.35383  0.92125  1.0000
  P   P207      1.0  0.79833  0.39240  0.82536  1.0000
  H   H4953     1.0  0.97693  0.40567  0.74025  1.0000
  C   C6188     1.0  0.93801  0.48049  0.87819  1.0000
  H   H4954     1.0  0.54689  0.25768  0.89576  1.0000
  H   H4955     1.0  0.93836  0.33103  0.73958  1.0000
  H   H4956     1.0  0.93476  0.43759  0.82250  1.0000
  C   C6189     1.0  0.86112  0.37783  0.91412  1.0000
  H   H4957     1.0  0.90770  0.45757  0.77384  1.0000
  H   H4958     1.0  0.73466  0.42338  0.91116  1.0000
  C   C6190     1.0  0.88555  0.36550  0.75730  1.0000
  Fe  Fe426     1.0  0.85878  0.43047  0.94424  1.0000
  S   S854      1.0  0.87667  0.43308  0.92461  1.0000
  S   S855      1.0  0.83526  0.43445  0.94379  1.0000
  Fe  Fe427     1.0  0.87884  0.42344  0.96422  1.0000
  S   S856      1.0  0.89864  0.42537  0.94668  1.0000
  Fe  Fe428     1.0  0.88412  0.44485  0.93633  1.0000
  S   S857      1.0  0.89317  0.46462  0.92677  1.0000
  Fe  Fe429     1.0  0.88989  0.41339  0.93647  1.0000
  S   S858      1.0  0.90398  0.39344  0.92924  1.0000
  S   S859      1.0  0.86503  0.44406  0.95494  1.0000
  S   S860      1.0  0.87115  0.40974  0.95503  1.0000
  C   C6191     1.0  0.53382  0.27829  0.92553  1.0000
  S   S861      1.0  0.97999  0.42553  0.86950  1.0000
  Fe  Fe430     1.0  0.97427  0.41206  0.83908  1.0000
  S   S862      1.0  0.95589  0.41779  0.85724  1.0000
  S   S863      1.0  0.97175  0.40724  0.81941  1.0000
  Fe  Fe431     1.0  0.96573  0.43668  0.85375  1.0000
  S   S864      1.0  0.95327  0.45961  0.84920  1.0000
  Fe  Fe432     1.0  0.97190  0.40609  0.87099  1.0000
  S   S865      1.0  0.96782  0.38929  0.89118  1.0000
  S   S866      1.0  0.98310  0.43152  0.83491  1.0000
  S   S867      1.0  0.98953  0.39849  0.85305  1.0000
  C   C6192     1.0  0.92194  0.39320  0.91939  1.0000
  C   C6193     1.0  0.93244  0.38041  0.92130  1.0000
  C   C6194     1.0  0.94658  0.37949  0.91286  1.0000
  C   C6195     1.0  0.95017  0.39115  0.90200  1.0000
  C   C6196     1.0  0.93964  0.40388  0.89991  1.0000
  C   C6197     1.0  0.92564  0.40502  0.90888  1.0000
  H   H4959     1.0  0.92962  0.37116  0.92928  1.0000
  H   H4960     1.0  0.95466  0.36959  0.91447  1.0000
  H   H4961     1.0  0.94231  0.41275  0.89128  1.0000
  H   H4962     1.0  0.91755  0.41481  0.90739  1.0000
  H   H4963     1.0  0.71978  0.25755  0.93208  1.0000
  C   C6198     1.0  0.94292  0.46044  0.83715  1.0000
  C   C6199     1.0  0.94425  0.44816  0.83237  1.0000
  H   H4964     1.0  0.67278  0.38104  0.94073  1.0000
  H   H4965     1.0  0.95291  0.43900  0.83423  1.0000
  C   C6200     1.0  0.93387  0.38657  0.82677  1.0000
  C   C6201     1.0  0.93936  0.38621  0.83835  1.0000
  C   C6202     1.0  0.95044  0.39334  0.83629  1.0000
  C   C6203     1.0  0.95627  0.40048  0.82258  1.0000
  C   C6204     1.0  0.95046  0.40121  0.81110  1.0000
  C   C6205     1.0  0.93923  0.39429  0.81317  1.0000
  H   H4966     1.0  0.93514  0.38032  0.84888  1.0000
  H   H4967     1.0  0.95490  0.39281  0.84517  1.0000
  H   H4968     1.0  0.95466  0.40711  0.80061  1.0000
  H   H4969     1.0  0.93486  0.39476  0.80423  1.0000
  C   C6206     1.0  0.91957  0.35050  0.76490  1.0000
  C   C6207     1.0  0.92471  0.33883  0.75820  1.0000
  H   H4970     1.0  0.89293  0.33546  0.74459  1.0000
  H   H4971     1.0  0.94922  0.45578  0.79577  1.0000
  C   C6208     1.0  0.71947  0.36910  0.97758  1.0000
  C   C6209     1.0  0.92385  0.36339  0.75795  1.0000
  H   H4972     1.0  0.71623  0.40992  0.92621  1.0000
  C   C6210     1.0  0.96754  0.40819  0.97777  1.0000
  C   C6211     1.0  0.79320  0.42004  0.98387  1.0000
  H   H4973     1.0  0.91978  0.37252  0.76286  1.0000
  C   C6212     1.0  0.68295  0.39457  0.94624  1.0000
  C   C6213     1.0  0.91240  0.43737  0.76778  1.0000
  C   C6214     1.0  0.90977  0.45241  0.76510  1.0000
  C   C6215     1.0  0.84238  0.35401  0.91551  1.0000
  H   H4974     1.0  0.91239  0.43107  0.77854  1.0000
  C   C6216     1.0  0.52856  0.24774  0.90073  1.0000
  C   C6217     1.0  0.87923  0.47986  0.92382  1.0000
  C   C6218     1.0  0.86649  0.47884  0.92094  1.0000
  C   C6219     1.0  0.84524  0.47942  0.80347  1.0000
  H   H4975     1.0  0.86516  0.46857  0.92052  1.0000
  C   C6220     1.0  0.97260  0.44541  0.96065  1.0000
  C   C6221     1.0  0.82060  0.39893  0.93513  1.0000
  C   C6222     1.0  0.81503  0.41327  0.92932  1.0000
  C   C6223     1.0  0.81952  0.42413  0.93214  1.0000
  C   C6224     1.0  0.82988  0.42066  0.94042  1.0000
  C   C6225     1.0  0.83517  0.40633  0.94653  1.0000
  C   C6226     1.0  0.83035  0.39547  0.94405  1.0000
  H   H4976     1.0  0.80732  0.41601  0.92260  1.0000
  H   H4977     1.0  0.81515  0.43524  0.92771  1.0000
  H   H4978     1.0  0.84294  0.40361  0.95317  1.0000
  H   H4979     1.0  0.83465  0.38435  0.94855  1.0000
  C   C6227     1.0  0.83527  0.38162  0.85273  1.0000
  C   C6228     1.0  0.84681  0.37382  0.84412  1.0000
  C   C6229     1.0  0.85423  0.38087  0.83105  1.0000
  C   C6230     1.0  0.84986  0.39570  0.82630  1.0000
  C   C6231     1.0  0.83808  0.40345  0.83477  1.0000
  C   C6232     1.0  0.83097  0.39647  0.84810  1.0000
  H   H4980     1.0  0.85011  0.36232  0.84762  1.0000
  H   H4981     1.0  0.86301  0.37473  0.82446  1.0000
  H   H4982     1.0  0.83461  0.41491  0.83113  1.0000
  H   H4983     1.0  0.82213  0.40256  0.85475  1.0000
  C   C6233     1.0  0.80048  0.44922  0.88329  1.0000
  C   C6234     1.0  0.79890  0.46410  0.87842  1.0000
  C   C6235     1.0  0.80751  0.47120  0.88180  1.0000
  C   C6236     1.0  0.81772  0.46337  0.89001  1.0000
  C   C6237     1.0  0.81858  0.44871  0.89557  1.0000
  C   C6238     1.0  0.80994  0.44164  0.89231  1.0000
  H   H4984     1.0  0.79120  0.47010  0.87187  1.0000
  H   H4985     1.0  0.80660  0.48260  0.87766  1.0000
  H   H4986     1.0  0.82601  0.44280  0.90237  1.0000
  H   H4987     1.0  0.81087  0.43028  0.89651  1.0000
  C   C6239     1.0  0.70462  0.39303  0.97787  1.0000
  C   C6240     1.0  0.58947  0.29937  0.94330  1.0000
  C   C6241     1.0  0.58694  0.29533  0.95825  1.0000
  C   C6242     1.0  0.58317  0.30585  0.96636  1.0000
  C   C6243     1.0  0.58253  0.32029  0.95944  1.0000
  C   C6244     1.0  0.58472  0.32424  0.94456  1.0000
  C   C6245     1.0  0.58794  0.31386  0.93653  1.0000
  H   H4988     1.0  0.58800  0.28412  0.96352  1.0000
  H   H4989     1.0  0.58148  0.30274  0.97786  1.0000
  H   H4990     1.0  0.58410  0.33537  0.93921  1.0000
  H   H4991     1.0  0.58983  0.31703  0.92502  1.0000
  C   C6246     1.0  0.93573  0.37767  0.95905  1.0000
  S   S868      1.0  0.90980  0.45783  0.81482  1.0000
  H   H4992     1.0  0.81525  0.34294  0.90973  1.0000
  C   C6247     1.0  0.82889  0.35066  0.91795  1.0000
  C   C6248     1.0  0.93231  0.47271  0.83345  1.0000
  C   C6249     1.0  0.64624  0.29389  0.96600  1.0000
  S   S869      1.0  0.62507  0.26749  0.95444  1.0000
  P   P208      1.0  0.69591  0.41216  0.95363  1.0000
  C   C6250     1.0  0.87415  0.38222  0.92905  1.0000
  C   C6251     1.0  0.62260  0.33517  0.93011  1.0000
  C   C6252     1.0  0.75435  0.37127  0.91514  1.0000
  C   C6253     1.0  0.74054  0.36863  0.92216  1.0000
  C   C6254     1.0  0.73846  0.35453  0.92692  1.0000
  C   C6255     1.0  0.75016  0.34300  0.92441  1.0000
  C   C6256     1.0  0.76399  0.34564  0.91746  1.0000
  C   C6257     1.0  0.76612  0.35973  0.91297  1.0000
  H   H4993     1.0  0.73138  0.37752  0.92372  1.0000
  H   H4994     1.0  0.72772  0.35261  0.93212  1.0000
  H   H4995     1.0  0.77305  0.33676  0.91546  1.0000
  H   H4996     1.0  0.77677  0.36164  0.90748  1.0000
  H   H4997     1.0  0.77444  0.41579  0.81693  1.0000
  C   C6258     1.0  0.67741  0.26863  0.96295  1.0000
  C   C6259     1.0  0.76685  0.38408  0.86165  1.0000
  H   H4998     1.0  0.96305  0.27124  0.73662  1.0000
  H   H4999     1.0  0.79643  0.36494  0.87519  1.0000
  C   C6260     1.0  0.98759  0.43661  0.74260  1.0000
  C   C6261     1.0  0.84256  0.44651  0.84144  1.0000
  H   H5000     1.0  0.82781  0.45049  0.86129  1.0000
  H   H5001     1.0  0.80757  0.44715  0.82231  1.0000
  H   H5002     1.0  0.66911  0.35455  0.91337  1.0000
  C   C6262     1.0  0.99283  0.35398  0.83372  1.0000
  C   C6263     1.0  0.62244  0.30486  0.95323  1.0000
  C   C6264     1.0  0.62084  0.29649  0.96711  1.0000
  C   C6265     1.0  0.63270  0.29116  0.97355  1.0000
  C   C6266     1.0  0.63575  0.31170  0.91470  1.0000
  C   C6267     1.0  0.64161  0.31694  0.90021  1.0000
  C   C6268     1.0  0.64038  0.31091  0.88970  1.0000
  C   C6269     1.0  0.63325  0.29965  0.89355  1.0000
  C   C6270     1.0  0.62735  0.29444  0.90790  1.0000
  C   C6271     1.0  0.62861  0.30038  0.91847  1.0000
  H   H5003     1.0  0.61304  0.30927  0.94855  1.0000
  H   H5004     1.0  0.61039  0.29416  0.97290  1.0000
  C   C6272     1.0  0.91304  0.45377  0.73990  1.0000
  H   H5005     1.0  0.64707  0.32573  0.89702  1.0000
  H   H5006     1.0  0.64495  0.31497  0.87856  1.0000
  H   H5007     1.0  0.63224  0.29496  0.88545  1.0000
  H   H5008     1.0  0.62171  0.28580  0.91089  1.0000
  H   H5009     1.0  0.62393  0.29608  0.92948  1.0000
  H   H5010     1.0  0.76949  0.37156  0.88252  1.0000
  C   C6273     1.0  0.67250  0.40129  0.92548  1.0000
  C   C6274     1.0  0.87878  0.48520  0.88110  1.0000
  C   C6275     1.0  0.68155  0.27735  0.93338  1.0000
  C   C6276     1.0  0.52442  0.33596  0.97575  1.0000
  C   C6277     1.0  0.84888  0.48093  0.78866  1.0000
  H   H5011     1.0  0.92139  0.32884  0.76354  1.0000
  H   H5012     1.0  0.69180  0.33627  0.90802  1.0000
  H   H5013     1.0  0.80642  0.41559  0.80143  1.0000
  C   C6278     1.0  0.97815  0.39774  0.77918  1.0000
  C   C6279     1.0  0.81170  0.37611  0.97949  1.0000
  C   C6280     1.0  0.75079  0.39562  0.94411  1.0000
  H   H5014     1.0  0.98942  0.40811  0.97792  1.0000
  H   H5015     1.0  0.88723  0.34315  0.76728  1.0000
  C   C6281     1.0  0.76921  0.41958  0.98228  1.0000
  C   C6282     1.0  0.84078  0.37560  0.80768  1.0000
  C   C6283     1.0  0.80196  0.42771  0.83628  1.0000
  H   H5016     1.0  0.67362  0.42234  0.91233  1.0000
  H   H5017     1.0  0.79706  0.40733  0.84744  1.0000
  H   H5018     1.0  0.82774  0.39650  0.80888  1.0000
  C   C6284     1.0  0.78852  0.38439  0.80571  1.0000
  C   C6285     1.0  0.53025  0.29319  0.92080  1.0000
  H   H5019     1.0  0.99881  0.48468  0.81986  1.0000
  S   S870      1.0  0.62814  0.25499  0.92619  1.0000
  H   H5020     1.0  0.53186  0.25800  0.92376  1.0000
  C   C6286     1.0  0.79009  0.37152  0.86743  1.0000
  H   H5021     1.0  0.93785  0.26997  0.73804  1.0000
  C   C6287     1.0  0.68703  0.40779  0.94246  1.0000
  H   H5022     1.0  0.96306  0.34376  0.77863  1.0000
  C   C6288     1.0  0.93440  0.47890  0.89302  1.0000
  C   C6289     1.0  0.84159  0.36086  0.81190  1.0000
  H   H5023     1.0  0.70619  0.43576  0.95731  1.0000
  H   H5024     1.0  0.81246  0.45095  0.84356  1.0000
  H   H5025     1.0  0.50897  0.29551  0.84572  1.0000
  H   H5026     1.0  0.73801  0.44391  0.91831  1.0000
  H   H5027     1.0  0.67587  0.26500  0.97440  1.0000
  C   C6290     1.0  0.76141  0.41073  0.95165  1.0000
  H   H5028     1.0  0.96524  0.37180  0.81691  1.0000
  H   H5029     1.0  0.85035  0.37966  0.80151  1.0000
  C   C6291     1.0  0.77642  0.38914  0.94392  1.0000
  C   C6292     1.0  0.95012  0.43479  0.74072  1.0000
  C   C6293     1.0  0.96370  0.40756  0.95512  1.0000
  H   H5030     1.0  0.99911  0.40705  0.95239  1.0000
  C   C6294     1.0  0.52104  0.27558  0.90924  1.0000
  H   H5031     1.0  0.51051  0.29559  0.89705  1.0000
  C   C6295     1.0  0.98454  0.47120  0.88996  1.0000
  C   C6296     1.0  0.95353  0.46287  0.78600  1.0000
  C   C6297     1.0  0.54020  0.29393  0.96249  1.0000
  C   C6298     1.0  0.81817  0.47167  0.83601  1.0000
  H   H5032     1.0  0.99286  0.26038  0.77793  1.0000
  C   C6299     1.0  0.93408  0.44745  0.82545  1.0000
  C   C6300     1.0  0.67580  0.39132  0.93773  1.0000
  H   H5033     1.0  0.96917  0.33958  0.74467  1.0000
  C   C6301     1.0  0.77602  0.40755  0.81119  1.0000
  H   H5034     1.0  0.93666  0.37463  0.73933  1.0000
  C   C6302     1.0  0.73012  0.43780  0.92516  1.0000
  H   H5035     1.0  0.97439  0.37124  0.83764  1.0000
  C   C6303     1.0  0.74167  0.43267  0.96730  1.0000
  C   C6304     1.0  0.74932  0.40778  0.94912  1.0000
  C   C6305     1.0  0.97384  0.37300  0.73927  1.0000
  C   C6306     1.0  0.77495  0.37527  0.87157  1.0000
  C   C6307     1.0  0.82802  0.46149  0.98164  1.0000
  C   C6308     1.0  0.63604  0.30763  0.94547  1.0000
  H   H5036     1.0  0.80888  0.37393  0.85052  1.0000
  H   H5037     1.0  0.82999  0.34424  0.82355  1.0000
  H   H5038     1.0  0.91634  0.37460  0.95536  1.0000
  H   H5039     1.0  0.87657  0.48876  0.82793  1.0000
  C   C6309     1.0  0.81625  0.47211  0.95552  1.0000
  C   C6310     1.0  0.68109  0.42203  0.96506  1.0000
  H   H5040     1.0  0.99678  0.35384  0.84284  1.0000
  C   C6311     1.0  0.99524  0.30974  0.75298  1.0000
  C   C6312     1.0  0.94143  0.38575  0.96459  1.0000
  H   H5041     1.0  0.00152  0.33729  0.80634  1.0000
  H   H5042     1.0  0.61327  0.32931  0.98366  1.0000
  C   C6313     1.0  0.72142  0.37200  0.96277  1.0000
  H   H5043     1.0  0.68234  0.44305  0.95141  1.0000
  C   C6314     1.0  0.98780  0.44283  0.93738  1.0000
  C   C6315     1.0  0.68540  0.35505  0.98478  1.0000
  C   C6316     1.0  0.84480  0.48553  0.96101  1.0000
  H   H5044     1.0  0.94900  0.47622  0.87283  1.0000
  H   H5045     1.0  0.71561  0.38702  0.94417  1.0000
  H   H5046     1.0  0.72789  0.36383  0.95692  1.0000
  H   H5047     1.0  0.68522  0.38675  0.95579  1.0000
  C   C6317     1.0  0.99228  0.32958  0.78777  1.0000
  C   C6318     1.0  0.72810  0.42637  0.92103  1.0000
  C   C6319     1.0  0.99276  0.42458  0.73656  1.0000
  C   C6320     1.0  0.97499  0.36400  0.81908  1.0000
  H   H5048     1.0  0.91703  0.48173  0.91150  1.0000
  H   H5049     1.0  0.98025  0.47033  0.81678  1.0000
  C   C6321     1.0  0.93226  0.39734  0.97036  1.0000
  C   C6322     1.0  0.99491  0.42561  0.90069  1.0000
  H   H5050     1.0  0.85948  0.43902  0.82413  1.0000
  C   C6323     1.0  0.98124  0.38311  0.78552  1.0000
  C   C6324     1.0  0.96980  0.38728  0.74047  1.0000
  C   C6325     1.0  0.79920  0.38475  0.97503  1.0000
  C   C6326     1.0  0.79349  0.46802  0.84440  1.0000
  C   C6327     1.0  0.84933  0.46963  0.78276  1.0000
  C   C6328     1.0  0.64483  0.34043  0.96796  1.0000
  C   C6329     1.0  0.65394  0.34012  0.95447  1.0000
  C   C6330     1.0  0.66533  0.32826  0.95246  1.0000
  C   C6331     1.0  0.66738  0.31656  0.96381  1.0000
  C   C6332     1.0  0.99526  0.34466  0.81308  1.0000
  Fe  Fe433     1.0  0.61969  0.24663  0.96739  1.0000
  C   C6333     1.0  0.79697  0.42465  0.96905  1.0000
  P   P209      1.0  0.81843  0.47697  0.97075  1.0000
  C   C6334     1.0  0.99824  0.42761  0.79989  1.0000
  C   C6335     1.0  0.97847  0.33074  0.74320  1.0000
  H   H5051     1.0  0.77631  0.38732  0.97708  1.0000
  H   H5052     1.0  0.92853  0.34697  0.82515  1.0000
  H   H5053     1.0  0.52621  0.24654  0.86619  1.0000
  H   H5054     1.0  0.76170  0.40052  0.78736  1.0000
  C   C6336     1.0  0.95938  0.34922  0.79906  1.0000
  C   C6337     1.0  0.67189  0.26829  0.94086  1.0000
  H   H5055     1.0  0.51877  0.31087  0.90716  1.0000
  C   C6338     1.0  0.85343  0.43622  0.83499  1.0000
  C   C6339     1.0  0.93993  0.43625  0.90303  1.0000
  H   H5056     1.0  0.99391  0.27943  0.75588  1.0000
  C   C6340     1.0  0.73425  0.42228  0.97672  1.0000
  H   H5057     1.0  0.63624  0.34984  0.96933  1.0000
  H   H5058     1.0  0.65255  0.34934  0.94574  1.0000
  H   H5059     1.0  0.67276  0.32818  0.94219  1.0000
  H   H5060     1.0  0.67613  0.30735  0.96218  1.0000
  C   C6341     1.0  0.91905  0.44649  0.95589  1.0000
  C   C6342     1.0  0.98771  0.40728  0.95719  1.0000
  C   C6343     1.0  0.96437  0.48962  0.81166  1.0000
  H   H5061     1.0  0.75929  0.27401  0.97424  1.0000
  S   S871      1.0  0.66413  0.26107  0.93121  1.0000
  C   C6344     1.0  0.93423  0.34008  0.74464  1.0000
  C   C6345     1.0  0.88563  0.43867  0.83506  1.0000
  C   C6346     1.0  0.89392  0.42918  0.82633  1.0000
  C   C6347     1.0  0.90260  0.41630  0.83205  1.0000
  C   C6348     1.0  0.90318  0.41294  0.84644  1.0000
  C   C6349     1.0  0.89509  0.42259  0.85518  1.0000
  C   C6350     1.0  0.88607  0.43532  0.84946  1.0000
  P   P210      1.0  0.89562  0.41888  0.87373  1.0000
  C   C6351     1.0  0.90826  0.40236  0.87894  1.0000
  C   C6352     1.0  0.90233  0.43240  0.87708  1.0000
  C   C6353     1.0  0.90028  0.43358  0.89114  1.0000
  C   C6354     1.0  0.90472  0.44438  0.89405  1.0000
  C   C6355     1.0  0.91226  0.45339  0.88294  1.0000
  C   C6356     1.0  0.91534  0.45159  0.86899  1.0000
  C   C6357     1.0  0.91031  0.44122  0.86597  1.0000
  C   C6358     1.0  0.92296  0.40065  0.87183  1.0000
  C   C6359     1.0  0.93315  0.38840  0.87636  1.0000
  C   C6360     1.0  0.92877  0.37781  0.88807  1.0000
  C   C6361     1.0  0.91421  0.37953  0.89535  1.0000
  C   C6362     1.0  0.90398  0.39179  0.89089  1.0000
  C   C6363     1.0  0.87721  0.41821  0.88354  1.0000
  C   C6364     1.0  0.87080  0.40788  0.88224  1.0000
  C   C6365     1.0  0.85652  0.40724  0.88951  1.0000
  C   C6366     1.0  0.84861  0.41673  0.89835  1.0000
  C   C6367     1.0  0.85487  0.42711  0.89963  1.0000
  C   C6368     1.0  0.86892  0.42816  0.89191  1.0000
  H   H5062     1.0  0.87915  0.44878  0.83054  1.0000
  H   H5063     1.0  0.89384  0.43196  0.81508  1.0000
  H   H5064     1.0  0.90906  0.40901  0.82526  1.0000
  H   H5065     1.0  0.90995  0.40287  0.85056  1.0000
  H   H5066     1.0  0.87946  0.44270  0.85611  1.0000
  H   H5067     1.0  0.89523  0.42605  0.89986  1.0000
  H   H5068     1.0  0.90260  0.44558  0.90493  1.0000
  H   H5069     1.0  0.91591  0.46159  0.88522  1.0000
  H   H5070     1.0  0.92136  0.45847  0.86049  1.0000
  H   H5071     1.0  0.91266  0.44015  0.85501  1.0000
  H   H5072     1.0  0.92660  0.40894  0.86293  1.0000
  H   H5073     1.0  0.94455  0.38735  0.87115  1.0000
  H   H5074     1.0  0.93678  0.36859  0.89188  1.0000
  H   H5075     1.0  0.91101  0.37169  0.90489  1.0000
  H   H5076     1.0  0.89292  0.39317  0.89714  1.0000
  H   H5077     1.0  0.87683  0.40042  0.87550  1.0000
  H   H5078     1.0  0.85155  0.39939  0.88829  1.0000
  H   H5079     1.0  0.83761  0.41609  0.90415  1.0000
  H   H5080     1.0  0.84883  0.43451  0.90651  1.0000
  H   H5081     1.0  0.87301  0.43685  0.89253  1.0000
  C   C6369     1.0  0.90041  0.31878  0.89228  1.0000
  C   C6370     1.0  0.90011  0.31015  0.90601  1.0000
  C   C6371     1.0  0.89090  0.31529  0.91782  1.0000
  C   C6372     1.0  0.88207  0.32911  0.91592  1.0000
  C   C6373     1.0  0.88261  0.33799  0.90220  1.0000
  C   C6374     1.0  0.89160  0.33261  0.89034  1.0000
  P   P211      1.0  0.87067  0.35552  0.89992  1.0000
  C   C6375     1.0  0.85282  0.35223  0.90287  1.0000
  C   C6376     1.0  0.87169  0.36534  0.91207  1.0000
  C   C6377     1.0  0.88364  0.36144  0.91850  1.0000
  C   C6378     1.0  0.84971  0.34663  0.89297  1.0000
  C   C6379     1.0  0.83621  0.34327  0.89546  1.0000
  C   C6380     1.0  0.87651  0.36619  0.88238  1.0000
  C   C6381     1.0  0.89093  0.36787  0.87791  1.0000
  C   C6382     1.0  0.89584  0.37579  0.86426  1.0000
  C   C6383     1.0  0.88634  0.38224  0.85505  1.0000
  C   C6384     1.0  0.87188  0.38096  0.85957  1.0000
  C   C6385     1.0  0.86689  0.37308  0.87322  1.0000
  H   H5082     1.0  0.90738  0.31473  0.88309  1.0000
  H   H5083     1.0  0.90691  0.29942  0.90748  1.0000
  H   H5084     1.0  0.89051  0.30853  0.92844  1.0000
  H   H5085     1.0  0.87479  0.33289  0.92513  1.0000
  H   H5086     1.0  0.89174  0.33899  0.87959  1.0000
  H   H5087     1.0  0.89392  0.36682  0.93211  1.0000
  H   H5088     1.0  0.89228  0.35220  0.91668  1.0000
  H   H5089     1.0  0.85764  0.34501  0.88321  1.0000
  H   H5090     1.0  0.83368  0.33947  0.88753  1.0000
  H   H5091     1.0  0.89846  0.36291  0.88490  1.0000
  H   H5092     1.0  0.90706  0.37681  0.86073  1.0000
  H   H5093     1.0  0.89019  0.38823  0.84439  1.0000
  H   H5094     1.0  0.86456  0.38606  0.85241  1.0000
  H   H5095     1.0  0.85557  0.37241  0.87649  1.0000
  H   H5096     1.0  0.96368  0.41495  0.76805  1.0000
  C   C6386     1.0  0.99236  0.43688  0.75440  1.0000
  C   C6387     1.0  0.55623  0.27046  0.96247  1.0000
  C   C6388     1.0  0.84187  0.45553  0.80651  1.0000
  H   H5097     1.0  0.53347  0.30007  0.92546  1.0000
  C   C6389     1.0  0.70917  0.42237  0.94253  1.0000
  C   C6390     1.0  0.71764  0.41872  0.92964  1.0000
  C   C6391     1.0  0.68696  0.27779  0.95550  1.0000
  C   C6392     1.0  0.98338  0.32126  0.75497  1.0000
  H   H5098     1.0  0.99187  0.46310  0.88450  1.0000
  Fe  Fe434     1.0  0.61049  0.26682  0.94125  1.0000
  C   C6393     1.0  0.88470  0.36975  0.92717  1.0000
  H   H5099     1.0  0.95032  0.48005  0.79633  1.0000
  C   C6394     1.0  0.70581  0.39574  0.96309  1.0000
  C   C6395     1.0  0.95825  0.40758  0.96969  1.0000
  C   C6396     1.0  0.92304  0.45939  0.82243  1.0000
  H   H5100     1.0  0.79671  0.37455  0.80705  1.0000
  C   C6397     1.0  0.51735  0.24179  0.86684  1.0000
  H   H5101     1.0  0.63955  0.25334  0.98092  1.0000
  H   H5102     1.0  0.85183  0.38107  0.90926  1.0000
  H   H5103     1.0  0.82072  0.35249  0.92753  1.0000
  H   H5104     1.0  0.99001  0.37885  0.79110  1.0000
  H   H5105     1.0  0.53520  0.32930  0.95603  1.0000
  C   C6398     1.0  0.78909  0.38538  0.84333  1.0000
  H   H5106     1.0  0.99052  0.48839  0.87253  1.0000
  C   C6399     1.0  0.65738  0.43700  0.98250  1.0000
  C   C6400     1.0  0.86252  0.38636  0.92234  1.0000
  P   P212      1.0  0.63737  0.31973  0.92810  1.0000
  H   H5107     1.0  0.87511  0.38885  0.93550  1.0000
  S   S872      1.0  0.83022  0.47124  0.89278  1.0000
  H   H5108     1.0  0.98515  0.42178  0.90246  1.0000
  H   H5109     1.0  0.76737  0.39607  0.84016  1.0000
  C   C6401     1.0  0.52489  0.33179  0.96337  1.0000
  C   C6402     1.0  0.95928  0.48596  0.77371  1.0000
  H   H5110     1.0  0.77092  0.44642  0.90441  1.0000
  C   C6403     1.0  0.98243  0.35442  0.81012  1.0000
  C   C6404     1.0  0.92248  0.47223  0.82587  1.0000
  C   C6405     1.0  0.96254  0.46809  0.76034  1.0000
  C   C6406     1.0  0.75810  0.25448  0.96976  1.0000
  H   H5111     1.0  0.72384  0.44995  0.94145  1.0000
  C   C6407     1.0  0.64801  0.30191  0.95192  1.0000
  H   H5112     1.0  0.62438  0.33498  0.95127  1.0000
  H   H5113     1.0  0.85468  0.39630  0.92339  1.0000
  C   C6408     1.0  0.67685  0.43706  0.96126  1.0000
  Fe  Fe435     1.0  0.64248  0.25418  0.94067  1.0000
  C   C6409     1.0  0.72209  0.44122  0.93818  1.0000
  H   H5114     1.0  0.50849  0.29152  0.98470  1.0000
  H   H5115     1.0  0.69830  0.40096  0.98400  1.0000
  C   C6410     1.0  0.68348  0.41785  0.93026  1.0000
  H   H5116     1.0  0.66691  0.39874  0.91894  1.0000
  C   C6411     1.0  0.81543  0.38011  0.82033  1.0000
  H   H5117     1.0  0.66238  0.25711  0.96163  1.0000
  C   C6412     1.0  0.77948  0.38642  0.79642  1.0000
  C   C6413     1.0  0.91561  0.43055  0.75647  1.0000
  C   C6414     1.0  0.76713  0.45339  0.94165  1.0000
  C   C6415     1.0  0.61867  0.34024  0.94273  1.0000
  C   C6416     1.0  0.96642  0.40355  0.77252  1.0000
  H   H5118     1.0  0.86285  0.47237  0.89192  1.0000
  H   H5119     1.0  0.99812  0.38522  0.81313  1.0000
  S   S873      1.0  0.92094  0.41180  0.75911  1.0000
  C   C6417     1.0  0.76700  0.40955  0.80190  1.0000
  H   H5120     1.0  0.77666  0.46838  0.90621  1.0000
  C   C6418     1.0  0.71191  0.43330  0.94703  1.0000
  C   C6419     1.0  0.67631  0.41457  0.92176  1.0000
  H   H5121     1.0  0.86553  0.47388  0.82007  1.0000
  H   H5122     1.0  0.93025  0.48780  0.85888  1.0000
  C   C6420     1.0  0.60695  0.35187  0.94465  1.0000
  H   H5123     1.0  0.60351  0.35528  0.95469  1.0000
  H   H5124     1.0  0.53316  0.28126  0.84987  1.0000
  C   C6421     1.0  0.75968  0.34287  0.96434  1.0000
  C   C6422     1.0  0.91005  0.46062  0.75115  1.0000
  H   H5125     1.0  0.68619  0.42824  0.92735  1.0000
  H   H5126     1.0  0.95838  0.39259  0.74233  1.0000
  C   C6423     1.0  0.52918  0.26950  0.91984  1.0000
  C   C6424     1.0  0.72095  0.45134  0.97463  1.0000
  C   C6425     1.0  0.98016  0.36376  0.83082  1.0000
  C   C6426     1.0  0.80513  0.41888  0.81123  1.0000
  H   H5127     1.0  0.76907  0.25276  0.96331  1.0000
  H   H5128     1.0  0.97150  0.44483  0.97188  1.0000
  H   H5129     1.0  0.98434  0.40473  0.78005  1.0000
  C   C6427     1.0  0.65518  0.33953  0.91979  1.0000
  H   H5130     1.0  0.65865  0.30374  0.94632  1.0000
  H   H5131     1.0  0.95148  0.35446  0.81997  1.0000
  H   H5132     1.0  0.78078  0.37821  0.79074  1.0000
  C   C6428     1.0  0.93634  0.34583  0.81520  1.0000
  C   C6429     1.0  0.89107  0.34674  0.74436  1.0000
  C   C6430     1.0  0.92775  0.43590  0.98191  1.0000
  C   C6431     1.0  0.99522  0.38787  0.73664  1.0000
  H   H5133     1.0  0.73040  0.25267  0.95290  1.0000
  C   C6432     1.0  0.84637  0.47493  0.83742  1.0000
  C   C6433     1.0  0.76873  0.39899  0.79452  1.0000
  H   H5134     1.0  0.75862  0.41926  0.80048  1.0000
  H   H5135     1.0  0.92264  0.33775  0.80738  1.0000
  C   C6434     1.0  0.65451  0.32518  0.92186  1.0000
  H   H5136     1.0  0.78058  0.36359  0.96662  1.0000
  C   C6435     1.0  0.94945  0.35012  0.81216  1.0000
  H   H5137     1.0  0.94394  0.45341  0.74978  1.0000
  H   H5138     1.0  0.89994  0.39400  0.96697  1.0000
  P   P213      1.0  0.97724  0.44867  0.91262  1.0000
  C   C6436     1.0  0.68139  0.33323  0.91167  1.0000
  C   C6437     1.0  0.98364  0.48560  0.88303  1.0000
  C   C6438     1.0  0.98967  0.43978  0.79292  1.0000
  C   C6439     1.0  0.52371  0.28135  0.85867  1.0000
  H   H5139     1.0  0.95636  0.43066  0.93022  1.0000
  H   H5140     1.0  0.69940  0.24680  0.93362  1.0000
  H   H5141     1.0  0.86477  0.41406  0.83741  1.0000
  H   H5142     1.0  0.68363  0.28029  0.92185  1.0000
  C   C6440     1.0  0.93301  0.34065  0.80520  1.0000
  H   H5143     1.0  0.94851  0.39924  0.76728  1.0000
  H   H5144     1.0  0.98585  0.32460  0.79768  1.0000
  H   H5145     1.0  0.53075  0.26058  0.96783  1.0000
  H   H5146     1.0  0.78696  0.38204  0.94154  1.0000
  H   H5147     1.0  0.76547  0.37713  0.93720  1.0000
  C   C6441     1.0  0.80277  0.46232  0.94505  1.0000
  C   C6442     1.0  0.80580  0.43673  0.82298  1.0000
  C   C6443     1.0  0.94268  0.43139  0.91672  1.0000
  Fe  Fe436     1.0  0.90416  0.47735  0.79842  1.0000
  H   H5148     1.0  0.63133  0.28497  0.98443  1.0000
  H   H5149     1.0  0.95431  0.37343  0.77770  1.0000
  H   H5150     1.0  0.61749  0.33832  0.90960  1.0000
  C   C6444     1.0  0.83890  0.42843  0.86338  1.0000
  C   C6445     1.0  0.92005  0.48362  0.89994  1.0000
  C   C6446     1.0  0.96109  0.38004  0.77821  1.0000
  C   C6447     1.0  0.61483  0.34210  0.91934  1.0000
  C   C6448     1.0  0.95785  0.39471  0.77212  1.0000
  C   C6449     1.0  0.98886  0.48442  0.79717  1.0000
  H   H5151     1.0  0.88798  0.46469  0.85090  1.0000
  C   C6450     1.0  0.59920  0.35864  0.93394  1.0000
  C   C6451     1.0  0.76970  0.44843  0.91484  1.0000
  C   C6452     1.0  0.73491  0.44725  0.96641  1.0000
  C   C6453     1.0  0.66859  0.34352  0.91471  1.0000
  C   C6454     1.0  0.94279  0.33975  0.79213  1.0000
  P   P214      1.0  0.97598  0.35554  0.79446  1.0000
  C   C6455     1.0  0.97266  0.37416  0.78518  1.0000
  H   H5152     1.0  0.78476  0.40387  0.94960  1.0000
  C   C6456     1.0  0.77295  0.46081  0.91584  1.0000
  C   C6457     1.0  0.76431  0.38629  0.94154  1.0000
  H   H5153     1.0  0.69065  0.31098  0.91118  1.0000
  H   H5154     1.0  0.91537  0.45054  0.94595  1.0000
  H   H5155     1.0  0.96732  0.45359  0.88645  1.0000
  C   C6458     1.0  0.75263  0.26643  0.97591  1.0000
  C   C6459     1.0  0.80474  0.46573  0.95690  1.0000
  C   C6460     1.0  0.95590  0.34406  0.78903  1.0000
  H   H5156     1.0  0.79022  0.42987  0.94930  1.0000
  H   H5157     1.0  0.76285  0.42896  0.92610  1.0000
  S   S874      1.0  0.60329  0.24721  0.95545  1.0000
  C   C6461     1.0  0.77507  0.40146  0.94866  1.0000
  Fe  Fe437     1.0  0.71913  0.31408  0.97877  1.0000
  H   H5158     1.0  0.65765  0.37717  0.96996  1.0000
  C   C6462     1.0  0.84620  0.48804  0.85455  1.0000
  H   H5159     1.0  0.69634  0.28916  0.93477  1.0000
  C   C6463     1.0  0.66735  0.31502  0.91842  1.0000
  C   C6464     1.0  0.77155  0.46336  0.92924  1.0000
  C   C6465     1.0  0.88663  0.37571  0.74444  1.0000
  H   H5160     1.0  0.93994  0.33614  0.78425  1.0000
  H   H5161     1.0  0.91806  0.45715  0.98566  1.0000
  H   H5162     1.0  0.54002  0.27364  0.93376  1.0000
  H   H5163     1.0  0.85126  0.40705  0.86240  1.0000
  C   C6466     1.0  0.76518  0.43850  0.92721  1.0000
  C   C6467     1.0  0.78694  0.42659  0.96081  1.0000
  H   H5164     1.0  0.58985  0.36737  0.93568  1.0000
  C   C6468     1.0  0.79713  0.37663  0.85341  1.0000
  C   C6469     1.0  0.78688  0.39496  0.81316  1.0000
  C   C6470     1.0  0.50440  0.25042  0.86327  1.0000
  H   H5165     1.0  0.94260  0.47365  0.89922  1.0000
  S   S875      1.0  0.88691  0.48023  0.78681  1.0000
  H   H5166     1.0  0.81097  0.46237  0.92262  1.0000
  H   H5167     1.0  0.59699  0.35893  0.91308  1.0000
  C   C6471     1.0  0.93029  0.42666  0.97275  1.0000
  C   C6472     1.0  0.88535  0.47040  0.85937  1.0000
  H   H5168     1.0  0.87341  0.48785  0.74195  1.0000
  H   H5169     1.0  0.86841  0.45950  0.87255  1.0000
  C   C6473     1.0  0.91155  0.39173  0.96621  1.0000
  C   C6474     1.0  0.99786  0.35077  0.77021  1.0000
  H   H5170     1.0  0.74157  0.39360  0.94173  1.0000
  H   H5171     1.0  0.56020  0.25959  0.96790  1.0000
  C   C6475     1.0  0.95427  0.47655  0.78634  1.0000
  C   C6476     1.0  0.76398  0.44082  0.94074  1.0000
  C   C6477     1.0  0.77289  0.42427  0.96738  1.0000
  C   C6478     1.0  0.56307  0.27534  0.94832  1.0000
  C   C6479     1.0  0.80141  0.40968  0.82453  1.0000
  H   H5172     1.0  0.83878  0.44577  0.81320  1.0000
  H   H5173     1.0  0.66693  0.30398  0.91964  1.0000
  Fe  Fe438     1.0  0.90341  0.48725  0.76736  1.0000
  H   H5174     1.0  0.76644  0.45538  0.95194  1.0000
  H   H5175     1.0  0.88203  0.44532  0.97606  1.0000
  P   P215      1.0  0.75978  0.42724  0.95671  1.0000
  C   C6480     1.0  0.92735  0.48725  0.87024  1.0000
  H   H5176     1.0  0.73882  0.41501  0.95070  1.0000
  H   H5177     1.0  0.81052  0.43926  0.80018  1.0000
  C   C6481     1.0  0.77387  0.38912  0.84758  1.0000
  S   S876      1.0  0.92121  0.48233  0.77885  1.0000
  C   C6482     1.0  0.82934  0.35568  0.82019  1.0000
  P   P216      1.0  0.83754  0.46470  0.83166  1.0000
  H   H5178     1.0  0.79992  0.39460  0.96703  1.0000
  H   H5179     1.0  0.84590  0.44824  0.78715  1.0000
  C   C6483     1.0  0.83977  0.47974  0.85012  1.0000
  C   C6484     1.0  0.80742  0.43230  0.81047  1.0000
  H   H5180     1.0  0.98543  0.46266  0.78585  1.0000
  H   H5181     1.0  0.97797  0.32285  0.76563  1.0000
  C   C6485     1.0  0.82780  0.38520  0.81193  1.0000
  H   H5182     1.0  0.51257  0.24701  0.97041  1.0000
  C   C6486     1.0  0.55855  0.28951  0.94128  1.0000
  H   H5183     1.0  0.53156  0.30140  0.96779  1.0000
  C   C6487     1.0  0.87450  0.46737  0.87156  1.0000
  H   H5184     1.0  0.95637  0.44828  0.77272  1.0000
  C   C6488     1.0  0.92079  0.38073  0.95978  1.0000
  H   H5185     1.0  0.93593  0.42485  0.92494  1.0000
  C   C6489     1.0  0.70430  0.24430  0.94272  1.0000
  H   H5186     1.0  0.75512  0.38712  0.86499  1.0000
  H   H5187     1.0  0.98002  0.44577  0.73800  1.0000
  C   C6490     1.0  0.91592  0.43877  0.74254  1.0000
  H   H5188     1.0  0.74414  0.33355  0.98175  1.0000
  C   C6491     1.0  0.68880  0.28236  0.94067  1.0000
  C   C6492     1.0  0.72178  0.24754  0.95375  1.0000
  C   C6493     1.0  0.98958  0.34458  0.78321  1.0000
  S   S877      1.0  0.71964  0.33495  0.96284  1.0000
  C   C6494     1.0  0.97624  0.46736  0.90381  1.0000
  S   S878      1.0  0.51338  0.32316  0.94626  1.0000
  Fe  Fe439     1.0  0.69760  0.33396  0.96136  1.0000
  H   H5189     1.0  0.80687  0.36105  0.83068  1.0000
  C   C6495     1.0  0.79981  0.41421  0.83705  1.0000
  C   C6496     1.0  0.81628  0.36526  0.82430  1.0000
  H   H5190     1.0  0.95614  0.48646  0.82097  1.0000
  H   H5191     1.0  0.53589  0.26771  0.87398  1.0000
  H   H5192     1.0  0.54391  0.30985  0.94297  1.0000
  C   C6497     1.0  0.92617  0.43213  0.95957  1.0000
  H   H5193     1.0  0.90131  0.48294  0.84858  1.0000
  H   H5194     1.0  0.83326  0.42549  0.87437  1.0000
  C   C6498     1.0  0.82960  0.49004  0.96473  1.0000
  H   H5195     1.0  0.93101  0.43364  0.90079  1.0000
  H   H5196     1.0  0.72416  0.35862  0.98327  1.0000
  H   H5197     1.0  0.78611  0.46080  0.84898  1.0000
  H   H5198     1.0  0.87616  0.49073  0.88970  1.0000
  C   C6499     1.0  0.90945  0.49053  0.89199  1.0000
  C   C6500     1.0  0.72023  0.42641  0.98478  1.0000
  C   C6501     1.0  0.51219  0.33026  0.96083  1.0000
  C   C6502     1.0  0.88939  0.48858  0.86871  1.0000
  C   C6503     1.0  0.52520  0.27361  0.87240  1.0000
  C   C6504     1.0  0.94867  0.44928  0.74015  1.0000
  H   H5199     1.0  0.96520  0.46490  0.75029  1.0000
  H   H5200     1.0  0.80074  0.43105  0.84606  1.0000
  H   H5201     1.0  0.85178  0.35347  0.80887  1.0000
  C   C6505     1.0  0.88769  0.35105  0.75727  1.0000
  H   H5202     1.0  0.98069  0.43872  0.78934  1.0000
  H   H5203     1.0  0.99596  0.43906  0.95626  1.0000
  H   H5204     1.0  0.79735  0.46334  0.96711  1.0000
  H   H5205     1.0  0.92816  0.42524  0.95227  1.0000
  C   C6506     1.0  0.85991  0.47789  0.82962  1.0000
  C   C6507     1.0  0.73498  0.24730  0.97980  1.0000
  C   C6508     1.0  0.84567  0.45699  0.79169  1.0000
  H   H5206     1.0  0.94657  0.42773  0.75082  1.0000
  H   H5207     1.0  0.56418  0.29343  0.93047  1.0000
  C   C6509     1.0  0.81231  0.46514  0.93181  1.0000
  H   H5208     1.0  0.83169  0.47273  0.92035  1.0000
  H   H5209     1.0  0.94027  0.49011  0.74811  1.0000
  C   C6510     1.0  0.81262  0.48655  0.83357  1.0000
  C   C6511     1.0  0.76444  0.35503  0.98436  1.0000
  H   H5210     1.0  0.83513  0.47913  0.94094  1.0000
  C   C6512     1.0  0.84235  0.46648  0.81253  1.0000
  C   C6513     1.0  0.51304  0.27374  0.88390  1.0000
  C   C6514     1.0  0.78592  0.38057  0.98068  1.0000
  C   C6515     1.0  0.54341  0.24791  0.89710  1.0000
  H   H5211     1.0  0.91403  0.48155  0.82338  1.0000
  C   C6516     1.0  0.91725  0.40000  0.97150  1.0000
  H   H5212     1.0  0.77409  0.47300  0.92994  1.0000
  C   C6517     1.0  0.87129  0.47470  0.88246  1.0000
  H   H5213     1.0  0.95295  0.38295  0.96429  1.0000
  C   C6518     1.0  0.71109  0.37960  0.98510  1.0000
  P   P217      1.0  0.51503  0.26431  0.90178  1.0000
  H   H5214     1.0  0.98836  0.44616  0.75913  1.0000
  C   C6519     1.0  0.96368  0.48171  0.76065  1.0000
  H   H5215     1.0  0.84993  0.47432  0.96136  1.0000
  H   H5216     1.0  0.90994  0.40853  0.97642  1.0000
  H   H5217     1.0  0.94705  0.44733  0.88139  1.0000
  C   C6520     1.0  0.97543  0.44695  0.93153  1.0000
  C   C6521     1.0  0.86626  0.48630  0.83406  1.0000
  H   H5218     1.0  0.69615  0.25547  0.98509  1.0000
  H   H5219     1.0  0.88520  0.38687  0.74452  1.0000
  C   C6522     1.0  0.51122  0.33894  0.98549  1.0000
  S   S879      1.0  0.90720  0.47940  0.74746  1.0000
  C   C6523     1.0  0.93860  0.35299  0.73785  1.0000
  C   C6524     1.0  0.97808  0.48048  0.80921  1.0000
  C   C6525     1.0  0.94894  0.44404  0.89213  1.0000
  C   C6526     1.0  0.52413  0.25733  0.97831  1.0000
  H   H5220     1.0  0.85245  0.47070  0.77129  1.0000
  C   C6527     1.0  0.82400  0.47107  0.93050  1.0000
  H   H5221     1.0  0.88340  0.36869  0.76732  1.0000
  H   H5222     1.0  0.99897  0.44501  0.85114  1.0000
  H   H5223     1.0  0.84578  0.49043  0.91598  1.0000
  C   C6528     1.0  0.68075  0.31899  0.91350  1.0000
  C   C6529     1.0  0.85665  0.42204  0.84258  1.0000
  C   C6530     1.0  0.51383  0.24953  0.97974  1.0000
  C   C6531     1.0  0.54469  0.27972  0.96965  1.0000
  H   H5224     1.0  0.57231  0.26836  0.94295  1.0000
  C   C6532     1.0  0.82597  0.47459  0.94226  1.0000
  H   H5225     1.0  0.95660  0.40765  0.94855  1.0000
  C   C6533     1.0  0.65823  0.31675  0.97728  1.0000
  C   C6534     1.0  0.64714  0.32885  0.97953  1.0000
  C   C6535     1.0  0.96279  0.44341  0.90898  1.0000
  H   H5226     1.0  0.91023  0.46652  0.96262  1.0000
  H   H5227     1.0  0.74027  0.45555  0.95936  1.0000
  C   C6536     1.0  0.74933  0.24493  0.97171  1.0000
  C   C6537     1.0  0.95420  0.43480  0.91966  1.0000
  C   C6538     1.0  0.95756  0.45867  0.77298  1.0000
  H   H5228     1.0  0.00017  0.46549  0.85970  1.0000
  C   C6539     1.0  0.96164  0.45043  0.94046  1.0000
  H   H5229     1.0  0.80772  0.42665  0.96392  1.0000
  C   C6540     1.0  0.66491  0.37280  0.97724  1.0000
  C   C6541     1.0  0.73840  0.26882  0.98400  1.0000
  S   S880      1.0  0.67899  0.35319  0.96068  1.0000
  C   C6542     1.0  0.89281  0.48092  0.85797  1.0000
  C   C6543     1.0  0.51730  0.29056  0.90474  1.0000
  C   C6544     1.0  0.52198  0.29930  0.91044  1.0000
  C   C6545     1.0  0.97839  0.40732  0.94892  1.0000
  C   C6546     1.0  0.96039  0.44758  0.89506  1.0000
  H   H5230     1.0  0.51119  0.36272  0.94179  1.0000
  H   H5231     1.0  0.79406  0.45723  0.94614  1.0000
  H   H5232     1.0  0.82199  0.37935  0.97503  1.0000
  C   C6547     1.0  0.77000  0.35126  0.96019  1.0000
  C   C6548     1.0  0.84916  0.41810  0.85667  1.0000
  C   C6549     1.0  0.67612  0.36073  0.97532  1.0000
  Fe  Fe440     1.0  0.99653  0.41868  0.85064  1.0000
  C   C6550     1.0  0.96648  0.47823  0.91033  1.0000
  H   H5233     1.0  0.77623  0.35295  0.94927  1.0000
  H   H5234     1.0  0.94960  0.45222  0.96175  1.0000
  H   H5235     1.0  0.53435  0.33672  0.97781  1.0000
  C   C6551     1.0  0.54717  0.29878  0.94837  1.0000
  C   C6552     1.0  0.83576  0.44262  0.85587  1.0000
  H   H5236     1.0  0.82962  0.47714  0.85663  1.0000
  H   H5237     1.0  0.99551  0.47058  0.74843  1.0000
  H   H5238     1.0  0.98256  0.40714  0.93770  1.0000
  H   H5239     1.0  0.95191  0.45397  0.93624  1.0000
  C   C6553     1.0  0.80849  0.46245  0.84142  1.0000
  C   C6554     1.0  0.78805  0.48284  0.84214  1.0000
  C   C6555     1.0  0.91617  0.45552  0.96526  1.0000
  H   H5240     1.0  0.82555  0.44582  0.97170  1.0000
  H   H5241     1.0  0.94285  0.36903  0.95417  1.0000
  H   H5242     1.0  0.75780  0.33820  0.95663  1.0000
  H   H5243     1.0  0.95965  0.47567  0.92082  1.0000
  H   H5244     1.0  0.96559  0.36739  0.73999  1.0000
  C   C6556     1.0  0.98637  0.44214  0.95185  1.0000
  C   C6557     1.0  0.99228  0.45330  0.79117  1.0000
  C   C6558     1.0  0.75193  0.34032  0.97849  1.0000
  H   H5245     1.0  0.99858  0.44025  0.93084  1.0000
  C   C6559     1.0  0.96026  0.44954  0.95495  1.0000
  H   H5246     1.0  0.84478  0.48836  0.80782  1.0000
  C   C6560     1.0  0.98042  0.39470  0.73917  1.0000
  C   C6561     1.0  0.80059  0.48438  0.98049  1.0000
  C   C6562     1.0  0.51011  0.28939  0.85633  1.0000
  C   C6563     1.0  0.77239  0.35733  0.97012  1.0000
  C   C6564     1.0  0.98851  0.36614  0.73671  1.0000
  P   P218      1.0  0.93924  0.40804  0.97754  1.0000
  H   H5247     1.0  0.71580  0.46262  0.97394  1.0000
  C   C6565     1.0  0.00039  0.34443  0.82485  1.0000
  C   C6566     1.0  0.71580  0.25033  0.94186  1.0000
  H   H5248     1.0  0.66201  0.45609  0.96721  1.0000
  C   C6567     1.0  0.67273  0.41461  0.97719  1.0000
  H   H5249     1.0  0.67513  0.40304  0.97986  1.0000
  H   H5250     1.0  0.99560  0.36224  0.76623  1.0000
  C   C6568     1.0  0.82997  0.44762  0.97963  1.0000
  C   C6569     1.0  0.66517  0.44451  0.97007  1.0000
  C   C6570     1.0  0.99444  0.43805  0.90494  1.0000
  H   H5251     1.0  0.77643  0.48712  0.84483  1.0000
  H   H5252     1.0  0.69388  0.34559  0.98350  1.0000
  H   H5253     1.0  0.73926  0.41095  0.97784  1.0000
  C   C6571     1.0  0.92061  0.45025  0.97822  1.0000
  C   C6572     1.0  0.98226  0.40784  0.97157  1.0000
  C   C6573     1.0  0.99484  0.47259  0.73741  1.0000
  H   H5254     1.0  0.84045  0.42533  0.98535  1.0000
  C   C6574     1.0  0.71359  0.44093  0.98376  1.0000
  H   H5255     1.0  0.50314  0.26192  0.85992  1.0000
  H   H5256     1.0  0.99593  0.41721  0.80163  1.0000
  H   H5257     1.0  0.99903  0.30270  0.76223  1.0000
  H   H5258     1.0  0.85147  0.49085  0.78181  1.0000
  C   C6575     1.0  0.66797  0.56492  0.06978  1.0000
  H   H5259     1.0  0.59981  0.65014  0.02594  1.0000
  H   H5260     1.0  0.55908  0.71304  0.07983  1.0000
  H   H5261     1.0  0.69175  0.60371  0.00232  1.0000
  H   H5262     1.0  0.56074  0.68126  0.04597  1.0000
  S   S881      1.0  0.63060  0.69394  0.00608  1.0000
  C   C6576     1.0  0.64142  0.55065  0.07178  1.0000
  S   S882      1.0  0.71026  0.56608  0.99187  1.0000
  S   S883      1.0  0.60024  0.72047  0.14945  1.0000
  H   H5263     1.0  0.84293  0.53343  0.09634  1.0000
  C   C6577     1.0  0.59541  0.64795  0.01827  1.0000
  Fe  Fe441     1.0  0.75252  0.55642  0.07462  1.0000
  S   S884      1.0  0.73377  0.54601  0.08659  1.0000
  S   S885      1.0  0.77446  0.55154  0.08018  1.0000
  Fe  Fe442     1.0  0.73763  0.57305  0.04981  1.0000
  S   S886      1.0  0.71766  0.56416  0.05992  1.0000
  S   S887      1.0  0.73936  0.58782  0.02797  1.0000
  Fe  Fe443     1.0  0.71980  0.56806  0.08018  1.0000
  S   S888      1.0  0.70116  0.57819  0.09619  1.0000
  Fe  Fe444     1.0  0.73338  0.54321  0.06518  1.0000
  S   S889      1.0  0.73366  0.52309  0.05894  1.0000
  S   S890      1.0  0.73871  0.57864  0.06964  1.0000
  S   S891      1.0  0.75319  0.55192  0.05366  1.0000
  Fe  Fe445     1.0  0.61720  0.65791  0.10669  1.0000
  S   S892      1.0  0.62134  0.63379  0.11110  1.0000
  S   S893      1.0  0.62604  0.66715  0.11978  1.0000
  Fe  Fe446     1.0  0.60275  0.66203  0.08243  1.0000
  S   S894      1.0  0.60587  0.63845  0.08452  1.0000
  S   S895      1.0  0.58991  0.67739  0.06669  1.0000
  Fe  Fe447     1.0  0.59871  0.63744  0.10797  1.0000
  S   S896      1.0  0.58270  0.62450  0.12288  1.0000
  Fe  Fe448     1.0  0.62825  0.63656  0.08736  1.0000
  S   S897      1.0  0.64685  0.62240  0.07489  1.0000
  S   S898      1.0  0.59396  0.66123  0.10585  1.0000
  S   S899      1.0  0.62584  0.66043  0.08297  1.0000
  H   H5264     1.0  0.76888  0.56418  0.98927  1.0000
  S   S900      1.0  0.67240  0.52242  0.02056  1.0000
  H   H5265     1.0  0.52556  0.69816  0.20948  1.0000
  H   H5266     1.0  0.60242  0.73491  0.23043  1.0000
  H   H5267     1.0  0.59787  0.53545  0.01046  1.0000
  H   H5268     1.0  0.56605  0.57006  0.09367  1.0000
  Fe  Fe449     1.0  0.64950  0.52237  0.02077  1.0000
  S   S901      1.0  0.63410  0.54254  0.01212  1.0000
  C   C6578     1.0  0.51299  0.71292  0.12358  1.0000
  C   C6579     1.0  0.77262  0.49342  0.08229  1.0000
  Fe  Fe450     1.0  0.57017  0.61267  0.04749  1.0000
  S   S902      1.0  0.54718  0.62146  0.05769  1.0000
  Fe  Fe451     1.0  0.56572  0.58229  0.05446  1.0000
  S   S903      1.0  0.54230  0.58872  0.06513  1.0000
  S   S904      1.0  0.57469  0.55876  0.05550  1.0000
  Fe  Fe452     1.0  0.54176  0.60763  0.04659  1.0000
  S   S905      1.0  0.52336  0.61638  0.03520  1.0000
  Fe  Fe453     1.0  0.55029  0.60172  0.07502  1.0000
  S   S906      1.0  0.54325  0.60109  0.09849  1.0000
  S   S907      1.0  0.56466  0.60019  0.03503  1.0000
  S   S908      1.0  0.57375  0.59392  0.06570  1.0000
  Fe  Fe454     1.0  0.80672  0.51428  0.14590  1.0000
  S   S909      1.0  0.82826  0.51959  0.14344  1.0000
  S   S910      1.0  0.78497  0.52916  0.14336  1.0000
  C   C6580     1.0  0.60496  0.68824  0.02392  1.0000
  C   C6581     1.0  0.76171  0.53219  0.01512  1.0000
  C   C6582     1.0  0.91370  0.56763  0.23502  1.0000
  H   H5269     1.0  0.51044  0.70627  0.15932  1.0000
  H   H5270     1.0  0.60136  0.60429  0.99751  1.0000
  H   H5271     1.0  0.61592  0.51650  0.13452  1.0000
  C   C6583     1.0  0.65528  0.56233  0.02495  1.0000
  Fe  Fe455     1.0  0.66814  0.50909  0.04289  1.0000
  H   H5272     1.0  0.57708  0.52655  0.02730  1.0000
  H   H5273     1.0  0.58393  0.73705  0.08248  1.0000
  Fe  Fe456     1.0  0.89889  0.51396  0.21407  1.0000
  S   S911      1.0  0.88494  0.52549  0.19753  1.0000
  S   S912      1.0  0.91827  0.52197  0.21404  1.0000
  H   H5274     1.0  0.70980  0.49993  0.11998  1.0000
  C   C6584     1.0  0.93766  0.49910  0.18358  1.0000
  H   H5275     1.0  0.51330  0.55284  0.01118  1.0000
  H   H5276     1.0  0.90690  0.56191  0.23295  1.0000
  C   C6585     1.0  0.57424  0.56038  0.09620  1.0000
  H   H5277     1.0  0.78114  0.51846  0.19240  1.0000
  H   H5278     1.0  0.92998  0.50633  0.18987  1.0000
  H   H5279     1.0  0.92081  0.49574  0.12946  1.0000
  H   H5280     1.0  0.70850  0.65252  0.04527  1.0000
  C   C6586     1.0  0.85287  0.50686  0.18581  1.0000
  H   H5281     1.0  0.50442  0.60846  0.99865  1.0000
  C   C6587     1.0  0.87093  0.50404  0.19960  1.0000
  C   C6588     1.0  0.87279  0.51799  0.19309  1.0000
  C   C6589     1.0  0.86462  0.52632  0.18290  1.0000
  C   C6590     1.0  0.85473  0.52080  0.17928  1.0000
  C   C6591     1.0  0.54315  0.67332  0.06179  1.0000
  C   C6592     1.0  0.60431  0.49751  0.03473  1.0000
  H   H5282     1.0  0.86576  0.53720  0.17795  1.0000
  H   H5283     1.0  0.84815  0.52752  0.17185  1.0000
  C   C6593     1.0  0.58241  0.68541  0.15736  1.0000
  C   C6594     1.0  0.50905  0.72176  0.04101  1.0000
  C   C6595     1.0  0.65922  0.56152  0.98949  1.0000
  H   H5284     1.0  0.99978  0.53130  0.16152  1.0000
  C   C6596     1.0  0.72272  0.58569  0.99606  1.0000
  C   C6597     1.0  0.66911  0.66578  0.03962  1.0000
  C   C6598     1.0  0.94168  0.60741  0.23004  1.0000
  C   C6599     1.0  0.67532  0.57438  0.01590  1.0000
  H   H5285     1.0  0.65830  0.54337  0.04170  1.0000
  C   C6600     1.0  0.53653  0.58999  0.00745  1.0000
  C   C6601     1.0  0.53599  0.59657  0.01833  1.0000
  C   C6602     1.0  0.52418  0.60766  0.02190  1.0000
  C   C6603     1.0  0.67657  0.55324  0.03516  1.0000
  H   H5286     1.0  0.54566  0.58150  0.00463  1.0000
  H   H5287     1.0  0.54470  0.59304  0.02392  1.0000
  C   C6604     1.0  0.62966  0.65497  0.02236  1.0000
  C   C6605     1.0  0.61731  0.54699  0.02386  1.0000
  C   C6606     1.0  0.60894  0.56102  0.02160  1.0000
  C   C6607     1.0  0.59573  0.56481  0.03120  1.0000
  C   C6608     1.0  0.59075  0.55443  0.04289  1.0000
  C   C6609     1.0  0.59882  0.54032  0.04480  1.0000
  C   C6610     1.0  0.61213  0.53665  0.03541  1.0000
  H   H5288     1.0  0.61287  0.56904  0.01264  1.0000
  H   H5289     1.0  0.58955  0.57574  0.02965  1.0000
  H   H5290     1.0  0.59488  0.53226  0.05371  1.0000
  H   H5291     1.0  0.61831  0.52576  0.03703  1.0000
  H   H5292     1.0  0.57452  0.62706  0.01615  1.0000
  C   C6611     1.0  0.55458  0.60754  0.10486  1.0000
  C   C6612     1.0  0.56588  0.61371  0.09553  1.0000
  C   C6613     1.0  0.57458  0.61904  0.10088  1.0000
  C   C6614     1.0  0.57203  0.61817  0.11557  1.0000
  C   C6615     1.0  0.56082  0.61185  0.12485  1.0000
  C   C6616     1.0  0.55213  0.60657  0.11953  1.0000
  H   H5293     1.0  0.56786  0.61447  0.08420  1.0000
  H   H5294     1.0  0.58326  0.62375  0.09363  1.0000
  H   H5295     1.0  0.55884  0.61105  0.13621  1.0000
  H   H5296     1.0  0.54348  0.60173  0.12680  1.0000
  C   C6617     1.0  0.60105  0.68238  0.04983  1.0000
  C   C6618     1.0  0.59592  0.68480  0.03745  1.0000
  C   C6619     1.0  0.61508  0.68385  0.04865  1.0000
  H   H5297     1.0  0.58510  0.68371  0.03829  1.0000
  H   H5298     1.0  0.61902  0.68225  0.05813  1.0000
  C   C6620     1.0  0.61305  0.50488  0.07092  1.0000
  C   C6621     1.0  0.77701  0.54531  0.09787  1.0000
  C   C6622     1.0  0.79123  0.54025  0.10007  1.0000
  C   C6623     1.0  0.79374  0.53493  0.11395  1.0000
  C   C6624     1.0  0.78206  0.53519  0.12579  1.0000
  C   C6625     1.0  0.76782  0.54058  0.12361  1.0000
  C   C6626     1.0  0.76528  0.54539  0.10969  1.0000
  H   H5299     1.0  0.80038  0.54028  0.09101  1.0000
  H   H5300     1.0  0.80475  0.53088  0.11549  1.0000
  H   H5301     1.0  0.75875  0.54090  0.13273  1.0000
  H   H5302     1.0  0.75429  0.54936  0.10812  1.0000
  C   C6627     1.0  0.68891  0.51680  0.06080  1.0000
  C   C6628     1.0  0.55661  0.73725  0.04851  1.0000
  C   C6629     1.0  0.76341  0.50230  0.13130  1.0000
  C   C6630     1.0  0.71636  0.52107  0.05945  1.0000
  C   C6631     1.0  0.71455  0.51453  0.04957  1.0000
  C   C6632     1.0  0.70079  0.51257  0.05012  1.0000
  H   H5303     1.0  0.61407  0.56558  0.09171  1.0000
  C   C6633     1.0  0.57238  0.55365  0.99966  1.0000
  H   H5304     1.0  0.72377  0.51112  0.04139  1.0000
  H   H5305     1.0  0.69941  0.50765  0.04238  1.0000
  C   C6634     1.0  0.68625  0.59086  0.09023  1.0000
  C   C6635     1.0  0.67561  0.59858  0.09967  1.0000
  C   C6636     1.0  0.66338  0.60833  0.09522  1.0000
  C   C6637     1.0  0.66175  0.61031  0.08132  1.0000
  C   C6638     1.0  0.67232  0.60251  0.07198  1.0000
  C   C6639     1.0  0.68457  0.59292  0.07636  1.0000
  H   H5306     1.0  0.67679  0.59697  0.11046  1.0000
  H   H5307     1.0  0.65527  0.61431  0.10251  1.0000
  H   H5308     1.0  0.67086  0.60377  0.06138  1.0000
  H   H5309     1.0  0.69252  0.58678  0.06917  1.0000
  C   C6640     1.0  0.72901  0.59051  0.00433  1.0000
  C   C6641     1.0  0.73240  0.58159  0.01711  1.0000
  C   C6642     1.0  0.72972  0.56780  0.02146  1.0000
  C   C6643     1.0  0.62814  0.54463  0.05820  1.0000
  H   H5310     1.0  0.73253  0.56074  0.03114  1.0000
  C   C6644     1.0  0.60679  0.70642  0.14009  1.0000
  C   C6645     1.0  0.60112  0.70562  0.12898  1.0000
  C   C6646     1.0  0.60667  0.69355  0.12262  1.0000
  C   C6647     1.0  0.61797  0.68246  0.12724  1.0000
  C   C6648     1.0  0.62363  0.68354  0.13813  1.0000
  C   C6649     1.0  0.61803  0.69531  0.14455  1.0000
  H   H5311     1.0  0.59239  0.71412  0.12547  1.0000
  H   H5312     1.0  0.60231  0.69285  0.11414  1.0000
  H   H5313     1.0  0.63239  0.67513  0.14171  1.0000
  H   H5314     1.0  0.62249  0.69581  0.15306  1.0000
  C   C6650     1.0  0.55375  0.66693  0.12621  1.0000
  C   C6651     1.0  0.62397  0.68767  0.03515  1.0000
  C   C6652     1.0  0.72325  0.56311  0.01337  1.0000
  C   C6653     1.0  0.56424  0.70120  0.14463  1.0000
  C   C6654     1.0  0.50668  0.71231  0.13806  1.0000
  H   H5315     1.0  0.54652  0.63961  0.08299  1.0000
  C   C6655     1.0  0.56564  0.69069  0.13717  1.0000
  C   C6656     1.0  0.68936  0.65426  0.99309  1.0000
  H   H5316     1.0  0.70102  0.64279  0.02907  1.0000
  C   C6657     1.0  0.51118  0.65626  0.07223  1.0000
  C   C6658     1.0  0.56600  0.72121  0.21824  1.0000
  H   H5317     1.0  0.54809  0.72628  0.11634  1.0000
  C   C6659     1.0  0.59007  0.50572  0.03512  1.0000
  H   H5318     1.0  0.99349  0.53579  0.20673  1.0000
  C   C6660     1.0  0.62580  0.60459  0.05866  1.0000
  C   C6661     1.0  0.58406  0.67501  0.14981  1.0000
  C   C6662     1.0  0.57577  0.67764  0.13971  1.0000
  C   C6663     1.0  0.56428  0.70825  0.10966  1.0000
  C   C6664     1.0  0.55814  0.72288  0.10902  1.0000
  H   H5319     1.0  0.92167  0.49362  0.08714  1.0000
  C   C6665     1.0  0.52059  0.71790  0.04786  1.0000
  C   C6666     1.0  0.58474  0.71446  0.09072  1.0000
  C   C6667     1.0  0.57776  0.70411  0.10062  1.0000
  H   H5320     1.0  0.59228  0.66516  0.15129  1.0000
  H   H5321     1.0  0.57773  0.66968  0.13356  1.0000
  C   C6668     1.0  0.50636  0.55688  0.02038  1.0000
  H   H5322     1.0  0.92038  0.64088  0.22217  1.0000
  H   H5323     1.0  0.59515  0.71116  0.08378  1.0000
  H   H5324     1.0  0.58301  0.69289  0.10131  1.0000
  C   C6669     1.0  0.73732  0.64341  0.10056  1.0000
  C   C6670     1.0  0.73222  0.65816  0.09606  1.0000
  C   C6671     1.0  0.72058  0.66326  0.08923  1.0000
  C   C6672     1.0  0.71401  0.65362  0.08694  1.0000
  C   C6673     1.0  0.71896  0.63879  0.09159  1.0000
  C   C6674     1.0  0.73076  0.63374  0.09831  1.0000
  P   P219      1.0  0.71055  0.62653  0.08820  1.0000
  C   C6675     1.0  0.71787  0.62412  0.07013  1.0000
  C   C6676     1.0  0.71472  0.60915  0.09995  1.0000
  C   C6677     1.0  0.70481  0.60485  0.11262  1.0000
  C   C6678     1.0  0.70843  0.59146  0.12167  1.0000
  C   C6679     1.0  0.72192  0.58226  0.11811  1.0000
  C   C6680     1.0  0.73181  0.58642  0.10550  1.0000
  C   C6681     1.0  0.72823  0.59979  0.09645  1.0000
  C   C6682     1.0  0.71417  0.61366  0.06582  1.0000
  C   C6683     1.0  0.72001  0.61136  0.05200  1.0000
  C   C6684     1.0  0.72978  0.61930  0.04245  1.0000
  C   C6685     1.0  0.73375  0.62956  0.04672  1.0000
  C   C6686     1.0  0.72783  0.63198  0.06053  1.0000
  C   C6687     1.0  0.69118  0.63414  0.09138  1.0000
  C   C6688     1.0  0.68421  0.63953  0.10375  1.0000
  C   C6689     1.0  0.66941  0.64607  0.10608  1.0000
  C   C6690     1.0  0.66148  0.64748  0.09602  1.0000
  C   C6691     1.0  0.66834  0.64236  0.08360  1.0000
  C   C6692     1.0  0.68310  0.63565  0.08128  1.0000
  H   H5325     1.0  0.74636  0.63945  0.10584  1.0000
  H   H5326     1.0  0.73728  0.66564  0.09786  1.0000
  H   H5327     1.0  0.71662  0.67470  0.08575  1.0000
  H   H5328     1.0  0.70503  0.65774  0.08159  1.0000
  H   H5329     1.0  0.73491  0.62238  0.10189  1.0000
  H   H5330     1.0  0.69418  0.61157  0.11545  1.0000
  H   H5331     1.0  0.70062  0.58804  0.13124  1.0000
  H   H5332     1.0  0.72457  0.57176  0.12494  1.0000
  H   H5333     1.0  0.74215  0.57916  0.10260  1.0000
  H   H5334     1.0  0.73601  0.60277  0.08666  1.0000
  H   H5335     1.0  0.70696  0.60711  0.07325  1.0000
  H   H5336     1.0  0.71735  0.60306  0.04883  1.0000
  H   H5337     1.0  0.73452  0.61720  0.03185  1.0000
  H   H5338     1.0  0.74156  0.63549  0.03937  1.0000
  H   H5339     1.0  0.73120  0.63984  0.06365  1.0000
  H   H5340     1.0  0.69023  0.63866  0.11160  1.0000
  H   H5341     1.0  0.66397  0.65011  0.11569  1.0000
  H   H5342     1.0  0.65000  0.65250  0.09794  1.0000
  H   H5343     1.0  0.66212  0.64340  0.07585  1.0000
  H   H5344     1.0  0.68803  0.63170  0.07163  1.0000
  H   H5345     1.0  0.68258  0.54517  0.04247  1.0000
  C   C6693     1.0  0.55673  0.67958  0.11655  1.0000
  C   C6694     1.0  0.65061  0.60677  0.03676  1.0000
  C   C6695     1.0  0.99703  0.49707  0.19810  1.0000
  S   S913      1.0  0.69702  0.49393  0.99678  1.0000
  H   H5346     1.0  0.57950  0.64013  0.99075  1.0000
  P   P220      1.0  0.82576  0.51681  0.06322  1.0000
  S   S914      1.0  0.91158  0.49133  0.21480  1.0000
  C   C6696     1.0  0.81417  0.52632  0.05081  1.0000
  C   C6697     1.0  0.81466  0.52080  0.03921  1.0000
  C   C6698     1.0  0.80521  0.52797  0.03001  1.0000
  C   C6699     1.0  0.79510  0.54059  0.03243  1.0000
  C   C6700     1.0  0.79464  0.54618  0.04391  1.0000
  C   C6701     1.0  0.80421  0.53917  0.05297  1.0000
  H   H5347     1.0  0.50625  0.60039  0.08187  1.0000
  C   C6702     1.0  0.58384  0.64239  0.99845  1.0000
  C   C6703     1.0  0.81528  0.50763  0.07933  1.0000
  C   C6704     1.0  0.56673  0.61270  0.99554  1.0000
  H   H5348     1.0  0.85206  0.49299  0.22593  1.0000
  H   H5349     1.0  0.80566  0.49127  0.05927  1.0000
  H   H5350     1.0  0.87689  0.49669  0.13846  1.0000
  C   C6705     1.0  0.80040  0.51325  0.08410  1.0000
  H   H5351     1.0  0.58935  0.68363  0.16468  1.0000
  H   H5352     1.0  0.53275  0.70862  0.10788  1.0000
  H   H5353     1.0  0.83279  0.54470  0.04807  1.0000
  H   H5354     1.0  0.82227  0.51095  0.03726  1.0000
  H   H5355     1.0  0.80568  0.52374  0.02103  1.0000
  H   H5356     1.0  0.78758  0.54603  0.02549  1.0000
  H   H5357     1.0  0.78668  0.55584  0.04599  1.0000
  H   H5358     1.0  0.80355  0.54360  0.06192  1.0000
  C   C6706     1.0  0.55492  0.72257  0.07249  1.0000
  C   C6707     1.0  0.71967  0.57203  0.00072  1.0000
  H   H5359     1.0  0.89833  0.51186  0.08754  1.0000
  H   H5360     1.0  0.99297  0.49825  0.17115  1.0000
  H   H5361     1.0  0.79467  0.52285  0.07801  1.0000
  C   C6708     1.0  0.58111  0.63493  0.01279  1.0000
  C   C6709     1.0  0.77473  0.52252  0.01718  1.0000
  C   C6710     1.0  0.64766  0.64563  0.04181  1.0000
  C   C6711     1.0  0.60360  0.60115  0.01898  1.0000
  H   H5362     1.0  0.67968  0.62924  0.00123  1.0000
  H   H5363     1.0  0.93827  0.64115  0.19898  1.0000
  H   H5364     1.0  0.66567  0.67902  0.05445  1.0000
  C   C6712     1.0  0.60362  0.50188  0.14957  1.0000
  H   H5365     1.0  0.66021  0.60765  0.02828  1.0000
  C   C6713     1.0  0.54556  0.51269  0.05052  1.0000
  C   C6714     1.0  0.69077  0.52320  0.07076  1.0000
  C   C6715     1.0  0.51195  0.70333  0.08858  1.0000
  H   H5366     1.0  0.59232  0.60567  0.02289  1.0000
  C   C6716     1.0  0.90288  0.50994  0.12064  1.0000
  C   C6717     1.0  0.89646  0.51425  0.10878  1.0000
  P   P221      1.0  0.89418  0.51682  0.13659  1.0000
  C   C6718     1.0  0.87860  0.53113  0.13360  1.0000
  C   C6719     1.0  0.56962  0.52312  0.07708  1.0000
  C   C6720     1.0  0.65880  0.60190  0.99445  1.0000
  H   H5367     1.0  0.56845  0.50321  0.02037  1.0000
  C   C6721     1.0  0.63801  0.54041  0.06699  1.0000
  C   C6722     1.0  0.65224  0.52066  0.10019  1.0000
  C   C6723     1.0  0.51962  0.64812  0.12453  1.0000
  C   C6724     1.0  0.88070  0.54386  0.12358  1.0000
  C   C6725     1.0  0.86887  0.55534  0.12146  1.0000
  C   C6726     1.0  0.85491  0.55425  0.12947  1.0000
  C   C6727     1.0  0.85278  0.54168  0.13957  1.0000
  C   C6728     1.0  0.86455  0.53009  0.14157  1.0000
  C   C6729     1.0  0.90567  0.52478  0.14184  1.0000
  C   C6730     1.0  0.92012  0.52476  0.13443  1.0000
  C   C6731     1.0  0.92879  0.53066  0.13908  1.0000
  C   C6732     1.0  0.92308  0.53670  0.15108  1.0000
  C   C6733     1.0  0.90866  0.53693  0.15838  1.0000
  C   C6734     1.0  0.89995  0.53117  0.15368  1.0000
  H   H5368     1.0  0.51756  0.70967  0.09139  1.0000
  C   C6735     1.0  0.62499  0.53704  0.11047  1.0000
  S   S915      1.0  0.83939  0.49984  0.18297  1.0000
  S   S916      1.0  0.80852  0.49837  0.16662  1.0000
  H   H5369     1.0  0.88608  0.52178  0.10889  1.0000
  H   H5370     1.0  0.70587  0.53029  0.07777  1.0000
  C   C6736     1.0  0.84284  0.54878  0.07622  1.0000
  C   C6737     1.0  0.52035  0.73463  0.20047  1.0000
  S   S917      1.0  0.64484  0.51055  0.04357  1.0000
  C   C6738     1.0  0.55423  0.62190  0.00135  1.0000
  H   H5371     1.0  0.89152  0.54489  0.11746  1.0000
  H   H5372     1.0  0.87056  0.56511  0.11369  1.0000
  H   H5373     1.0  0.84573  0.56315  0.12793  1.0000
  H   H5374     1.0  0.84199  0.54091  0.14594  1.0000
  H   H5375     1.0  0.86260  0.52047  0.14945  1.0000
  H   H5376     1.0  0.92487  0.52005  0.12522  1.0000
  H   H5377     1.0  0.94003  0.53025  0.13352  1.0000
  H   H5378     1.0  0.92984  0.54104  0.15482  1.0000
  H   H5379     1.0  0.90425  0.54128  0.16791  1.0000
  H   H5380     1.0  0.88885  0.53125  0.15958  1.0000
  C   C6739     1.0  0.53753  0.72383  0.18157  1.0000
  H   H5381     1.0  0.90057  0.50365  0.16537  1.0000
  C   C6740     1.0  0.95901  0.52920  0.16745  1.0000
  C   C6741     1.0  0.96743  0.52854  0.17685  1.0000
  C   C6742     1.0  0.97946  0.51710  0.17868  1.0000
  C   C6743     1.0  0.98346  0.50688  0.17030  1.0000
  C   C6744     1.0  0.53284  0.51857  0.03141  1.0000
  C   C6745     1.0  0.55737  0.72783  0.20822  1.0000
  H   H5382     1.0  0.64705  0.63794  0.99235  1.0000
  H   H5383     1.0  0.50627  0.71765  0.11579  1.0000
  H   H5384     1.0  0.58434  0.56512  0.00610  1.0000
  H   H5385     1.0  0.94945  0.53773  0.16649  1.0000
  H   H5386     1.0  0.96437  0.53681  0.18285  1.0000
  C   C6746     1.0  0.62348  0.59492  0.99958  1.0000
  P   P222      1.0  0.65243  0.58541  0.00162  1.0000
  C   C6747     1.0  0.70445  0.52543  0.07002  1.0000
  C   C6748     1.0  0.95508  0.52797  0.22264  1.0000
  H   H5387     1.0  0.72552  0.49227  0.07758  1.0000
  H   H5388     1.0  0.58966  0.49994  0.11777  1.0000
  C   C6749     1.0  0.57996  0.49860  0.08752  1.0000
  C   C6750     1.0  0.68125  0.55850  0.07368  1.0000
  H   H5389     1.0  0.61193  0.65405  0.04094  1.0000
  C   C6751     1.0  0.83489  0.54216  0.05865  1.0000
  C   C6752     1.0  0.50868  0.73658  0.06104  1.0000
  H   H5390     1.0  0.53721  0.64038  0.99723  1.0000
  H   H5391     1.0  0.64935  0.54712  0.07829  1.0000
  H   H5392     1.0  0.55707  0.54353  0.99646  1.0000
  C   C6753     1.0  0.93738  0.57253  0.23147  1.0000
  H   H5393     1.0  0.66150  0.58809  0.04942  1.0000
  C   C6754     1.0  0.53673  0.70212  0.12918  1.0000
  C   C6755     1.0  0.65380  0.64880  0.02715  1.0000
  C   C6756     1.0  0.97378  0.53946  0.22231  1.0000
  H   H5394     1.0  0.63700  0.62519  0.02605  1.0000
  C   C6757     1.0  0.62441  0.58277  0.08953  1.0000
  C   C6758     1.0  0.78399  0.52639  0.99151  1.0000
  H   H5395     1.0  0.57697  0.52399  0.99534  1.0000
  C   C6759     1.0  0.83250  0.52930  0.06829  1.0000
  H   H5396     1.0  0.68067  0.58245  0.00840  1.0000
  H   H5397     1.0  0.66066  0.55487  0.99979  1.0000
  H   H5398     1.0  0.60410  0.66378  0.00087  1.0000
  C   C6760     1.0  0.58144  0.53719  0.11152  1.0000
  C   C6761     1.0  0.77095  0.49310  0.14152  1.0000
  H   H5399     1.0  0.56603  0.52703  0.05604  1.0000
  H   H5400     1.0  0.50941  0.71605  0.03314  1.0000
  H   H5401     1.0  0.69355  0.56489  0.02591  1.0000
  H   H5402     1.0  0.61344  0.56236  0.04800  1.0000
  H   H5403     1.0  0.60537  0.52509  0.07692  1.0000
  H   H5404     1.0  0.69080  0.67031  0.05833  1.0000
  H   H5405     1.0  0.60107  0.68981  0.01439  1.0000
  C   C6762     1.0  0.82223  0.49537  0.08786  1.0000
  C   C6763     1.0  0.98294  0.53328  0.21109  1.0000
  C   C6764     1.0  0.67099  0.56447  0.09679  1.0000
  H   H5406     1.0  0.64485  0.56109  0.02447  1.0000
  C   C6765     1.0  0.56502  0.56189  0.02183  1.0000
  H   H5407     1.0  0.63905  0.61547  0.00413  1.0000
  C   C6766     1.0  0.65548  0.57654  0.98721  1.0000
  C   C6767     1.0  0.96423  0.52170  0.21149  1.0000
  H   H5408     1.0  0.68160  0.52658  0.07898  1.0000
  C   C6768     1.0  0.93509  0.49856  0.17073  1.0000
  H   H5409     1.0  0.61598  0.60392  0.06690  1.0000
  H   H5410     1.0  0.56675  0.56760  0.02870  1.0000
  C   C6769     1.0  0.56387  0.64791  0.06745  1.0000
  C   C6770     1.0  0.56794  0.65958  0.05701  1.0000
  C   C6771     1.0  0.79272  0.50676  0.09723  1.0000
  H   H5411     1.0  0.69038  0.55384  0.06613  1.0000
  C   C6772     1.0  0.52008  0.73988  0.23149  1.0000
  H   H5412     1.0  0.57195  0.63803  0.06941  1.0000
  H   H5413     1.0  0.57914  0.65872  0.05109  1.0000
  C   C6773     1.0  0.67338  0.67109  0.04893  1.0000
  Fe  Fe457     1.0  0.83098  0.50202  0.16312  1.0000
  C   C6774     1.0  0.84066  0.53594  0.08580  1.0000
  H   H5414     1.0  0.87715  0.49747  0.20739  1.0000
  C   C6775     1.0  0.55757  0.67227  0.05415  1.0000
  H   H5415     1.0  0.55161  0.66608  0.13761  1.0000
  C   C6776     1.0  0.54946  0.64891  0.07514  1.0000
  H   H5416     1.0  0.61507  0.62348  0.04558  1.0000
  C   C6777     1.0  0.51290  0.61206  0.01461  1.0000
  H   H5417     1.0  0.52629  0.73059  0.22725  1.0000
  C   C6778     1.0  0.51154  0.68116  0.08313  1.0000
  C   C6779     1.0  0.57448  0.50443  0.06407  1.0000
  C   C6780     1.0  0.92258  0.49367  0.10832  1.0000
  C   C6781     1.0  0.72738  0.49121  0.08803  1.0000
  H   H5418     1.0  0.56916  0.70962  0.22107  1.0000
  C   C6782     1.0  0.78584  0.50738  0.19672  1.0000
  H   H5419     1.0  0.51994  0.63233  0.09319  1.0000
  H   H5420     1.0  0.96018  0.51508  0.20729  1.0000
  H   H5421     1.0  0.57857  0.52914  0.12097  1.0000
  C   C6783     1.0  0.60838  0.50989  0.13591  1.0000
  H   H5422     1.0  0.66689  0.56448  0.05948  1.0000
  C   C6784     1.0  0.59874  0.54627  0.09072  1.0000
  C   C6785     1.0  0.57843  0.72903  0.09000  1.0000
  C   C6786     1.0  0.58892  0.49255  0.14023  1.0000
  C   C6787     1.0  0.55858  0.50758  0.02740  1.0000
  C   C6788     1.0  0.51961  0.65156  0.09948  1.0000
  H   H5423     1.0  0.54577  0.51320  0.01155  1.0000
  C   C6789     1.0  0.51059  0.56628  0.02562  1.0000
  H   H5424     1.0  0.55009  0.62015  0.01279  1.0000
  H   H5425     1.0  0.94876  0.57092  0.22616  1.0000
  H   H5426     1.0  0.76209  0.50076  0.08375  1.0000
  C   C6790     1.0  0.55968  0.54832  0.00361  1.0000
  H   H5427     1.0  0.54012  0.54555  0.01954  1.0000
  C   C6791     1.0  0.91584  0.49942  0.12037  1.0000
  S   S918      1.0  0.52446  0.58390  0.98897  1.0000
  H   H5428     1.0  0.62266  0.52008  0.00827  1.0000
  H   H5429     1.0  0.78111  0.50727  0.06274  1.0000
  C   C6792     1.0  0.65775  0.57123  0.09278  1.0000
  C   C6793     1.0  0.62519  0.61569  0.04651  1.0000
  C   C6794     1.0  0.51877  0.72090  0.20849  1.0000
  H   H5430     1.0  0.51954  0.62673  0.13730  1.0000
  C   C6795     1.0  0.77909  0.49653  0.19746  1.0000
  H   H5431     1.0  0.62689  0.49641  0.02478  1.0000
  C   C6796     1.0  0.56172  0.72475  0.05802  1.0000
  C   C6797     1.0  0.95991  0.53673  0.22814  1.0000
  C   C6798     1.0  0.55651  0.65603  0.10655  1.0000
  H   H5432     1.0  0.57115  0.71686  0.05423  1.0000
  C   C6799     1.0  0.59953  0.52466  0.01678  1.0000
  H   H5433     1.0  0.66109  0.53584  0.10484  1.0000
  C   C6800     1.0  0.63962  0.51672  0.10039  1.0000
  C   C6801     1.0  0.88901  0.50196  0.15053  1.0000
  H   H5434     1.0  0.70556  0.50208  0.09608  1.0000
  H   H5435     1.0  0.55215  0.64519  0.12865  1.0000
  C   C6802     1.0  0.51949  0.63702  0.10188  1.0000
  H   H5436     1.0  0.55392  0.72142  0.20323  1.0000
  C   C6803     1.0  0.55381  0.65516  0.12120  1.0000
  H   H5437     1.0  0.55684  0.64681  0.10270  1.0000
  C   C6804     1.0  0.55904  0.66870  0.09688  1.0000
  C   C6805     1.0  0.55898  0.68049  0.10184  1.0000
  P   P223      1.0  0.55586  0.69494  0.12320  1.0000
  H   H5438     1.0  0.56150  0.66927  0.08549  1.0000
  H   H5439     1.0  0.56102  0.69012  0.09411  1.0000
  C   C6806     1.0  0.61379  0.57459  0.09576  1.0000
  H   H5440     1.0  0.72090  0.55253  0.01701  1.0000
  H   H5441     1.0  0.61862  0.58028  0.05710  1.0000
  H   H5442     1.0  0.69571  0.59912  0.04495  1.0000
  H   H5443     1.0  0.84675  0.55629  0.07936  1.0000
  C   C6807     1.0  0.52797  0.70792  0.11913  1.0000
  S   S919      1.0  0.58577  0.62717  0.04017  1.0000
  H   H5444     1.0  0.64894  0.57628  0.10029  1.0000
  C   C6808     1.0  0.57250  0.69850  0.15477  1.0000
  C   C6809     1.0  0.96276  0.51867  0.15953  1.0000
  C   C6810     1.0  0.56515  0.73323  0.09918  1.0000
  C   C6811     1.0  0.66282  0.55229  0.03478  1.0000
  C   C6812     1.0  0.53276  0.51838  0.04544  1.0000
  C   C6813     1.0  0.61250  0.59797  0.10655  1.0000
  C   C6814     1.0  0.97834  0.52413  0.20569  1.0000
  Fe  Fe458     1.0  0.58340  0.74113  0.14565  1.0000
  C   C6815     1.0  0.57490  0.56057  0.00887  1.0000
  C   C6816     1.0  0.53028  0.70129  0.14374  1.0000
  H   H5445     1.0  0.53669  0.69661  0.15176  1.0000
  C   C6817     1.0  0.58728  0.63742  0.02261  1.0000
  C   C6818     1.0  0.68274  0.56437  0.02585  1.0000
  H   H5446     1.0  0.69969  0.58864  0.02423  1.0000
  C   C6819     1.0  0.68996  0.60837  0.01140  1.0000
  C   C6820     1.0  0.95154  0.60750  0.21677  1.0000
  H   H5447     1.0  0.55708  0.71165  0.14230  1.0000
  H   H5448     1.0  0.57185  0.70686  0.16004  1.0000
  H   H5449     1.0  0.52008  0.66807  0.10949  1.0000
  H   H5450     1.0  0.52090  0.56924  0.02064  1.0000
  H   H5451     1.0  0.84169  0.56183  0.05521  1.0000
  H   H5452     1.0  0.61035  0.55146  0.99304  1.0000
  H   H5453     1.0  0.73102  0.60120  0.00095  1.0000
  C   C6821     1.0  0.69225  0.60581  0.03542  1.0000
  C   C6822     1.0  0.63479  0.56521  0.06794  1.0000
  C   C6823     1.0  0.51533  0.70655  0.14813  1.0000
  C   C6824     1.0  0.83556  0.52622  0.08187  1.0000
  C   C6825     1.0  0.91638  0.49825  0.09642  1.0000
  C   C6826     1.0  0.63262  0.64749  0.04670  1.0000
  C   C6827     1.0  0.68563  0.62032  0.03479  1.0000
  H   H5454     1.0  0.54501  0.55740  0.03586  1.0000
  C   C6828     1.0  0.88057  0.49388  0.14833  1.0000
  H   H5455     1.0  0.64074  0.50740  0.09634  1.0000
  C   C6829     1.0  0.76029  0.49686  0.12134  1.0000
  C   C6830     1.0  0.59364  0.50055  0.12657  1.0000
  C   C6831     1.0  0.66155  0.57340  0.01531  1.0000
  H   H5456     1.0  0.80467  0.51220  0.19972  1.0000
  H   H5457     1.0  0.63690  0.55043  0.11392  1.0000
  C   C6832     1.0  0.75982  0.53897  0.00130  1.0000
  C   C6833     1.0  0.95036  0.61968  0.20566  1.0000
  H   H5458     1.0  0.62735  0.59492  0.98837  1.0000
  C   C6834     1.0  0.54302  0.73286  0.07749  1.0000
  C   C6835     1.0  0.63755  0.61668  0.03551  1.0000
  C   C6836     1.0  0.61899  0.68970  0.02278  1.0000
  H   H5459     1.0  0.77612  0.51732  0.02794  1.0000
  C   C6837     1.0  0.59239  0.65262  0.99409  1.0000
  C   C6838     1.0  0.63881  0.59429  0.05988  1.0000
  C   C6839     1.0  0.58780  0.51957  0.02645  1.0000
  C   C6840     1.0  0.69445  0.59985  0.02373  1.0000
  H   H5460     1.0  0.74972  0.54662  0.99991  1.0000
  C   C6841     1.0  0.64975  0.61500  0.99718  1.0000
  H   H5461     1.0  0.69388  0.52439  0.99292  1.0000
  C   C6842     1.0  0.62124  0.55904  0.05463  1.0000
  S   S920      1.0  0.81548  0.49767  0.13280  1.0000
  C   C6843     1.0  0.90332  0.50856  0.09664  1.0000
  C   C6844     1.0  0.68331  0.62286  0.01074  1.0000
  Fe  Fe459     1.0  0.93002  0.49889  0.21689  1.0000
  H   H5462     1.0  0.79596  0.51211  0.00696  1.0000
  H   H5463     1.0  0.95604  0.51886  0.15254  1.0000
  C   C6845     1.0  0.58816  0.55862  0.08740  1.0000
  S   S921      1.0  0.85386  0.50338  0.11113  1.0000
  H   H5464     1.0  0.76030  0.51370  0.13093  1.0000
  C   C6846     1.0  0.65127  0.59562  0.04887  1.0000
  C   C6847     1.0  0.65424  0.62785  0.99053  1.0000
  H   H5465     1.0  0.86761  0.49829  0.08293  1.0000
  C   C6848     1.0  0.77272  0.49588  0.99529  1.0000
  C   C6849     1.0  0.61355  0.51605  0.01571  1.0000
  C   C6850     1.0  0.92848  0.56550  0.22851  1.0000
  H   H5466     1.0  0.69315  0.55338  0.09018  1.0000
  C   C6851     1.0  0.66800  0.67234  0.99984  1.0000
  H   H5467     1.0  0.69714  0.64436  0.99575  1.0000
  H   H5468     1.0  0.75305  0.53450  0.02427  1.0000
  C   C6852     1.0  0.89372  0.49801  0.16340  1.0000
  C   C6853     1.0  0.63764  0.54096  0.11024  1.0000
  H   H5469     1.0  0.53782  0.73132  0.08875  1.0000
  C   C6854     1.0  0.61595  0.50266  0.02494  1.0000
  C   C6855     1.0  0.51791  0.65384  0.05847  1.0000
  H   H5470     1.0  0.61074  0.50918  0.06039  1.0000
  C   C6856     1.0  0.51891  0.68947  0.08661  1.0000
  H   H5471     1.0  0.62794  0.64532  0.05804  1.0000
  C   C6857     1.0  0.52684  0.70872  0.20325  1.0000
  H   H5472     1.0  0.51931  0.61695  0.11722  1.0000
  C   C6858     1.0  0.79977  0.49451  0.10560  1.0000
  H   H5473     1.0  0.60902  0.59800  0.03906  1.0000
  H   H5474     1.0  0.63518  0.58822  0.03027  1.0000
  H   H5475     1.0  0.52272  0.52248  0.05244  1.0000
  C   C6859     1.0  0.69319  0.65062  0.03462  1.0000
  C   C6860     1.0  0.51938  0.63370  0.12683  1.0000
  C   C6861     1.0  0.53904  0.66173  0.07253  1.0000
  C   C6862     1.0  0.62786  0.59115  0.02313  1.0000
  H   H5476     1.0  0.77370  0.49740  0.14898  1.0000
  C   C6863     1.0  0.61311  0.59666  0.02817  1.0000
  Fe  Fe460     1.0  0.67831  0.50137  0.01398  1.0000
  H   H5477     1.0  0.78141  0.51151  0.10104  1.0000
  H   H5478     1.0  0.83405  0.51634  0.08952  1.0000
  C   C6864     1.0  0.51972  0.65703  0.11094  1.0000
  H   H5479     1.0  0.67238  0.56467  0.10709  1.0000
  H   H5480     1.0  0.97710  0.49348  0.21336  1.0000
  H   H5481     1.0  0.61188  0.60713  0.11067  1.0000
  C   C6865     1.0  0.63313  0.59008  0.00880  1.0000
  H   H5482     1.0  0.65448  0.64207  0.04948  1.0000
  C   C6866     1.0  0.97507  0.50764  0.16083  1.0000
  C   C6867     1.0  0.51092  0.64854  0.05135  1.0000
  H   H5483     1.0  0.63163  0.60105  0.09025  1.0000
  C   C6868     1.0  0.52491  0.59393  0.00067  1.0000
  H   H5484     1.0  0.54440  0.72502  0.17091  1.0000
  C   C6869     1.0  0.68148  0.62907  0.02225  1.0000
  H   H5485     1.0  0.57225  0.60367  0.00250  1.0000
  C   C6870     1.0  0.54575  0.51318  0.02238  1.0000
  H   H5486     1.0  0.62581  0.53666  0.05434  1.0000
  H   H5487     1.0  0.85504  0.51948  0.04631  1.0000
  C   C6871     1.0  0.60343  0.50926  0.12430  1.0000
  H   H5488     1.0  0.76198  0.50042  0.00098  1.0000
  H   H5489     1.0  0.63479  0.68886  0.03427  1.0000
  H   H5490     1.0  0.64324  0.52921  0.06983  1.0000
  H   H5491     1.0  0.76912  0.49923  0.19375  1.0000
  C   C6872     1.0  0.57105  0.72952  0.22414  1.0000
  S   S922      1.0  0.67166  0.51408  0.06213  1.0000
  C   C6873     1.0  0.62364  0.59453  0.09497  1.0000
  C   C6874     1.0  0.83999  0.55187  0.06264  1.0000
  H   H5492     1.0  0.65814  0.66990  0.03792  1.0000
  H   H5493     1.0  0.56010  0.55116  0.11513  1.0000
  C   C6875     1.0  0.59787  0.65561  0.00408  1.0000
  H   H5494     1.0  0.51989  0.65237  0.13326  1.0000
  H   H5495     1.0  0.54230  0.70081  0.18554  1.0000
  H   H5496     1.0  0.54517  0.51226  0.06154  1.0000
  H   H5497     1.0  0.68370  0.62463  0.04413  1.0000
  C   C6876     1.0  0.62361  0.65229  0.03701  1.0000
  S   S923      1.0  0.65582  0.50257  0.01197  1.0000
  C   C6877     1.0  0.51921  0.62820  0.11553  1.0000
  C   C6878     1.0  0.61007  0.51386  0.08038  1.0000
  C   C6879     1.0  0.52037  0.72527  0.05790  1.0000
  C   C6880     1.0  0.93032  0.61945  0.23185  1.0000
  C   C6881     1.0  0.86098  0.49858  0.19602  1.0000
  H   H5498     1.0  0.59420  0.57202  0.11184  1.0000
  C   C6882     1.0  0.65612  0.57146  0.07922  1.0000
  C   C6883     1.0  0.68275  0.55815  0.08723  1.0000
  P   P224      1.0  0.63868  0.57857  0.07439  1.0000
  H   H5499     1.0  0.97746  0.54636  0.22650  1.0000
  C   C6884     1.0  0.68753  0.66619  0.05109  1.0000
  H   H5500     1.0  0.66279  0.51445  0.09591  1.0000
  H   H5501     1.0  0.97784  0.49943  0.15478  1.0000
  H   H5502     1.0  0.75480  0.50424  0.11325  1.0000
  H   H5503     1.0  0.51628  0.64638  0.04086  1.0000
  C   C6885     1.0  0.60199  0.58978  0.11270  1.0000
  C   C6886     1.0  0.54997  0.54948  0.01669  1.0000
  C   C6887     1.0  0.60257  0.57814  0.10725  1.0000
  H   H5504     1.0  0.59328  0.59261  0.12157  1.0000
  H   H5505     1.0  0.62267  0.65894  0.01483  1.0000
  C   C6888     1.0  0.64473  0.65307  0.01741  1.0000
  C   C6889     1.0  0.53623  0.71019  0.18977  1.0000
  C   C6890     1.0  0.67886  0.65520  0.03270  1.0000
  P   P225      1.0  0.67310  0.64789  0.02120  1.0000
  H   H5506     1.0  0.96003  0.59812  0.21495  1.0000
  H   H5507     1.0  0.64913  0.65531  0.00602  1.0000
  H   H5508     1.0  0.65892  0.67645  0.00780  1.0000
  C   C6891     1.0  0.69747  0.65609  0.04381  1.0000
  H   H5509     1.0  0.95801  0.61970  0.19545  1.0000
  C   C6892     1.0  0.62436  0.56926  0.05967  1.0000
  C   C6893     1.0  0.62587  0.52486  0.10557  1.0000
  H   H5510     1.0  0.94420  0.52601  0.22704  1.0000
  H   H5511     1.0  0.99731  0.50411  0.13521  1.0000
  C   C6894     1.0  0.67712  0.65884  0.00340  1.0000
  C   C6895     1.0  0.51323  0.60513  0.00409  1.0000
  C   C6896     1.0  0.78343  0.49720  0.07034  1.0000
  H   H5512     1.0  0.50467  0.58006  0.04020  1.0000
  H   H5513     1.0  0.52994  0.68513  0.08808  1.0000
  H   H5514     1.0  0.52865  0.65578  0.05324  1.0000
  H   H5515     1.0  0.59078  0.56681  0.07796  1.0000
  C   C6897     1.0  0.65127  0.53272  0.10519  1.0000
  C   C6898     1.0  0.85390  0.50876  0.04724  1.0000
  P   P226      1.0  0.99007  0.51590  0.19119  1.0000
  H   H5516     1.0  0.52924  0.72214  0.06328  1.0000
  C   C6899     1.0  0.57089  0.54969  0.10828  1.0000
  H   H5517     1.0  0.92541  0.50528  0.16728  1.0000
  C   C6900     1.0  0.84105  0.50432  0.05517  1.0000
  H   H5518     1.0  0.93300  0.55827  0.22127  1.0000
  H   H5519     1.0  0.52974  0.70924  0.04535  1.0000
  C   C6901     1.0  0.55268  0.55619  0.02585  1.0000
  C   C6902     1.0  0.52965  0.73602  0.18688  1.0000
  C   C6903     1.0  0.77092  0.53609  0.98936  1.0000
  C   C6904     1.0  0.61302  0.50820  0.09408  1.0000
  C   C6905     1.0  0.78588  0.51965  0.00538  1.0000
  P   P227      1.0  0.52023  0.66281  0.08172  1.0000
  H   H5520     1.0  0.60950  0.54520  0.08393  1.0000
  C   C6906     1.0  0.59547  0.53537  0.10267  1.0000
  H   H5521     1.0  0.53521  0.68311  0.05921  1.0000
  H   H5522     1.0  0.61452  0.54344  0.11459  1.0000
  H   H5523     1.0  0.74274  0.53302  0.98814  1.0000
  P   P228      1.0  0.60946  0.51949  0.10656  1.0000
  C   C6907     1.0  0.58006  0.49437  0.07530  1.0000
  Fe  Fe461     1.0  0.83713  0.50162  0.13176  1.0000
  C   C6908     1.0  0.56960  0.51891  0.06491  1.0000
  H   H5524     1.0  0.52287  0.52282  0.02754  1.0000
  C   C6909     1.0  0.60874  0.60034  0.00469  1.0000
  H   H5525     1.0  0.56598  0.53435  0.07757  1.0000
  Fe  Fe462     1.0  0.62467  0.69096  0.98722  1.0000
  C   C6910     1.0  0.71613  0.49680  0.09846  1.0000
  C   C6911     1.0  0.93922  0.63176  0.20764  1.0000
  H   H5526     1.0  0.87549  0.50268  0.03458  1.0000
  H   H5527     1.0  0.59131  0.49917  0.99724  1.0000
  C   C6912     1.0  0.58843  0.52218  0.99048  1.0000
  H   H5528     1.0  0.56236  0.73894  0.03742  1.0000
  H   H5529     1.0  0.71989  0.59263  0.98633  1.0000
  C   C6913     1.0  0.92917  0.63162  0.22071  1.0000
  C   C6914     1.0  0.86552  0.49929  0.04052  1.0000
  C   C6915     1.0  0.59652  0.50804  0.99157  1.0000
  C   C6916     1.0  0.59391  0.49321  0.15173  1.0000
  C   C6917     1.0  0.55860  0.50738  0.04147  1.0000
  H   H5530     1.0  0.61769  0.49432  0.98655  1.0000
  C   C6918     1.0  0.61938  0.49354  0.09792  1.0000
  H   H5531     1.0  0.50380  0.62071  0.01723  1.0000
  C   C6919     1.0  0.54693  0.63343  0.99245  1.0000
  C   C6920     1.0  0.79905  0.50388  0.20088  1.0000
  H   H5532     1.0  0.57485  0.51633  0.09776  1.0000
  C   C6921     1.0  0.57468  0.51296  0.08844  1.0000
  H   H5533     1.0  0.76005  0.59007  0.98758  1.0000
  H   H5534     1.0  0.51109  0.71965  0.21869  1.0000
  H   H5535     1.0  0.60751  0.50238  0.15849  1.0000
  H   H5536     1.0  0.57817  0.72416  0.23144  1.0000
  C   C6922     1.0  0.71855  0.49563  0.11189  1.0000
  P   P229      1.0  0.57508  0.49931  0.04796  1.0000
  H   H5537     1.0  0.53803  0.73773  0.00670  1.0000
  H   H5538     1.0  0.55634  0.65792  0.98660  1.0000
  C   C6923     1.0  0.67012  0.68041  0.98583  1.0000
  H   H5539     1.0  0.62726  0.56743  0.98600  1.0000
  H   H5540     1.0  0.97398  0.62359  0.31916  1.0000
  S   S924      1.0  0.92141  0.72268  0.39600  1.0000
  Fe  Fe463     1.0  0.90492  0.73437  0.44543  1.0000
  C   C6924     1.0  0.87370  0.74038  0.40243  1.0000
  H   H5541     1.0  0.98260  0.51375  0.31301  1.0000
  H   H5542     1.0  0.94932  0.71188  0.40576  1.0000
  H   H5543     1.0  0.82856  0.69408  0.41631  1.0000
  H   H5544     1.0  0.97946  0.68444  0.24047  1.0000
  Fe  Fe464     1.0  0.94351  0.64270  0.39528  1.0000
  S   S925      1.0  0.94439  0.62070  0.39272  1.0000
  S   S926      1.0  0.92341  0.65637  0.40659  1.0000
  C   C6925     1.0  0.93410  0.53368  0.37180  1.0000
  H   H5545     1.0  0.98188  0.69813  0.41397  1.0000
  H   H5546     1.0  0.94069  0.64890  0.30116  1.0000
  Fe  Fe465     1.0  0.95908  0.62666  0.37122  1.0000
  S   S927      1.0  0.95760  0.62540  0.34928  1.0000
  Fe  Fe466     1.0  0.96482  0.61400  0.40118  1.0000
  S   S928      1.0  0.97045  0.59322  0.41711  1.0000
  S   S929      1.0  0.95675  0.64923  0.37328  1.0000
  S   S930      1.0  0.96259  0.63545  0.40546  1.0000
  C   C6926     1.0  0.94717  0.68650  0.26472  1.0000
  C   C6927     1.0  0.99140  0.53304  0.45846  1.0000
  H   H5547     1.0  0.97185  0.59926  0.27378  1.0000
  Fe  Fe467     1.0  0.96135  0.56936  0.30680  1.0000
  S   S931      1.0  0.96450  0.57162  0.28305  1.0000
  S   S932      1.0  0.94343  0.58426  0.31916  1.0000
  Fe  Fe468     1.0  0.96900  0.54746  0.28767  1.0000
  S   S933      1.0  0.96507  0.53167  0.27702  1.0000
  H   H5548     1.0  0.82871  0.70659  0.46085  1.0000
  C   C6928     1.0  0.94323  0.55886  0.35643  1.0000
  S   S934      1.0  0.96377  0.54542  0.31152  1.0000
  S   S935      1.0  0.98453  0.56847  0.30586  1.0000
  H   H5549     1.0  0.98531  0.52080  0.25067  1.0000
  C   C6929     1.0  0.98977  0.49657  0.30180  1.0000
  S   S936      1.0  0.97096  0.50809  0.38636  1.0000
  C   C6930     1.0  0.98658  0.57994  0.36640  1.0000
  H   H5550     1.0  0.97779  0.61638  0.42405  1.0000
  H   H5551     1.0  0.97140  0.67288  0.39154  1.0000
  C   C6931     1.0  0.97244  0.73027  0.40587  1.0000
  C   C6932     1.0  0.93935  0.52028  0.25840  1.0000
  H   H5552     1.0  0.81847  0.67987  0.43993  1.0000
  H   H5553     1.0  0.98669  0.66381  0.25941  1.0000
  H   H5554     1.0  0.95422  0.69908  0.24375  1.0000
  C   C6933     1.0  0.94918  0.71814  0.45323  1.0000
  C   C6934     1.0  0.97864  0.52395  0.34374  1.0000
  C   C6935     1.0  0.97183  0.51871  0.35786  1.0000
  C   C6936     1.0  0.97935  0.51497  0.36877  1.0000
  C   C6937     1.0  0.98057  0.65988  0.44350  1.0000
  H   H5555     1.0  0.98187  0.64064  0.26126  1.0000
  H   H5556     1.0  0.97290  0.52633  0.33536  1.0000
  H   H5557     1.0  0.96088  0.51720  0.36027  1.0000
  S   S937      1.0  0.99299  0.54525  0.28539  1.0000
  H   H5558     1.0  0.98134  0.65144  0.43829  1.0000
  C   C6938     1.0  0.95002  0.53174  0.27043  1.0000
  C   C6939     1.0  0.93754  0.54279  0.27094  1.0000
  C   C6940     1.0  0.92612  0.54267  0.26506  1.0000
  C   C6941     1.0  0.92699  0.53152  0.25861  1.0000
  H   H5559     1.0  0.98010  0.55466  0.42506  1.0000
  C   C6942     1.0  0.86153  0.71821  0.45466  1.0000
  H   H5560     1.0  0.93668  0.55137  0.27593  1.0000
  H   H5561     1.0  0.91652  0.55127  0.26555  1.0000
  H   H5562     1.0  0.57138  0.73978  0.27822  1.0000
  C   C6943     1.0  0.97877  0.59374  0.43042  1.0000
  C   C6944     1.0  0.97155  0.68175  0.25027  1.0000
  H   H5563     1.0  0.98364  0.54255  0.45474  1.0000
  C   C6945     1.0  0.92869  0.60178  0.28883  1.0000
  C   C6946     1.0  0.83699  0.72988  0.46460  1.0000
  H   H5564     1.0  0.99403  0.49979  0.33316  1.0000
  H   H5565     1.0  0.97579  0.65796  0.31270  1.0000
  C   C6947     1.0  0.94757  0.62123  0.44831  1.0000
  C   C6948     1.0  0.96714  0.56786  0.36989  1.0000
  C   C6949     1.0  0.99519  0.49492  0.32441  1.0000
  C   C6950     1.0  0.95304  0.61230  0.34347  1.0000
  C   C6951     1.0  0.93989  0.61567  0.33918  1.0000
  C   C6952     1.0  0.93700  0.60677  0.33213  1.0000
  C   C6953     1.0  0.94744  0.59462  0.32879  1.0000
  C   C6954     1.0  0.96063  0.59116  0.33308  1.0000
  C   C6955     1.0  0.96336  0.59991  0.34049  1.0000
  H   H5566     1.0  0.93195  0.62532  0.34114  1.0000
  H   H5567     1.0  0.92676  0.60953  0.32894  1.0000
  H   H5568     1.0  0.96876  0.58175  0.33071  1.0000
  H   H5569     1.0  0.97375  0.59744  0.34331  1.0000
  C   C6956     1.0  0.92194  0.70423  0.39930  1.0000
  C   C6957     1.0  0.93027  0.69656  0.38882  1.0000
  C   C6958     1.0  0.93114  0.68180  0.39116  1.0000
  C   C6959     1.0  0.92324  0.67470  0.40380  1.0000
  C   C6960     1.0  0.91469  0.68242  0.41420  1.0000
  C   C6961     1.0  0.91423  0.69710  0.41206  1.0000
  H   H5570     1.0  0.93624  0.70202  0.37893  1.0000
  H   H5571     1.0  0.93767  0.67599  0.38306  1.0000
  H   H5572     1.0  0.90850  0.67698  0.42397  1.0000
  C   C6962     1.0  0.95436  0.54304  0.42548  1.0000
  C   C6963     1.0  0.92626  0.58936  0.28695  1.0000
  H   H5573     1.0  0.85029  0.49547  0.25026  1.0000
  H   H5574     1.0  0.90330  0.61434  0.38118  1.0000
  H   H5575     1.0  0.99065  0.64066  0.35281  1.0000
  C   C6964     1.0  0.00050  0.52172  0.35144  1.0000
  C   C6965     1.0  0.93603  0.65371  0.32176  1.0000
  C   C6966     1.0  0.98956  0.65035  0.28724  1.0000
  C   C6967     1.0  0.88274  0.72748  0.39947  1.0000
  C   C6968     1.0  0.96191  0.67045  0.41405  1.0000
  C   C6969     1.0  0.96995  0.63513  0.28313  1.0000
  C   C6970     1.0  0.98089  0.60663  0.43153  1.0000
  C   C6971     1.0  0.95080  0.52044  0.26421  1.0000
  S   S938      1.0  0.99414  0.65188  0.37822  1.0000
  H   H5576     1.0  0.93464  0.65818  0.34202  1.0000
  C   C6972     1.0  0.97721  0.61993  0.26597  1.0000
  C   C6973     1.0  0.93886  0.54137  0.37863  1.0000
  C   C6974     1.0  0.84092  0.72815  0.47747  1.0000
  C   C6975     1.0  0.97662  0.63279  0.26932  1.0000
  H   H5577     1.0  0.94212  0.66360  0.47425  1.0000
  C   C6976     1.0  0.94959  0.69245  0.42209  1.0000
  C   C6977     1.0  0.99307  0.52527  0.34046  1.0000
  S   S939      1.0  0.89092  0.51083  0.23800  1.0000
  C   C6978     1.0  0.94544  0.56388  0.40827  1.0000
  C   C6979     1.0  0.96707  0.66864  0.44816  1.0000
  C   C6980     1.0  0.90971  0.68831  0.45819  1.0000
  H   H5578     1.0  0.95995  0.66104  0.33592  1.0000
  C   C6981     1.0  0.94138  0.65724  0.33153  1.0000
  P   P230      1.0  0.95126  0.66744  0.44336  1.0000
  H   H5579     1.0  0.93871  0.53742  0.38988  1.0000
  H   H5580     1.0  0.94369  0.69812  0.43049  1.0000
  H   H5581     1.0  0.96583  0.65893  0.41619  1.0000
  C   C6982     1.0  0.99379  0.52062  0.45344  1.0000
  H   H5582     1.0  0.90067  0.69531  0.45371  1.0000
  C   C6983     1.0  0.99950  0.64149  0.40536  1.0000
  C   C6984     1.0  0.96547  0.66649  0.27385  1.0000
  C   C6985     1.0  0.96649  0.68003  0.45410  1.0000
  H   H5583     1.0  0.90773  0.70296  0.42015  1.0000
  P   P231      1.0  0.98311  0.72524  0.41923  1.0000
  S   S940      1.0  0.92545  0.73416  0.42842  1.0000
  C   C6986     1.0  0.96914  0.72893  0.38315  1.0000
  C   C6987     1.0  0.93659  0.59585  0.26152  1.0000
  C   C6988     1.0  0.99330  0.66248  0.44478  1.0000
  H   H5584     1.0  0.86970  0.71427  0.44601  1.0000
  P   P232      1.0  0.97086  0.65116  0.28762  1.0000
  C   C6989     1.0  0.57812  0.73874  0.26777  1.0000
  C   C6990     1.0  0.99378  0.66281  0.28687  1.0000
  C   C6991     1.0  0.94723  0.55741  0.42219  1.0000
  H   H5585     1.0  0.92337  0.68580  0.43780  1.0000
  C   C6992     1.0  0.82878  0.70401  0.45103  1.0000
  C   C6993     1.0  0.95926  0.74050  0.40746  1.0000
  H   H5586     1.0  0.88658  0.70448  0.40544  1.0000
  C   C6994     1.0  0.94499  0.65182  0.30852  1.0000
  H   H5587     1.0  0.96050  0.61524  0.46405  1.0000
  C   C6995     1.0  0.82291  0.68886  0.43931  1.0000
  H   H5588     1.0  0.92876  0.61703  0.37116  1.0000
  C   C6996     1.0  0.87948  0.71446  0.40772  1.0000
  C   C6997     1.0  0.98538  0.61919  0.31898  1.0000
  H   H5589     1.0  0.95590  0.53806  0.43623  1.0000
  C   C6998     1.0  0.95677  0.63799  0.45491  1.0000
  C   C6999     1.0  0.97180  0.72275  0.43704  1.0000
  C   C7000     1.0  0.95379  0.67742  0.42512  1.0000
  C   C7001     1.0  0.99245  0.60668  0.31404  1.0000
  C   C7002     1.0  0.97560  0.67004  0.26106  1.0000
  H   H5590     1.0  0.93076  0.52380  0.37774  1.0000
  C   C7003     1.0  0.98986  0.56664  0.24490  1.0000
  H   H5591     1.0  0.97881  0.69166  0.45953  1.0000
  H   H5592     1.0  0.97015  0.60064  0.23697  1.0000
  C   C7004     1.0  0.99624  0.70846  0.41846  1.0000
  S   S941      1.0  0.92444  0.49422  0.24077  1.0000
  H   H5593     1.0  0.93488  0.63037  0.43221  1.0000
  H   H5594     1.0  0.97298  0.72454  0.37367  1.0000
  C   C7005     1.0  0.97617  0.72484  0.44835  1.0000
  C   C7006     1.0  0.92271  0.68317  0.44916  1.0000
  H   H5595     1.0  0.92225  0.61939  0.24180  1.0000
  C   C7007     1.0  0.86545  0.71660  0.46750  1.0000
  C   C7008     1.0  0.98672  0.58154  0.24038  1.0000
  C   C7009     1.0  0.93399  0.53852  0.35728  1.0000
  C   C7010     1.0  0.98695  0.60698  0.44251  1.0000
  C   C7011     1.0  0.86725  0.71432  0.41902  1.0000
  C   C7012     1.0  0.84730  0.72499  0.45305  1.0000
  H   H5596     1.0  0.99738  0.68874  0.48014  1.0000
  H   H5597     1.0  0.96271  0.63996  0.46148  1.0000
  C   C7013     1.0  0.93521  0.61116  0.27715  1.0000
  C   C7014     1.0  0.95304  0.70032  0.40811  1.0000
  C   C7015     1.0  0.95940  0.65347  0.30490  1.0000
  H   H5598     1.0  0.98158  0.57105  0.43945  1.0000
  C   C7016     1.0  0.91209  0.60492  0.38076  1.0000
  H   H5599     1.0  0.98286  0.61790  0.25550  1.0000
  C   C7017     1.0  0.82297  0.69246  0.45181  1.0000
  H   H5600     1.0  0.95903  0.62542  0.30438  1.0000
  S   S942      1.0  0.00179  0.58339  0.26616  1.0000
  H   H5601     1.0  0.96007  0.60305  0.29816  1.0000
  H   H5602     1.0  0.99614  0.55719  0.34390  1.0000
  H   H5603     1.0  0.94307  0.67241  0.28517  1.0000
  C   C7018     1.0  0.93319  0.67068  0.46968  1.0000
  C   C7019     1.0  0.95058  0.64923  0.44481  1.0000
  H   H5604     1.0  0.92862  0.57652  0.27216  1.0000
  C   C7020     1.0  0.98872  0.55464  0.40277  1.0000
  P   P233      1.0  0.84210  0.72703  0.43652  1.0000
  S   S943      1.0  0.97960  0.61824  0.37947  1.0000
  C   C7021     1.0  0.90843  0.68467  0.47296  1.0000
  C   C7022     1.0  0.92012  0.67574  0.47872  1.0000
  H   H5605     1.0  0.95623  0.68726  0.45722  1.0000
  C   C7023     1.0  0.98689  0.66332  0.34406  1.0000
  C   C7024     1.0  0.97581  0.56037  0.35931  1.0000
  H   H5606     1.0  0.96343  0.53570  0.39253  1.0000
  H   H5607     1.0  0.94577  0.72117  0.47446  1.0000
  Fe  Fe469     1.0  0.98707  0.50165  0.40025  1.0000
  H   H5608     1.0  0.94872  0.59588  0.37022  1.0000
  H   H5609     1.0  0.95286  0.54143  0.23691  1.0000
  C   C7025     1.0  0.97112  0.60931  0.27633  1.0000
  C   C7026     1.0  0.92641  0.60644  0.37515  1.0000
  H   H5610     1.0  0.99526  0.58731  0.23796  1.0000
  H   H5611     1.0  0.93742  0.62057  0.27873  1.0000
  Fe  Fe470     1.0  0.98810  0.56904  0.28269  1.0000
  H   H5612     1.0  0.91810  0.56856  0.38926  1.0000
  C   C7027     1.0  0.99487  0.57289  0.35549  1.0000
  H   H5613     1.0  0.99955  0.51344  0.37393  1.0000
  C   C7028     1.0  0.94233  0.64645  0.43697  1.0000
  C   C7029     1.0  0.99534  0.51436  0.24569  1.0000
  H   H5614     1.0  0.96588  0.52419  0.41730  1.0000
  C   C7030     1.0  0.93781  0.59432  0.37461  1.0000
  H   H5615     1.0  0.99074  0.58744  0.36926  1.0000
  H   H5616     1.0  0.94019  0.57513  0.40591  1.0000
  C   C7031     1.0  0.95999  0.53521  0.41480  1.0000
  C   C7032     1.0  0.96468  0.65699  0.31484  1.0000
  C   C7033     1.0  0.93497  0.58055  0.37963  1.0000
  H   H5617     1.0  0.96689  0.58243  0.38250  1.0000
  C   C7034     1.0  0.98861  0.50279  0.31305  1.0000
  C   C7035     1.0  0.93022  0.58637  0.27335  1.0000
  C   C7036     1.0  0.95118  0.67479  0.27554  1.0000
  C   C7037     1.0  0.99367  0.51649  0.36555  1.0000
  P   P234      1.0  0.94936  0.56455  0.37940  1.0000
  C   C7038     1.0  0.99270  0.62555  0.32469  1.0000
  C   C7039     1.0  0.93851  0.55115  0.34962  1.0000
  C   C7040     1.0  0.98319  0.58108  0.44018  1.0000
  C   C7041     1.0  0.83470  0.71198  0.43771  1.0000
  H   H5618     1.0  0.92586  0.60390  0.29944  1.0000
  C   C7042     1.0  0.92053  0.57910  0.38526  1.0000
  H   H5619     1.0  0.98973  0.63748  0.40834  1.0000
  C   C7043     1.0  0.97756  0.72486  0.39340  1.0000
  C   C7044     1.0  0.90775  0.57688  0.24440  1.0000
  S   S944      1.0  0.90276  0.72060  0.46763  1.0000
  H   H5620     1.0  0.94336  0.56363  0.43035  1.0000
  C   C7045     1.0  0.99440  0.64911  0.34421  1.0000
  C   C7046     1.0  0.90914  0.59124  0.38581  1.0000
  C   C7047     1.0  0.96087  0.69329  0.39710  1.0000
  C   C7048     1.0  0.95846  0.54171  0.40082  1.0000
  C   C7049     1.0  0.96389  0.62431  0.29351  1.0000
  H   H5621     1.0  0.92168  0.58186  0.29613  1.0000
  H   H5622     1.0  0.98835  0.61705  0.44336  1.0000
  C   C7050     1.0  0.94371  0.55391  0.37091  1.0000
  H   H5623     1.0  0.93842  0.55501  0.33837  1.0000
  H   H5624     1.0  0.94687  0.61032  0.44925  1.0000
  H   H5625     1.0  0.97216  0.55238  0.35666  1.0000
  H   H5626     1.0  0.94658  0.56869  0.35036  1.0000
  H   H5627     1.0  0.98646  0.72772  0.44657  1.0000
  C   C7051     1.0  0.96533  0.67836  0.40007  1.0000
  H   H5628     1.0  0.93705  0.65506  0.42947  1.0000
  C   C7052     1.0  0.97292  0.57721  0.37377  1.0000
  H   H5629     1.0  0.93052  0.53245  0.35195  1.0000
  H   H5630     1.0  0.93856  0.71584  0.45510  1.0000
  Fe  Fe471     1.0  0.97605  0.64018  0.38340  1.0000
  H   H5631     1.0  0.87654  0.71169  0.46855  1.0000
  C   C7053     1.0  0.96130  0.58162  0.24338  1.0000
  C   C7054     1.0  0.94092  0.63247  0.43864  1.0000
  C   C7055     1.0  0.95083  0.55599  0.39753  1.0000
  C   C7056     1.0  0.93932  0.60813  0.26356  1.0000
  H   H5632     1.0  0.98662  0.63470  0.32919  1.0000
  H   H5633     1.0  0.98572  0.68540  0.33313  1.0000
  H   H5634     1.0  0.86510  0.70411  0.42547  1.0000
  C   C7057     1.0  0.95533  0.62401  0.45658  1.0000
  C   C7058     1.0  0.93465  0.67463  0.45482  1.0000
  H   H5635     1.0  0.89804  0.59003  0.39016  1.0000
  H   H5636     1.0  0.97773  0.66574  0.35271  1.0000
  C   C7059     1.0  0.95848  0.71888  0.43969  1.0000
  C   C7060     1.0  0.95568  0.65888  0.32807  1.0000
  C   C7061     1.0  0.96448  0.61148  0.29008  1.0000
  H   H5637     1.0  0.98661  0.60142  0.31011  1.0000
  H   H5638     1.0  0.92505  0.65209  0.32463  1.0000
  H   H5639     1.0  0.96323  0.69937  0.38621  1.0000
  Fe  Fe472     1.0  0.91150  0.51686  0.23807  1.0000
  C   C7062     1.0  0.95330  0.72095  0.46424  1.0000
  C   C7063     1.0  0.83441  0.70841  0.42519  1.0000
  H   H5640     1.0  0.96987  0.72653  0.47039  1.0000
  H   H5641     1.0  0.89843  0.68893  0.47991  1.0000
  H   H5642     1.0  0.96033  0.51175  0.26386  1.0000
  C   C7064     1.0  0.97877  0.55920  0.24873  1.0000
  H   H5643     1.0  0.97821  0.55638  0.40050  1.0000
  H   H5644     1.0  0.93614  0.69290  0.26616  1.0000
  C   C7065     1.0  0.82861  0.69686  0.42601  1.0000
  H   H5645     1.0  0.98805  0.71758  0.39148  1.0000
  H   H5646     1.0  0.95508  0.71688  0.43120  1.0000
  H   H5647     1.0  0.83873  0.71455  0.41479  1.0000
  C   C7066     1.0  0.99265  0.69712  0.41544  1.0000
  C   C7067     1.0  0.96450  0.56665  0.24810  1.0000
  C   C7068     1.0  0.95573  0.73864  0.38513  1.0000
  C   C7069     1.0  0.96689  0.72402  0.46190  1.0000
  P   P235      1.0  0.94274  0.59150  0.24417  1.0000
  C   C7070     1.0  0.98961  0.58134  0.45097  1.0000
  C   C7071     1.0  0.99271  0.67395  0.45045  1.0000
  C   C7072     1.0  0.00012  0.63755  0.28661  1.0000
  H   H5648     1.0  0.98580  0.67281  0.28730  1.0000
  C   C7073     1.0  0.97929  0.68264  0.45528  1.0000
  C   C7074     1.0  0.99145  0.67440  0.33305  1.0000
  H   H5649     1.0  0.94013  0.51153  0.25366  1.0000
  C   C7075     1.0  0.97247  0.58904  0.23982  1.0000
  H   H5650     1.0  0.81608  0.73527  0.42423  1.0000
  H   H5651     1.0  0.98115  0.54769  0.25267  1.0000
  S   S945      1.0  0.91253  0.53228  0.25077  1.0000
  C   C7076     1.0  0.99132  0.59436  0.45225  1.0000
  H   H5652     1.0  0.94487  0.61523  0.25474  1.0000
  C   C7077     1.0  0.98980  0.55377  0.41659  1.0000
  C   C7078     1.0  0.98955  0.56298  0.35208  1.0000
  H   H5653     1.0  0.99137  0.65030  0.47292  1.0000
  S   S946      1.0  0.98327  0.52035  0.44206  1.0000
  H   H5654     1.0  0.95596  0.56074  0.25174  1.0000
  H   H5655     1.0  0.82592  0.73505  0.46366  1.0000
  Fe  Fe473     1.0  0.98737  0.54482  0.30876  1.0000
  H   H5656     1.0  0.59583  0.72349  0.27609  1.0000
  C   C7079     1.0  0.85800  0.72725  0.42198  1.0000
  H   H5657     1.0  0.81854  0.68626  0.46212  1.0000
  S   S947      1.0  0.89167  0.73268  0.43135  1.0000
  H   H5658     1.0  0.00080  0.56094  0.24596  1.0000
  H   H5659     1.0  0.99718  0.54288  0.47206  1.0000
  Fe  Fe474     1.0  0.99344  0.50607  0.42642  1.0000
  C   C7080     1.0  0.59189  0.72957  0.26657  1.0000
  H   H5660     1.0  0.89628  0.57842  0.24948  1.0000
  H   H5661     1.0  0.98677  0.62806  0.47058  1.0000
  S   S948      1.0  0.99860  0.59528  0.46602  1.0000
  C   C7081     1.0  0.91659  0.58396  0.24737  1.0000
  C   C7082     1.0  0.93154  0.58160  0.24115  1.0000
  H   H5662     1.0  0.89240  0.72756  0.39091  1.0000
  H   H5663     1.0  0.98454  0.50274  0.29306  1.0000
  H   H5664     1.0  0.99731  0.62771  0.28692  1.0000
  Fe  Fe475     1.0  0.91163  0.73460  0.41385  1.0000
  C   C7083     1.0  0.95734  0.68999  0.25210  1.0000
  C   C7084     1.0  0.91624  0.73832  0.47307  1.0000
  H   H5665     1.0  0.91171  0.59127  0.25448  1.0000
  C   C7085     1.0  0.99151  0.74014  0.41587  1.0000
  H   H5666     1.0  0.00041  0.67583  0.41128  1.0000
  H   H5667     1.0  0.99297  0.57153  0.45844  1.0000
  C   C7086     1.0  0.90790  0.72796  0.47889  1.0000
  H   H5668     1.0  0.52935  0.73262  0.25006  1.0000
  S   S949      1.0  0.98023  0.49250  0.42361  1.0000
  C   C7087     1.0  0.85516  0.72155  0.47890  1.0000
  C   C7088     1.0  0.60060  0.72825  0.25309  1.0000
  C   C7089     1.0  0.98570  0.62987  0.48106  1.0000
  C   C7090     1.0  0.00122  0.55303  0.39193  1.0000
  C   C7091     1.0  0.98843  0.64238  0.48242  1.0000
  C   C7092     1.0  0.86133  0.74029  0.41356  1.0000
  C   C7093     1.0  0.99903  0.53323  0.46828  1.0000
  H   H5669     1.0  0.00037  0.55305  0.38140  1.0000
  S   S950      1.0  0.99849  0.51673  0.40325  1.0000
  H   H5670     1.0  0.61127  0.72112  0.25215  1.0000
  C   C7094     1.0  0.99492  0.50534  0.23745  1.0000
  H   H5671     1.0  0.99615  0.71448  0.48028  1.0000
  C   C7095     1.0  0.59556  0.73612  0.24080  1.0000
  H   H5672     1.0  0.98457  0.50483  0.23600  1.0000
  C   C7096     1.0  0.52199  0.74107  0.24440  1.0000
  H   H5673     1.0  0.94523  0.71632  0.58775  1.0000
  C   C7097     1.0  0.00067  0.56684  0.64692  1.0000
  C   C7098     1.0  0.98725  0.58235  0.58617  1.0000
  Fe  Fe476     1.0  0.99116  0.64268  0.60567  1.0000
  S   S951      1.0  0.97496  0.66363  0.60659  1.0000
  S   S952      1.0  0.99300  0.62135  0.62125  1.0000
  C   C7099     1.0  0.82265  0.56956  0.71204  1.0000
  S   S953      1.0  0.99391  0.67593  0.57428  1.0000
  C   C7100     1.0  0.99273  0.71992  0.56849  1.0000
  C   C7101     1.0  0.97772  0.57511  0.63962  1.0000
  C   C7102     1.0  0.94874  0.69674  0.49653  1.0000
  Fe  Fe477     1.0  0.97561  0.66448  0.58378  1.0000
  S   S954      1.0  0.95596  0.67007  0.57449  1.0000
  S   S955      1.0  0.95380  0.61927  0.68354  1.0000
  S   S956      1.0  0.99001  0.64267  0.58364  1.0000
  C   C7103     1.0  0.95392  0.63322  0.60534  1.0000
  H   H5674     1.0  0.99059  0.67372  0.68243  1.0000
  C   C7104     1.0  0.99182  0.52165  0.69619  1.0000
  H   H5675     1.0  0.98772  0.63397  0.66646  1.0000
  C   C7105     1.0  0.99307  0.53918  0.70802  1.0000
  C   C7106     1.0  0.99498  0.60795  0.69545  1.0000
  C   C7107     1.0  0.99315  0.72981  0.54335  1.0000
  C   C7108     1.0  0.99418  0.49821  0.59346  1.0000
  S   S957      1.0  0.97243  0.54750  0.69238  1.0000
  C   C7109     1.0  0.95600  0.55656  0.61846  1.0000
  C   C7110     1.0  0.98739  0.71850  0.50141  1.0000
  H   H5676     1.0  0.80523  0.56655  0.73057  1.0000
  C   C7111     1.0  0.94207  0.56320  0.61608  1.0000
  S   S958      1.0  0.97977  0.58207  0.69782  1.0000
  H   H5677     1.0  0.99692  0.51361  0.57343  1.0000
  H   H5678     1.0  0.97217  0.66034  0.52605  1.0000
  Fe  Fe478     1.0  0.94357  0.57980  0.72579  1.0000
  C   C7112     1.0  0.95038  0.68472  0.49121  1.0000
  H   H5679     1.0  0.90392  0.57083  0.72305  1.0000
  C   C7113     1.0  0.90391  0.72328  0.49375  1.0000
  H   H5680     1.0  0.97450  0.49398  0.71361  1.0000
  H   H5681     1.0  0.96794  0.70927  0.55852  1.0000
  C   C7114     1.0  0.81690  0.56491  0.72658  1.0000
  H   H5682     1.0  0.87950  0.58677  0.72296  1.0000
  C   C7115     1.0  0.83770  0.56736  0.70687  1.0000
  H   H5683     1.0  0.95935  0.60200  0.63812  1.0000
  C   C7116     1.0  0.95784  0.61051  0.62884  1.0000
  C   C7117     1.0  0.92986  0.71565  0.57645  1.0000
  H   H5684     1.0  0.94204  0.64605  0.62078  1.0000
  H   H5685     1.0  0.96686  0.52005  0.72210  1.0000
  H   H5686     1.0  0.89738  0.71532  0.49828  1.0000
  H   H5687     1.0  0.94524  0.62582  0.64164  1.0000
  S   S959      1.0  0.92047  0.73350  0.57659  1.0000
  C   C7118     1.0  0.94758  0.58650  0.61149  1.0000
  S   S960      1.0  0.90008  0.73379  0.54685  1.0000
  C   C7119     1.0  0.94178  0.69823  0.53591  1.0000
  H   H5688     1.0  0.92338  0.52619  0.71750  1.0000
  C   C7120     1.0  0.94555  0.68734  0.57598  1.0000
  C   C7121     1.0  0.93316  0.69292  0.57023  1.0000
  C   C7122     1.0  0.92545  0.70711  0.57028  1.0000
  H   H5689     1.0  0.94494  0.73280  0.52667  1.0000
  C   C7123     1.0  0.94189  0.70983  0.58278  1.0000
  C   C7124     1.0  0.94977  0.69572  0.58248  1.0000
  H   H5690     1.0  0.92962  0.68633  0.56556  1.0000
  H   H5691     1.0  0.91598  0.71137  0.56572  1.0000
  H   H5692     1.0  0.81543  0.57484  0.70477  1.0000
  H   H5693     1.0  0.95916  0.69138  0.58719  1.0000
  H   H5694     1.0  0.94161  0.68372  0.48732  1.0000
  C   C7125     1.0  0.93805  0.71314  0.53178  1.0000
  C   C7126     1.0  0.93049  0.50764  0.73326  1.0000
  H   H5695     1.0  0.99038  0.60450  0.70672  1.0000
  C   C7127     1.0  0.99287  0.70188  0.64002  1.0000
  C   C7128     1.0  0.98199  0.61940  0.49321  1.0000
  S   S961      1.0  0.96359  0.56233  0.72716  1.0000
  C   C7129     1.0  0.99836  0.72835  0.55544  1.0000
  H   H5696     1.0  0.97719  0.70686  0.57971  1.0000
  H   H5697     1.0  0.97710  0.62600  0.69213  1.0000
  H   H5698     1.0  0.95927  0.54497  0.62111  1.0000
  C   C7130     1.0  0.97447  0.67530  0.49634  1.0000
  H   H5699     1.0  0.90533  0.72527  0.51424  1.0000
  C   C7131     1.0  0.96453  0.61977  0.66618  1.0000
  C   C7132     1.0  0.97380  0.60731  0.66232  1.0000
  C   C7133     1.0  0.98267  0.60798  0.64856  1.0000
  C   C7134     1.0  0.98222  0.62106  0.63856  1.0000
  C   C7135     1.0  0.97299  0.63354  0.64241  1.0000
  C   C7136     1.0  0.96410  0.63288  0.65619  1.0000
  H   H5700     1.0  0.97411  0.59715  0.66991  1.0000
  H   H5701     1.0  0.98976  0.59833  0.64562  1.0000
  H   H5702     1.0  0.97254  0.64365  0.63473  1.0000
  H   H5703     1.0  0.95693  0.64254  0.65915  1.0000
  C   C7137     1.0  0.98679  0.53530  0.69920  1.0000
  H   H5704     1.0  0.98126  0.68879  0.50568  1.0000
  C   C7138     1.0  0.99955  0.58124  0.62312  1.0000
  H   H5705     1.0  0.93453  0.55676  0.61692  1.0000
  Fe  Fe479     1.0  0.95832  0.59797  0.69884  1.0000
  Fe  Fe480     1.0  0.99449  0.67351  0.59712  1.0000
  C   C7139     1.0  0.96318  0.67401  0.49111  1.0000
  P   P236      1.0  0.97428  0.59056  0.61230  1.0000
  H   H5706     1.0  0.96615  0.57561  0.64223  1.0000
  H   H5707     1.0  0.98295  0.63528  0.51869  1.0000
  H   H5708     1.0  0.95250  0.64210  0.59625  1.0000
  H   H5709     1.0  0.98038  0.56257  0.66054  1.0000
  H   H5710     1.0  0.99535  0.71551  0.66654  1.0000
  H   H5711     1.0  0.97955  0.66013  0.70568  1.0000
  C   C7140     1.0  0.99938  0.50985  0.58393  1.0000
  C   C7141     1.0  0.96226  0.71446  0.53199  1.0000
  H   H5712     1.0  0.93375  0.69203  0.53772  1.0000
  H   H5713     1.0  0.97654  0.55960  0.61911  1.0000
  C   C7142     1.0  0.84132  0.55599  0.73090  1.0000
  H   H5714     1.0  0.99372  0.53178  0.61900  1.0000
  C   C7143     1.0  0.96151  0.57991  0.61408  1.0000
  P   P237      1.0  0.99065  0.66110  0.49738  1.0000
  H   H5715     1.0  0.85866  0.55881  0.71202  1.0000
  C   C7144     1.0  0.94796  0.63545  0.61917  1.0000
  C   C7145     1.0  0.98458  0.58185  0.62601  1.0000
  H   H5716     1.0  0.98693  0.51860  0.68942  1.0000
  H   H5717     1.0  0.85304  0.53040  0.72303  1.0000
  H   H5718     1.0  0.98018  0.60957  0.49208  1.0000
  C   C7146     1.0  0.93788  0.57815  0.61257  1.0000
  H   H5719     1.0  0.94415  0.59807  0.60868  1.0000
  Fe  Fe481     1.0  0.97528  0.58021  0.72151  1.0000
  H   H5720     1.0  0.95827  0.67990  0.54212  1.0000
  H   H5721     1.0  0.84215  0.57092  0.69559  1.0000
  C   C7147     1.0  0.99617  0.64080  0.70449  1.0000
  C   C7148     1.0  0.96595  0.69944  0.53617  1.0000
  H   H5722     1.0  0.92722  0.71846  0.53012  1.0000
  H   H5723     1.0  0.98942  0.54978  0.71010  1.0000
  C   C7149     1.0  0.98375  0.63399  0.50811  1.0000
  H   H5724     1.0  0.98131  0.57391  0.59004  1.0000
  C   C7150     1.0  0.95676  0.51644  0.72532  1.0000
  C   C7151     1.0  0.95567  0.69140  0.53824  1.0000
  C   C7152     1.0  0.88054  0.57528  0.72668  1.0000
  C   C7153     1.0  0.94819  0.72126  0.52988  1.0000
  H   H5725     1.0  0.93867  0.70487  0.49693  1.0000
  C   C7154     1.0  0.98105  0.62145  0.50672  1.0000
  C   C7155     1.0  0.89432  0.56630  0.72660  1.0000
  S   S962      1.0  0.95486  0.59751  0.72208  1.0000
  H   H5726     1.0  0.92711  0.58331  0.61066  1.0000
  C   C7156     1.0  0.98245  0.72262  0.54416  1.0000
  H   H5727     1.0  0.99723  0.65683  0.65082  1.0000
  C   C7157     1.0  0.97661  0.71445  0.55739  1.0000
  C   C7158     1.0  0.94533  0.52444  0.71873  1.0000
  C   C7159     1.0  0.98755  0.62009  0.68726  1.0000
  H   H5728     1.0  0.94670  0.53410  0.71058  1.0000
  S   S963      1.0  0.94516  0.58173  0.70258  1.0000
  C   C7160     1.0  0.98575  0.56765  0.65002  1.0000
  C   C7161     1.0  0.99077  0.71179  0.64827  1.0000
  C   C7162     1.0  0.96181  0.61963  0.60323  1.0000
  C   C7163     1.0  0.94975  0.62406  0.63089  1.0000
  H   H5729     1.0  0.98193  0.53728  0.64280  1.0000
  C   C7164     1.0  0.96413  0.60820  0.61498  1.0000
  H   H5730     1.0  0.97651  0.72309  0.49955  1.0000
  H   H5731     1.0  0.97666  0.69397  0.53809  1.0000
  C   C7165     1.0  0.98617  0.59181  0.59470  1.0000
  C   C7166     1.0  0.98324  0.65928  0.52674  1.0000
  C   C7167     1.0  0.96572  0.56488  0.61739  1.0000
  C   C7168     1.0  0.98176  0.71313  0.56948  1.0000
  Fe  Fe482     1.0  0.96623  0.56576  0.70347  1.0000
  H   H5732     1.0  0.96611  0.61816  0.59241  1.0000
  C   C7169     1.0  0.99336  0.53216  0.64044  1.0000
  C   C7170     1.0  0.93221  0.52002  0.72266  1.0000
  P   P238      1.0  0.97588  0.72468  0.52838  1.0000
  C   C7171     1.0  0.98961  0.65506  0.69939  1.0000
  H   H5733     1.0  0.98454  0.72259  0.64528  1.0000
  H   H5734     1.0  0.96410  0.66473  0.48710  1.0000
  C   C7172     1.0  0.99352  0.62456  0.67276  1.0000
  H   H5735     1.0  0.99370  0.60984  0.59569  1.0000
  C   C7173     1.0  0.84702  0.56056  0.71624  1.0000
  H   H5736     1.0  0.98838  0.70499  0.63058  1.0000
  C   C7174     1.0  0.99595  0.66275  0.68616  1.0000
  C   C7175     1.0  0.96005  0.69829  0.50138  1.0000
  C   C7176     1.0  0.90834  0.72894  0.50276  1.0000
  C   C7177     1.0  0.99420  0.60254  0.58924  1.0000
  H   H5737     1.0  0.91901  0.67281  0.49019  1.0000
  H   H5738     1.0  0.86210  0.50483  0.72255  1.0000
  H   H5739     1.0  0.99666  0.71875  0.57794  1.0000
  C   C7178     1.0  0.99035  0.71789  0.51452  1.0000
  H   H5740     1.0  0.99810  0.54786  0.52935  1.0000
  C   C7179     1.0  0.99684  0.70778  0.66024  1.0000
  H   H5741     1.0  0.99626  0.53120  0.66129  1.0000
  H   H5742     1.0  0.99277  0.50583  0.51743  1.0000
  S   S964      1.0  0.99667  0.69259  0.60342  1.0000
  H   H5743     1.0  0.97723  0.65838  0.54944  1.0000
  C   C7180     1.0  0.86277  0.50865  0.73141  1.0000
  C   C7181     1.0  0.98753  0.64456  0.49593  1.0000
  C   C7182     1.0  0.97281  0.68758  0.50143  1.0000
  C   C7183     1.0  0.85762  0.52318  0.73176  1.0000
  H   H5744     1.0  0.99122  0.63482  0.71470  1.0000
  H   H5745     1.0  0.95870  0.70768  0.50542  1.0000
  C   C7184     1.0  0.86816  0.56948  0.73156  1.0000
  C   C7185     1.0  0.99604  0.58376  0.57237  1.0000
  C   C7186     1.0  0.98602  0.65822  0.53999  1.0000
  H   H5746     1.0  0.85833  0.72049  0.48874  1.0000
  S   S965      1.0  0.99133  0.58099  0.73351  1.0000
  C   C7187     1.0  0.91708  0.73898  0.49687  1.0000
  H   H5747     1.0  0.83302  0.73213  0.48628  1.0000
  C   C7188     1.0  0.99463  0.65904  0.51452  1.0000
  H   H5748     1.0  0.97833  0.61323  0.51612  1.0000
  H   H5749     1.0  0.99692  0.57641  0.56585  1.0000
  H   H5750     1.0  0.85761  0.57663  0.73130  1.0000
  H   H5751     1.0  0.90645  0.54460  0.73153  1.0000
  C   C7189     1.0  0.89574  0.55150  0.73137  1.0000
  C   C7190     1.0  0.00014  0.65704  0.54111  1.0000
  H   H5752     1.0  0.99741  0.73658  0.53337  1.0000
  C   C7191     1.0  0.99846  0.71345  0.49052  1.0000
  C   C7192     1.0  0.00008  0.52903  0.62700  1.0000
  H   H5753     1.0  0.00074  0.64293  0.63275  1.0000
  C   C7193     1.0  0.99743  0.49330  0.60697  1.0000
  C   C7194     1.0  0.00098  0.68794  0.64375  1.0000
  C   C7195     1.0  0.99779  0.49450  0.51988  1.0000
  C   C7196     1.0  0.00141  0.52873  0.65087  1.0000
  H   H5754     1.0  0.98779  0.49285  0.59034  1.0000
  H   H5755     1.0  0.99041  0.49219  0.54266  1.0000
  Fe  Fe483     1.0  0.70578  0.56289  0.94551  1.0000
  S   S966      1.0  0.72528  0.56209  0.95306  1.0000
  S   S967      1.0  0.70245  0.54330  0.94118  1.0000
  Fe  Fe484     1.0  0.69341  0.59427  0.94626  1.0000
  S   S968      1.0  0.71202  0.59633  0.95394  1.0000
  S   S969      1.0  0.67199  0.60962  0.94402  1.0000
  Fe  Fe485     1.0  0.72581  0.58325  0.93775  1.0000
  S   S970      1.0  0.74799  0.58560  0.92432  1.0000
  H   H5756     1.0  0.80773  0.52118  0.93687  1.0000
  C   C7197     1.0  0.86946  0.55460  0.73657  1.0000
  S   S971      1.0  0.70734  0.58313  0.92881  1.0000
  S   S972      1.0  0.69058  0.57392  0.96224  1.0000
  Fe  Fe486     1.0  0.64149  0.68139  0.95990  1.0000
  S   S973      1.0  0.63598  0.70238  0.96619  1.0000
  S   S974      1.0  0.66432  0.67318  0.94857  1.0000
  C   C7198     1.0  0.52894  0.70831  0.85084  1.0000
  C   C7199     1.0  0.61637  0.58254  0.97006  1.0000
  Fe  Fe487     1.0  0.61117  0.67622  0.97334  1.0000
  Fe  Fe488     1.0  0.61507  0.70623  0.95952  1.0000
  S   S975      1.0  0.60601  0.72732  0.94606  1.0000
  C   C7200     1.0  0.86280  0.53164  0.87979  1.0000
  C   C7201     1.0  0.69148  0.66237  0.97904  1.0000
  S   S976      1.0  0.62164  0.68620  0.95111  1.0000
  H   H5757     1.0  0.90686  0.53379  0.76789  1.0000
  C   C7202     1.0  0.68170  0.67531  0.97536  1.0000
  C   C7203     1.0  0.51438  0.70735  0.85468  1.0000
  H   H5758     1.0  0.68919  0.68457  0.87463  1.0000
  S   S977      1.0  0.58062  0.72019  0.86778  1.0000
  H   H5759     1.0  0.99367  0.50090  0.77816  1.0000
  H   H5760     1.0  0.63811  0.71889  0.93706  1.0000
  H   H5761     1.0  0.50820  0.70201  0.96685  1.0000
  C   C7204     1.0  0.97413  0.49633  0.88969  1.0000
  S   S978      1.0  0.92982  0.51636  0.78189  1.0000
  S   S979      1.0  0.57142  0.71414  0.90887  1.0000
  H   H5762     1.0  0.58298  0.73902  0.90571  1.0000
  C   C7205     1.0  0.99902  0.51441  0.74824  1.0000
  C   C7206     1.0  0.52224  0.70879  0.93442  1.0000
  P   P239      1.0  0.76839  0.54519  0.97154  1.0000
  H   H5763     1.0  0.78857  0.56457  0.95726  1.0000
  C   C7207     1.0  0.97796  0.50645  0.74789  1.0000
  C   C7208     1.0  0.66885  0.66361  0.90542  1.0000
  H   H5764     1.0  0.54261  0.57812  0.96121  1.0000
  C   C7209     1.0  0.56178  0.65331  0.93938  1.0000
  C   C7210     1.0  0.54833  0.66743  0.96711  1.0000
  S   S980      1.0  0.81240  0.50460  0.90990  1.0000
  H   H5765     1.0  0.86610  0.52208  0.76286  1.0000
  C   C7211     1.0  0.55232  0.69144  0.95568  1.0000
  Fe  Fe489     1.0  0.80179  0.52239  0.89408  1.0000
  S   S981      1.0  0.81837  0.53562  0.88912  1.0000
  S   S982      1.0  0.77750  0.52978  0.89954  1.0000
  C   C7212     1.0  0.78540  0.54359  0.95834  1.0000
  H   H5766     1.0  0.53262  0.74002  0.82956  1.0000
  C   C7213     1.0  0.66376  0.65100  0.91153  1.0000
  Fe  Fe490     1.0  0.82998  0.51683  0.90321  1.0000
  H   H5767     1.0  0.68268  0.67441  0.92024  1.0000
  Fe  Fe491     1.0  0.82983  0.52351  0.87183  1.0000
  S   S983      1.0  0.84354  0.53428  0.85190  1.0000
  C   C7214     1.0  0.79268  0.55492  0.95314  1.0000
  S   S984      1.0  0.81222  0.51189  0.87530  1.0000
  C   C7215     1.0  0.96547  0.49264  0.90330  1.0000
  C   C7216     1.0  0.73805  0.52486  0.95937  1.0000
  C   C7217     1.0  0.90586  0.51023  0.84870  1.0000
  C   C7218     1.0  0.87260  0.52108  0.87305  1.0000
  S   S985      1.0  0.89675  0.51052  0.76821  1.0000
  H   H5768     1.0  0.88698  0.57563  0.76258  1.0000
  Fe  Fe492     1.0  0.88153  0.50304  0.78875  1.0000
  S   S986      1.0  0.85780  0.51310  0.79477  1.0000
  H   H5769     1.0  0.96924  0.51664  0.78240  1.0000
  P   P240      1.0  0.85334  0.54719  0.74301  1.0000
  H   H5770     1.0  0.76546  0.54237  0.94389  1.0000
  C   C7219     1.0  0.79117  0.53122  0.95271  1.0000
  H   H5771     1.0  0.94709  0.53745  0.77366  1.0000
  C   C7220     1.0  0.70073  0.52974  0.95673  1.0000
  S   S987      1.0  0.60305  0.69669  0.98120  1.0000
  H   H5772     1.0  0.68878  0.70922  0.88357  1.0000
  H   H5773     1.0  0.68888  0.68648  0.84959  1.0000
  H   H5774     1.0  0.56575  0.67845  0.98573  1.0000
  C   C7221     1.0  0.83211  0.51466  0.95927  1.0000
  C   C7222     1.0  0.52309  0.72652  0.86449  1.0000
  C   C7223     1.0  0.80513  0.55412  0.94209  1.0000
  C   C7224     1.0  0.70305  0.68058  0.91478  1.0000
  C   C7225     1.0  0.84755  0.52733  0.83667  1.0000
  C   C7226     1.0  0.86086  0.52815  0.82698  1.0000
  C   C7227     1.0  0.86411  0.52349  0.81426  1.0000
  C   C7228     1.0  0.85387  0.51844  0.81095  1.0000
  C   C7229     1.0  0.84039  0.51792  0.82047  1.0000
  C   C7230     1.0  0.83729  0.52217  0.83345  1.0000
  H   H5775     1.0  0.86860  0.53252  0.82929  1.0000
  H   H5776     1.0  0.87431  0.52438  0.80674  1.0000
  H   H5777     1.0  0.83243  0.51407  0.81790  1.0000
  H   H5778     1.0  0.82691  0.52172  0.84084  1.0000
  C   C7231     1.0  0.92438  0.56112  0.75327  1.0000
  C   C7232     1.0  0.93646  0.55545  0.75948  1.0000
  C   C7233     1.0  0.93784  0.54185  0.76875  1.0000
  C   C7234     1.0  0.92738  0.53383  0.77144  1.0000
  C   C7235     1.0  0.91517  0.53970  0.76553  1.0000
  C   C7236     1.0  0.91370  0.55333  0.75651  1.0000
  H   H5779     1.0  0.94461  0.56160  0.75722  1.0000
  H   H5780     1.0  0.85161  0.53483  0.87871  1.0000
  C   C7237     1.0  0.96903  0.51936  0.75122  1.0000
  C   C7238     1.0  0.73593  0.52580  0.97350  1.0000
  H   H5781     1.0  0.69629  0.54367  0.97116  1.0000
  H   H5782     1.0  0.93441  0.52435  0.82692  1.0000
  H   H5783     1.0  0.68305  0.68139  0.96440  1.0000
  H   H5784     1.0  0.73095  0.52014  0.95647  1.0000
  S   S988      1.0  0.59643  0.66154  0.97613  1.0000
  H   H5785     1.0  0.51107  0.69992  0.85086  1.0000
  H   H5786     1.0  0.63025  0.66491  0.92979  1.0000
  C   C7239     1.0  0.56626  0.65181  0.92522  1.0000
  H   H5787     1.0  0.63903  0.68716  0.91900  1.0000
  H   H5788     1.0  0.82723  0.52599  0.95831  1.0000
  Fe  Fe493     1.0  0.91314  0.50485  0.78187  1.0000
  C   C7240     1.0  0.98565  0.49759  0.78756  1.0000
  P   P241      1.0  0.54324  0.65160  0.96634  1.0000
  C   C7241     1.0  0.54497  0.64277  0.92818  1.0000
  C   C7242     1.0  0.50299  0.64208  0.98147  1.0000
  C   C7243     1.0  0.75433  0.57273  0.96002  1.0000
  H   H5789     1.0  0.78578  0.52237  0.95652  1.0000
  H   H5790     1.0  0.96833  0.54011  0.75428  1.0000
  C   C7244     1.0  0.66652  0.69517  0.88032  1.0000
  S   S989      1.0  0.84293  0.51966  0.91698  1.0000
  C   C7245     1.0  0.71169  0.68986  0.90550  1.0000
  C   C7246     1.0  0.52984  0.72365  0.96226  1.0000
  H   H5791     1.0  0.83876  0.52943  0.76938  1.0000
  C   C7247     1.0  0.59506  0.72457  0.93648  1.0000
  C   C7248     1.0  0.58961  0.71215  0.94094  1.0000
  C   C7249     1.0  0.58185  0.70938  0.93264  1.0000
  C   C7250     1.0  0.57975  0.71885  0.91972  1.0000
  C   C7251     1.0  0.58471  0.73156  0.91553  1.0000
  C   C7252     1.0  0.59236  0.73443  0.92393  1.0000
  H   H5792     1.0  0.59146  0.70460  0.95075  1.0000
  H   H5793     1.0  0.57775  0.69974  0.93612  1.0000
  C   C7253     1.0  0.91895  0.51490  0.84449  1.0000
  H   H5794     1.0  0.82238  0.55810  0.79788  1.0000
  H   H5795     1.0  0.57633  0.65461  0.91866  1.0000
  H   H5796     1.0  0.81167  0.50843  0.96661  1.0000
  H   H5797     1.0  0.64338  0.70660  0.85759  1.0000
  C   C7254     1.0  0.74887  0.53066  0.94884  1.0000
  H   H5798     1.0  0.60337  0.59553  0.95502  1.0000
  C   C7255     1.0  0.59521  0.53372  0.98342  1.0000
  H   H5799     1.0  0.67973  0.66303  0.89881  1.0000
  C   C7256     1.0  0.64185  0.71970  0.92566  1.0000
  H   H5800     1.0  0.72709  0.52185  0.98153  1.0000
  S   S990      1.0  0.84257  0.50569  0.88565  1.0000
  C   C7257     1.0  0.65999  0.67683  0.90795  1.0000
  C   C7258     1.0  0.87002  0.50395  0.75371  1.0000
  H   H5801     1.0  0.82153  0.55449  0.74720  1.0000
  H   H5802     1.0  0.81990  0.54155  0.92741  1.0000
  C   C7259     1.0  0.75647  0.57002  0.91761  1.0000
  C   C7260     1.0  0.74803  0.56136  0.91658  1.0000
  C   C7261     1.0  0.75465  0.54912  0.91095  1.0000
  C   C7262     1.0  0.76979  0.54522  0.90662  1.0000
  C   C7263     1.0  0.77833  0.55367  0.90794  1.0000
  C   C7264     1.0  0.77166  0.56615  0.91331  1.0000
  H   H5803     1.0  0.73632  0.56420  0.91989  1.0000
  H   H5804     1.0  0.74798  0.54263  0.90999  1.0000
  H   H5805     1.0  0.79003  0.55071  0.90470  1.0000
  H   H5806     1.0  0.77824  0.57276  0.91419  1.0000
  C   C7265     1.0  0.67027  0.62696  0.94592  1.0000
  C   C7266     1.0  0.68236  0.63309  0.94208  1.0000
  C   C7267     1.0  0.68053  0.64732  0.94295  1.0000
  C   C7268     1.0  0.66665  0.65533  0.94781  1.0000
  C   C7269     1.0  0.65464  0.64905  0.95201  1.0000
  C   C7270     1.0  0.65644  0.63491  0.95098  1.0000
  H   H5807     1.0  0.69305  0.62694  0.93819  1.0000
  H   H5808     1.0  0.68985  0.65211  0.93985  1.0000
  H   H5809     1.0  0.64392  0.65515  0.95582  1.0000
  H   H5810     1.0  0.64711  0.63013  0.95408  1.0000
  C   C7271     1.0  0.69276  0.70106  0.89219  1.0000
  C   C7272     1.0  0.57892  0.54956  0.95790  1.0000
  H   H5811     1.0  0.87504  0.49651  0.76206  1.0000
  H   H5812     1.0  0.64594  0.64169  0.92498  1.0000
  H   H5813     1.0  0.81459  0.55347  0.83544  1.0000
  H   H5814     1.0  0.51348  0.67823  0.93375  1.0000
  H   H5815     1.0  0.66605  0.69758  0.84096  1.0000
  H   H5816     1.0  0.53056  0.64108  0.94884  1.0000
  S   S991      1.0  0.92237  0.57782  0.74133  1.0000
  H   H5817     1.0  0.88493  0.53416  0.74020  1.0000
  C   C7273     1.0  0.83767  0.53990  0.77123  1.0000
  C   C7274     1.0  0.68417  0.69158  0.90131  1.0000
  C   C7275     1.0  0.84379  0.55049  0.76056  1.0000
  H   H5818     1.0  0.92028  0.50426  0.73638  1.0000
  S   S992      1.0  0.89727  0.49937  0.80246  1.0000
  H   H5819     1.0  0.67077  0.64074  0.90996  1.0000
  C   C7276     1.0  0.64601  0.67721  0.91672  1.0000
  C   C7277     1.0  0.60477  0.58592  0.96337  1.0000
  C   C7278     1.0  0.83009  0.54263  0.78464  1.0000
  C   C7279     1.0  0.90260  0.51931  0.82432  1.0000
  H   H5820     1.0  0.70057  0.65853  0.97095  1.0000
  H   H5821     1.0  0.85948  0.54566  0.89381  1.0000
  C   C7280     1.0  0.80355  0.53053  0.94155  1.0000
  H   H5822     1.0  0.56850  0.65717  0.94367  1.0000
  H   H5823     1.0  0.64353  0.70460  0.88267  1.0000
  H   H5824     1.0  0.56006  0.73496  0.96051  1.0000
  C   C7281     1.0  0.55090  0.73739  0.94263  1.0000
  C   C7282     1.0  0.65986  0.56297  0.96476  1.0000
  C   C7283     1.0  0.65614  0.57792  0.96237  1.0000
  H   H5825     1.0  0.56132  0.64538  0.90863  1.0000
  C   C7284     1.0  0.92414  0.52108  0.83017  1.0000
  P   P242      1.0  0.97016  0.49378  0.74427  1.0000
  H   H5826     1.0  0.90446  0.55777  0.75172  1.0000
  C   C7285     1.0  0.51421  0.66675  0.96967  1.0000
  C   C7286     1.0  0.64973  0.65152  0.92002  1.0000
  P   P243      1.0  0.66628  0.69312  0.89889  1.0000
  S   S993      1.0  0.55175  0.71857  0.85049  1.0000
  H   H5827     1.0  0.65388  0.69790  0.92784  1.0000
  C   C7287     1.0  0.79761  0.49210  0.83674  1.0000
  H   H5828     1.0  0.56943  0.62873  0.96043  1.0000
  C   C7288     1.0  0.86978  0.50545  0.92208  1.0000
  C   C7289     1.0  0.75763  0.53738  0.95241  1.0000
  C   C7290     1.0  0.54046  0.64427  0.94235  1.0000
  C   C7291     1.0  0.74957  0.58752  0.95898  1.0000
  H   H5829     1.0  0.55075  0.56555  0.94125  1.0000
  C   C7292     1.0  0.65068  0.70781  0.92037  1.0000
  H   H5830     1.0  0.75011  0.53041  0.93780  1.0000
  Fe  Fe494     1.0  0.71022  0.57487  0.96857  1.0000
  H   H5831     1.0  0.66215  0.55771  0.95600  1.0000
  H   H5832     1.0  0.65564  0.58430  0.95171  1.0000
  H   H5833     1.0  0.65163  0.59630  0.97130  1.0000
  C   C7293     1.0  0.51973  0.68634  0.93130  1.0000
  H   H5834     1.0  0.55165  0.70072  0.94688  1.0000
  C   C7294     1.0  0.96118  0.50262  0.80196  1.0000
  H   H5835     1.0  0.75302  0.56813  0.95201  1.0000
  C   C7295     1.0  0.67920  0.68968  0.87098  1.0000
  Fe  Fe495     1.0  0.57029  0.72908  0.88739  1.0000
  H   H5836     1.0  0.90271  0.52024  0.88397  1.0000
  H   H5837     1.0  0.82595  0.53419  0.79297  1.0000
  H   H5838     1.0  0.55163  0.69470  0.91096  1.0000
  C   C7296     1.0  0.88693  0.51647  0.87488  1.0000
  H   H5839     1.0  0.58902  0.54157  0.95679  1.0000
  H   H5840     1.0  0.51834  0.67637  0.96501  1.0000
  C   C7297     1.0  0.55228  0.63608  0.97761  1.0000
  C   C7298     1.0  0.51057  0.73977  0.92723  1.0000
  C   C7299     1.0  0.61815  0.51665  0.97807  1.0000
  H   H5841     1.0  0.95737  0.52154  0.75233  1.0000
  C   C7300     1.0  0.56020  0.67895  0.97759  1.0000
  C   C7301     1.0  0.54875  0.64975  0.94800  1.0000
  C   C7302     1.0  0.65516  0.70869  0.90560  1.0000
  C   C7303     1.0  0.64091  0.66460  0.92272  1.0000
  H   H5842     1.0  0.98851  0.52311  0.79735  1.0000
  H   H5843     1.0  0.61679  0.73275  0.89228  1.0000
  C   C7304     1.0  0.86729  0.53786  0.88819  1.0000
  C   C7305     1.0  0.70191  0.50456  0.96796  1.0000
  H   H5844     1.0  0.86887  0.51635  0.86663  1.0000
  C   C7306     1.0  0.98463  0.54258  0.78138  1.0000
  C   C7307     1.0  0.81045  0.54201  0.93620  1.0000
  H   H5845     1.0  0.92517  0.51381  0.85223  1.0000
  H   H5846     1.0  0.54182  0.71561  0.92161  1.0000
  C   C7308     1.0  0.54695  0.67974  0.95606  1.0000
  H   H5847     1.0  0.70689  0.67276  0.92368  1.0000
  H   H5848     1.0  0.89612  0.52138  0.81655  1.0000
  C   C7309     1.0  0.70653  0.70013  0.89423  1.0000
  C   C7310     1.0  0.61009  0.53079  0.97689  1.0000
  C   C7311     1.0  0.63765  0.73264  0.91631  1.0000
  C   C7312     1.0  0.84155  0.56408  0.76339  1.0000
  C   C7313     1.0  0.86905  0.49906  0.74234  1.0000
  C   C7314     1.0  0.68932  0.68148  0.91274  1.0000
  H   H5849     1.0  0.98421  0.56177  0.76457  1.0000
  C   C7315     1.0  0.53335  0.71782  0.85577  1.0000
  C   C7316     1.0  0.82332  0.50467  0.96388  1.0000
  C   C7317     1.0  0.66617  0.69680  0.85195  1.0000
  H   H5850     1.0  0.84586  0.57256  0.75540  1.0000
  C   C7318     1.0  0.99300  0.50400  0.74663  1.0000
  H   H5851     1.0  0.92005  0.52784  0.80892  1.0000
  C   C7319     1.0  0.65342  0.70191  0.86130  1.0000
  H   H5852     1.0  0.54216  0.68010  0.94748  1.0000
  C   C7320     1.0  0.99095  0.55270  0.77041  1.0000
  C   C7321     1.0  0.63929  0.64821  0.87249  1.0000
  C   C7322     1.0  0.65256  0.65109  0.87193  1.0000
  C   C7323     1.0  0.65281  0.66201  0.87800  1.0000
  C   C7324     1.0  0.63981  0.67005  0.88460  1.0000
  C   C7325     1.0  0.62643  0.66746  0.88490  1.0000
  C   C7326     1.0  0.62626  0.65630  0.87902  1.0000
  P   P244      1.0  0.60970  0.67742  0.89401  1.0000
  C   C7327     1.0  0.60514  0.66767  0.91234  1.0000
  C   C7328     1.0  0.61234  0.69486  0.89340  1.0000
  C   C7329     1.0  0.61505  0.69773  0.90525  1.0000
  C   C7330     1.0  0.61694  0.71125  0.90473  1.0000
  C   C7331     1.0  0.61596  0.72210  0.89245  1.0000
  C   C7332     1.0  0.61363  0.71928  0.88049  1.0000
  C   C7333     1.0  0.61200  0.70568  0.88089  1.0000
  C   C7334     1.0  0.59503  0.67468  0.92262  1.0000
  C   C7335     1.0  0.59287  0.66787  0.93710  1.0000
  C   C7336     1.0  0.60035  0.65379  0.94137  1.0000
  C   C7337     1.0  0.61003  0.64651  0.93117  1.0000
  C   C7338     1.0  0.61248  0.65342  0.91672  1.0000
  C   C7339     1.0  0.59551  0.68032  0.88460  1.0000
  C   C7340     1.0  0.59897  0.68206  0.86966  1.0000
  C   C7341     1.0  0.58804  0.68486  0.86223  1.0000
  C   C7342     1.0  0.57356  0.68598  0.86960  1.0000
  C   C7343     1.0  0.56999  0.68430  0.88441  1.0000
  C   C7344     1.0  0.58089  0.68157  0.89191  1.0000
  H   H5853     1.0  0.63911  0.63963  0.86792  1.0000
  H   H5854     1.0  0.66266  0.64478  0.86693  1.0000
  H   H5855     1.0  0.66309  0.66414  0.87772  1.0000
  H   H5856     1.0  0.64020  0.67817  0.88960  1.0000
  H   H5857     1.0  0.61608  0.65378  0.87957  1.0000
  H   H5858     1.0  0.61552  0.68967  0.91503  1.0000
  H   H5859     1.0  0.61865  0.71345  0.91406  1.0000
  C   C7345     1.0  0.65356  0.70094  0.87546  1.0000
  H   H5860     1.0  0.61285  0.72771  0.87096  1.0000
  H   H5861     1.0  0.61025  0.70379  0.87147  1.0000
  H   H5862     1.0  0.58932  0.68565  0.91944  1.0000
  H   H5863     1.0  0.58560  0.67355  0.94511  1.0000
  H   H5864     1.0  0.59882  0.64862  0.95263  1.0000
  H   H5865     1.0  0.61599  0.63566  0.93455  1.0000
  H   H5866     1.0  0.62043  0.64770  0.90913  1.0000
  H   H5867     1.0  0.61007  0.68169  0.86366  1.0000
  H   H5868     1.0  0.59070  0.68664  0.85068  1.0000
  H   H5869     1.0  0.56504  0.68863  0.86375  1.0000
  H   H5870     1.0  0.55868  0.68560  0.88993  1.0000
  H   H5871     1.0  0.57780  0.68089  0.90328  1.0000
  H   H5872     1.0  0.54132  0.72281  0.97803  1.0000
  C   C7346     1.0  0.85281  0.62117  0.78932  1.0000
  C   C7347     1.0  0.85660  0.62659  0.79886  1.0000
  C   C7348     1.0  0.85951  0.61764  0.81173  1.0000
  C   C7349     1.0  0.85873  0.60324  0.81504  1.0000
  C   C7350     1.0  0.85511  0.59766  0.80542  1.0000
  C   C7351     1.0  0.85198  0.60679  0.79261  1.0000
  P   P245      1.0  0.85389  0.57911  0.80969  1.0000
  C   C7352     1.0  0.83505  0.57772  0.81549  1.0000
  C   C7353     1.0  0.86247  0.57106  0.79445  1.0000
  C   C7354     1.0  0.87257  0.57720  0.78303  1.0000
  C   C7355     1.0  0.87925  0.57076  0.77139  1.0000
  C   C7356     1.0  0.87630  0.55788  0.77130  1.0000
  C   C7357     1.0  0.86673  0.55143  0.78284  1.0000
  C   C7358     1.0  0.85978  0.55800  0.79434  1.0000
  C   C7359     1.0  0.82378  0.58944  0.81193  1.0000
  C   C7360     1.0  0.80928  0.58814  0.81676  1.0000
  C   C7361     1.0  0.80593  0.57519  0.82518  1.0000
  C   C7362     1.0  0.81709  0.56350  0.82870  1.0000
  C   C7363     1.0  0.83154  0.56477  0.82382  1.0000
  C   C7364     1.0  0.86348  0.56904  0.82367  1.0000
  C   C7365     1.0  0.87825  0.56227  0.82025  1.0000
  C   C7366     1.0  0.88558  0.55442  0.83111  1.0000
  C   C7367     1.0  0.87826  0.55326  0.84541  1.0000
  C   C7368     1.0  0.86364  0.56013  0.84888  1.0000
  C   C7369     1.0  0.85628  0.56806  0.83808  1.0000
  H   H5873     1.0  0.85053  0.62813  0.77934  1.0000
  H   H5874     1.0  0.85727  0.63773  0.79629  1.0000
  H   H5875     1.0  0.86240  0.62186  0.81915  1.0000
  H   H5876     1.0  0.86099  0.59654  0.82509  1.0000
  H   H5877     1.0  0.84896  0.60277  0.78513  1.0000
  H   H5878     1.0  0.87556  0.58680  0.78311  1.0000
  C   C7370     1.0  0.99014  0.52745  0.75089  1.0000
  H   H5879     1.0  0.88159  0.55273  0.76243  1.0000
  H   H5880     1.0  0.86462  0.54133  0.78287  1.0000
  H   H5881     1.0  0.85242  0.55277  0.80314  1.0000
  H   H5882     1.0  0.82603  0.59962  0.80564  1.0000
  H   H5883     1.0  0.80060  0.59725  0.81417  1.0000
  H   H5884     1.0  0.79470  0.57425  0.82916  1.0000
  C   C7371     1.0  0.55739  0.56311  0.94898  1.0000
  H   H5885     1.0  0.84001  0.55570  0.82677  1.0000
  H   H5886     1.0  0.88413  0.56296  0.80925  1.0000
  H   H5887     1.0  0.89693  0.54915  0.82843  1.0000
  H   H5888     1.0  0.88386  0.54697  0.85381  1.0000
  H   H5889     1.0  0.85787  0.55909  0.85995  1.0000
  H   H5890     1.0  0.84492  0.57319  0.84104  1.0000
  H   H5891     1.0  0.72231  0.68917  0.90715  1.0000
  H   H5892     1.0  0.88518  0.53864  0.89606  1.0000
  H   H5893     1.0  0.97292  0.54386  0.78415  1.0000
  H   H5894     1.0  0.81046  0.56305  0.93785  1.0000
  C   C7372     1.0  0.84722  0.51009  0.95556  1.0000
  P   P246      1.0  0.58488  0.55206  0.98268  1.0000
  H   H5895     1.0  0.56375  0.69981  0.96581  1.0000
  C   C7373     1.0  0.52918  0.72808  0.94778  1.0000
  H   H5896     1.0  0.00028  0.49445  0.74368  1.0000
  C   C7374     1.0  0.55783  0.64659  0.91959  1.0000
  C   C7375     1.0  0.65402  0.58469  0.97351  1.0000
  H   H5897     1.0  0.53749  0.67585  0.91674  1.0000
  H   H5898     1.0  0.58187  0.60812  0.97630  1.0000
  C   C7376     1.0  0.88173  0.53381  0.88953  1.0000
  C   C7377     1.0  0.57211  0.61520  0.98077  1.0000
  C   C7378     1.0  0.89749  0.51291  0.83857  1.0000
  H   H5899     1.0  0.88700  0.51010  0.84166  1.0000
  H   H5900     1.0  0.85401  0.51785  0.95165  1.0000
  H   H5901     1.0  0.65551  0.72325  0.88481  1.0000
  H   H5902     1.0  0.87100  0.51570  0.92264  1.0000
  C   C7379     1.0  0.89158  0.52326  0.88277  1.0000
  C   C7380     1.0  0.91604  0.52312  0.82005  1.0000
  H   H5903     1.0  0.53851  0.63853  0.92388  1.0000
  C   C7381     1.0  0.53567  0.70739  0.92466  1.0000
  C   C7382     1.0  0.54120  0.69552  0.91843  1.0000
  C   C7383     1.0  0.53324  0.68498  0.92171  1.0000
  H   H5904     1.0  0.70529  0.51315  0.94522  1.0000
  H   H5905     1.0  0.83223  0.57728  0.77892  1.0000
  C   C7384     1.0  0.75601  0.53785  0.96671  1.0000
  C   C7385     1.0  0.65154  0.72197  0.89623  1.0000
  C   C7386     1.0  0.82812  0.55609  0.78741  1.0000
  C   C7387     1.0  0.99343  0.53086  0.78874  1.0000
  C   C7388     1.0  0.67904  0.69061  0.85681  1.0000
  H   H5906     1.0  0.74440  0.59415  0.95038  1.0000
  C   C7389     1.0  0.55487  0.66722  0.97799  1.0000
  H   H5907     1.0  0.53681  0.70163  0.84405  1.0000
  C   C7390     1.0  0.83371  0.56686  0.77674  1.0000
  Fe  Fe496     1.0  0.55954  0.73096  0.86122  1.0000
  C   C7391     1.0  0.97515  0.52987  0.75250  1.0000
  C   C7392     1.0  0.52377  0.65329  0.97206  1.0000
  H   H5908     1.0  0.95035  0.50947  0.80359  1.0000
  C   C7393     1.0  0.57426  0.55650  0.96934  1.0000
  C   C7394     1.0  0.85704  0.50443  0.91922  1.0000
  C   C7395     1.0  0.70279  0.51559  0.95563  1.0000
  P   P247      1.0  0.51509  0.72477  0.94157  1.0000
  C   C7396     1.0  0.97183  0.50663  0.78997  1.0000
  C   C7397     1.0  0.55281  0.57021  0.96020  1.0000
  H   H5909     1.0  0.74775  0.60521  0.96815  1.0000
  C   C7398     1.0  0.59508  0.57684  0.96730  1.0000
  H   H5910     1.0  0.52650  0.73388  0.86828  1.0000
  H   H5911     1.0  0.57403  0.54736  0.93905  1.0000
  C   C7399     1.0  0.67699  0.61476  0.97861  1.0000
  C   C7400     1.0  0.56123  0.56700  0.97031  1.0000
  C   C7401     1.0  0.86491  0.51845  0.75411  1.0000
  H   H5912     1.0  0.86409  0.49818  0.84980  1.0000
  S   S994      1.0  0.54852  0.73826  0.88166  1.0000
  H   H5913     1.0  0.66255  0.69050  0.98307  1.0000
  C   C7402     1.0  0.85869  0.52822  0.74311  1.0000
  H   H5914     1.0  0.58622  0.57967  0.96193  1.0000
  C   C7403     1.0  0.51418  0.69825  0.93755  1.0000
  C   C7404     1.0  0.76105  0.56405  0.97108  1.0000
  C   C7405     1.0  0.69765  0.53285  0.97020  1.0000
  H   H5915     1.0  0.62399  0.58946  0.96685  1.0000
  C   C7406     1.0  0.66136  0.55479  0.97832  1.0000
  C   C7407     1.0  0.53995  0.73481  0.93798  1.0000
  C   C7408     1.0  0.55909  0.69097  0.96636  1.0000
  C   C7409     1.0  0.57048  0.55285  0.94778  1.0000
  C   C7410     1.0  0.50836  0.72578  0.86811  1.0000
  C   C7411     1.0  0.50826  0.73756  0.91488  1.0000
  C   C7412     1.0  0.64268  0.73385  0.90159  1.0000
  H   H5916     1.0  0.71314  0.70745  0.88716  1.0000
  H   H5917     1.0  0.76750  0.50446  0.97460  1.0000
  C   C7413     1.0  0.74486  0.53224  0.97718  1.0000
  C   C7414     1.0  0.94192  0.49960  0.73990  1.0000
  P   P248      1.0  0.89914  0.50199  0.86710  1.0000
  H   H5918     1.0  0.79341  0.50359  0.83516  1.0000
  C   C7415     1.0  0.50406  0.71613  0.86320  1.0000
  C   C7416     1.0  0.59703  0.56418  0.97789  1.0000
  H   H5919     1.0  0.61560  0.53936  0.97091  1.0000
  H   H5920     1.0  0.52509  0.63037  0.97979  1.0000
  H   H5921     1.0  0.50932  0.72689  0.91360  1.0000
  C   C7417     1.0  0.56497  0.62689  0.97181  1.0000
  C   C7418     1.0  0.51802  0.64094  0.97800  1.0000
  H   H5922     1.0  0.52188  0.71829  0.97008  1.0000
  C   C7419     1.0  0.67249  0.60189  0.98516  1.0000
  H   H5923     1.0  0.97352  0.50750  0.88433  1.0000
  C   C7420     1.0  0.75161  0.59378  0.96890  1.0000
  H   H5924     1.0  0.95804  0.50097  0.90845  1.0000
  C   C7421     1.0  0.55142  0.73305  0.95703  1.0000
  H   H5925     1.0  0.99492  0.53586  0.75117  1.0000
  C   C7422     1.0  0.75855  0.58526  0.97980  1.0000
  C   C7423     1.0  0.54088  0.72620  0.96686  1.0000
  H   H5926     1.0  0.55741  0.57265  0.97894  1.0000
  Fe  Fe497     1.0  0.82402  0.49506  0.89084  1.0000
  H   H5927     1.0  0.67117  0.63775  0.97581  1.0000
  H   H5928     1.0  0.95923  0.49669  0.77412  1.0000
  S   S995      1.0  0.63174  0.66950  0.98143  1.0000
  C   C7424     1.0  0.88340  0.54565  0.73641  1.0000
  H   H5929     1.0  0.68742  0.61471  0.97119  1.0000
  H   H5930     1.0  0.62970  0.51449  0.97329  1.0000
  C   C7425     1.0  0.66781  0.62775  0.98117  1.0000
  H   H5931     1.0  0.53992  0.73820  0.92670  1.0000
  H   H5932     1.0  0.50350  0.69930  0.94453  1.0000
  C   C7426     1.0  0.61823  0.57014  0.98080  1.0000
  H   H5933     1.0  0.66453  0.54319  0.98015  1.0000
  C   C7427     1.0  0.61140  0.50528  0.98550  1.0000
  C   C7428     1.0  0.85355  0.49551  0.95656  1.0000
  H   H5934     1.0  0.70361  0.49363  0.96706  1.0000
  H   H5935     1.0  0.67960  0.59195  0.98280  1.0000
  C   C7429     1.0  0.69847  0.50774  0.98143  1.0000
  H   H5936     1.0  0.86525  0.49194  0.95356  1.0000
  C   C7430     1.0  0.77584  0.49821  0.98042  1.0000
  C   C7431     1.0  0.76332  0.57047  0.98087  1.0000
  C   C7432     1.0  0.69627  0.52190  0.98256  1.0000
  C   C7433     1.0  0.60857  0.56105  0.98476  1.0000
  H   H5937     1.0  0.89075  0.49402  0.92648  1.0000
  H   H5938     1.0  0.79195  0.49453  0.96149  1.0000
  H   H5939     1.0  0.81991  0.49385  0.82939  1.0000
  C   C7434     1.0  0.82619  0.55811  0.73599  1.0000
  C   C7435     1.0  0.85554  0.49118  0.91836  1.0000
  H   H5940     1.0  0.89832  0.49388  0.89752  1.0000
  C   C7436     1.0  0.85929  0.49155  0.84640  1.0000
  H   H5941     1.0  0.84100  0.49171  0.86433  1.0000
  H   H5942     1.0  0.79272  0.52402  0.98253  1.0000
  C   C7437     1.0  0.88092  0.49320  0.92424  1.0000
  C   C7438     1.0  0.78972  0.49252  0.97304  1.0000
  C   C7439     1.0  0.91314  0.49300  0.87703  1.0000
  H   H5943     1.0  0.55488  0.72670  0.81636  1.0000
  C   C7440     1.0  0.95516  0.50395  0.73595  1.0000
  C   C7441     1.0  0.54818  0.73581  0.81054  1.0000
  H   H5944     1.0  0.56196  0.73396  0.78988  1.0000
  H   H5945     1.0  0.50269  0.61523  0.87763  1.0000
  C   C7442     1.0  0.55213  0.73989  0.79567  1.0000
  H   H5946     1.0  0.50249  0.73903  0.83774  1.0000
  S   S996      1.0  0.57794  0.78666  0.10736  1.0000
  Fe  Fe498     1.0  0.58310  0.83406  0.20430  1.0000
  S   S997      1.0  0.59621  0.81458  0.19526  1.0000
  Fe  Fe499     1.0  0.57544  0.86625  0.19373  1.0000
  S   S998      1.0  0.58069  0.88446  0.17532  1.0000
  S   S999      1.0  0.59361  0.85168  0.20378  1.0000
  S   S1000     1.0  0.56617  0.84860  0.19269  1.0000
  S   S1001     1.0  0.56172  0.96868  0.12307  1.0000
  Fe  Fe500     1.0  0.53290  0.89868  0.12686  1.0000
  S   S1002     1.0  0.52346  0.90895  0.14557  1.0000
  S   S1003     1.0  0.55708  0.89148  0.12063  1.0000
  C   C7443     1.0  0.60683  0.94208  0.19353  1.0000
  H   H5947     1.0  0.53362  0.88811  0.00782  1.0000
  C   C7444     1.0  0.57168  0.93500  0.09665  1.0000
  S   S1004     1.0  0.50215  0.80215  0.21745  1.0000
  C   C7445     1.0  0.50603  0.77361  0.18353  1.0000
  C   C7446     1.0  0.51273  0.92237  0.18777  1.0000
  S   S1005     1.0  0.52022  0.91596  0.11239  1.0000
  H   H5948     1.0  0.51804  0.94697  0.16657  1.0000
  C   C7447     1.0  0.52419  0.92391  0.19259  1.0000
  C   C7448     1.0  0.52492  0.81453  0.21387  1.0000
  S   S1006     1.0  0.53482  0.82979  0.04850  1.0000
  C   C7449     1.0  0.53986  0.98165  0.21613  1.0000
  Fe  Fe501     1.0  0.52106  0.83182  0.03325  1.0000
  S   S1007     1.0  0.53039  0.82870  0.01068  1.0000
  H   H5949     1.0  0.53478  0.86942  0.08372  1.0000
  S   S1008     1.0  0.52537  0.79607  0.07915  1.0000
  H   H5950     1.0  0.53154  0.98244  0.13157  1.0000
  H   H5951     1.0  0.55230  0.77513  0.11650  1.0000
  H   H5952     1.0  0.60466  0.79887  0.17291  1.0000
  H   H5953     1.0  0.62624  0.79469  0.14514  1.0000
  H   H5954     1.0  0.55881  0.86318  0.09052  1.0000
  C   C7450     1.0  0.52790  0.81014  0.99612  1.0000
  H   H5955     1.0  0.59351  0.83407  0.10899  1.0000
  C   C7451     1.0  0.52486  0.75112  0.11094  1.0000
  H   H5956     1.0  0.53271  0.79107  0.19127  1.0000
  H   H5957     1.0  0.53720  0.79463  0.02746  1.0000
  H   H5958     1.0  0.54436  0.86613  0.11454  1.0000
  H   H5959     1.0  0.56538  0.96804  0.18959  1.0000
  C   C7452     1.0  0.53104  0.82549  0.21440  1.0000
  H   H5960     1.0  0.55931  0.80493  0.23406  1.0000
  C   C7453     1.0  0.55720  0.96486  0.03545  1.0000
  C   C7454     1.0  0.50683  0.95580  0.09496  1.0000
  C   C7455     1.0  0.54565  0.96281  0.12649  1.0000
  C   C7456     1.0  0.53213  0.97186  0.13030  1.0000
  C   C7457     1.0  0.51931  0.96733  0.13223  1.0000
  C   C7458     1.0  0.52003  0.95371  0.13044  1.0000
  C   C7459     1.0  0.53355  0.94455  0.12694  1.0000
  C   C7460     1.0  0.54633  0.94908  0.12507  1.0000
  C   C7461     1.0  0.54706  0.77106  0.23460  1.0000
  H   H5961     1.0  0.58960  0.94672  0.18262  1.0000
  H   H5962     1.0  0.53421  0.93403  0.12551  1.0000
  H   H5963     1.0  0.55676  0.94192  0.12252  1.0000
  C   C7462     1.0  0.57404  0.88604  0.16024  1.0000
  C   C7463     1.0  0.56272  0.87965  0.16122  1.0000
  C   C7464     1.0  0.55744  0.88133  0.14905  1.0000
  C   C7465     1.0  0.56378  0.88904  0.13582  1.0000
  C   C7466     1.0  0.57520  0.89527  0.13481  1.0000
  C   C7467     1.0  0.58016  0.89395  0.14704  1.0000
  H   H5964     1.0  0.55778  0.87370  0.17137  1.0000
  H   H5965     1.0  0.54851  0.87661  0.14990  1.0000
  H   H5966     1.0  0.58000  0.90136  0.12464  1.0000
  H   H5967     1.0  0.58893  0.89888  0.14621  1.0000
  C   C7468     1.0  0.58666  0.80528  0.18964  1.0000
  C   C7469     1.0  0.57246  0.80424  0.19677  1.0000
  C   C7470     1.0  0.56561  0.79548  0.19329  1.0000
  H   H5968     1.0  0.56696  0.80976  0.20533  1.0000
  H   H5969     1.0  0.55488  0.79423  0.19931  1.0000
  C   C7471     1.0  0.56335  0.78959  0.09936  1.0000
  C   C7472     1.0  0.56287  0.79905  0.08610  1.0000
  C   C7473     1.0  0.55099  0.80152  0.07991  1.0000
  C   C7474     1.0  0.53986  0.79414  0.08683  1.0000
  C   C7475     1.0  0.54044  0.78462  0.09998  1.0000
  C   C7476     1.0  0.55209  0.78243  0.10629  1.0000
  H   H5970     1.0  0.57169  0.80438  0.08068  1.0000
  H   H5971     1.0  0.55058  0.80878  0.06967  1.0000
  H   H5972     1.0  0.53176  0.77905  0.10535  1.0000
  C   C7477     1.0  0.50723  0.81673  0.01477  1.0000
  C   C7478     1.0  0.51527  0.88189  0.09459  1.0000
  S   S1009     1.0  0.56044  0.86997  0.21448  1.0000
  H   H5973     1.0  0.56041  0.74453  0.09882  1.0000
  C   C7479     1.0  0.59239  0.80750  0.12853  1.0000
  C   C7480     1.0  0.58302  0.93684  0.20502  1.0000
  C   C7481     1.0  0.59281  0.94223  0.19276  1.0000
  H   H5974     1.0  0.52963  0.89165  0.17578  1.0000
  H   H5975     1.0  0.53873  0.81096  0.98996  1.0000
  H   H5976     1.0  0.52444  0.97058  0.15900  1.0000
  C   C7482     1.0  0.55875  0.83630  0.16370  1.0000
  C   C7483     1.0  0.55032  0.76950  0.01139  1.0000
  S   S1010     1.0  0.56362  0.77673  0.17897  1.0000
  H   H5977     1.0  0.60411  0.87287  0.13193  1.0000
  C   C7484     1.0  0.58952  0.84331  0.14507  1.0000
  C   C7485     1.0  0.50606  0.93448  0.08222  1.0000
  C   C7486     1.0  0.53938  0.90224  0.18539  1.0000
  P   P249      1.0  0.50964  0.83122  0.13022  1.0000
  C   C7487     1.0  0.59456  0.81586  0.13660  1.0000
  H   H5978     1.0  0.58297  0.81073  0.12396  1.0000
  H   H5979     1.0  0.52294  0.93298  0.19707  1.0000
  H   H5980     1.0  0.55401  0.85285  0.13589  1.0000
  C   C7488     1.0  0.52791  0.96675  0.04917  1.0000
  C   C7489     1.0  0.57004  0.94981  0.09166  1.0000
  H   H5981     1.0  0.52131  0.99060  0.06048  1.0000
  C   C7490     1.0  0.60232  0.79472  0.12642  1.0000
  C   C7491     1.0  0.50986  0.81670  0.21554  1.0000
  H   H5982     1.0  0.58052  0.92883  0.10182  1.0000
  C   C7492     1.0  0.54504  0.95572  0.22232  1.0000
  C   C7493     1.0  0.54699  0.83263  0.17455  1.0000
  S   S1011     1.0  0.58864  0.76246  0.14320  1.0000
  P   P250      1.0  0.58130  0.83214  0.13980  1.0000
  C   C7494     1.0  0.58728  0.93184  0.21813  1.0000
  H   H5983     1.0  0.53181  0.80422  0.21251  1.0000
  H   H5984     1.0  0.56854  0.96420  0.03011  1.0000
  H   H5985     1.0  0.57758  0.95514  0.09305  1.0000
  C   C7495     1.0  0.57711  0.84845  0.09829  1.0000
  H   H5986     1.0  0.56038  0.76279  0.05747  1.0000
  H   H5987     1.0  0.62198  0.93657  0.20716  1.0000
  H   H5988     1.0  0.55388  0.77841  0.01233  1.0000
  H   H5989     1.0  0.60818  0.86649  0.15651  1.0000
  C   C7496     1.0  0.52032  0.84994  0.15619  1.0000
  H   H5990     1.0  0.50655  0.90946  0.17731  1.0000
  H   H5991     1.0  0.52439  0.86309  0.00424  1.0000
  H   H5992     1.0  0.73251  0.94440  0.22315  1.0000
  C   C7497     1.0  0.51057  0.77324  0.03659  1.0000
  H   H5993     1.0  0.50336  0.78513  0.10382  1.0000
  C   C7498     1.0  0.51361  0.77683  0.05839  1.0000
  C   C7499     1.0  0.52684  0.83127  0.11757  1.0000
  C   C7500     1.0  0.51945  0.84582  0.14428  1.0000
  H   H5994     1.0  0.53486  0.93431  0.21615  1.0000
  C   C7501     1.0  0.52203  0.83861  0.21678  1.0000
  H   H5995     1.0  0.59187  0.78467  0.16566  1.0000
  C   C7502     1.0  0.52759  0.83773  0.10303  1.0000
  C   C7503     1.0  0.54101  0.83656  0.09330  1.0000
  C   C7504     1.0  0.55368  0.82892  0.09802  1.0000
  C   C7505     1.0  0.55301  0.82265  0.11245  1.0000
  C   C7506     1.0  0.53971  0.82405  0.12225  1.0000
  H   H5996     1.0  0.51883  0.96075  0.20296  1.0000
  H   H5997     1.0  0.55722  0.96931  0.08176  1.0000
  H   H5998     1.0  0.52685  0.85749  0.15499  1.0000
  H   H5999     1.0  0.57940  0.91711  0.18710  1.0000
  H   H6000     1.0  0.60738  0.75854  0.17757  1.0000
  H   H6001     1.0  0.52803  0.80276  0.12527  1.0000
  H   H6002     1.0  0.52091  0.89155  0.21196  1.0000
  C   C7507     1.0  0.57254  0.78833  0.18210  1.0000
  H   H6003     1.0  0.51792  0.84352  0.09907  1.0000
  H   H6004     1.0  0.54146  0.84135  0.08207  1.0000
  H   H6005     1.0  0.56406  0.82764  0.09057  1.0000
  H   H6006     1.0  0.56274  0.81629  0.11595  1.0000
  H   H6007     1.0  0.53937  0.81887  0.13340  1.0000
  H   H6008     1.0  0.55077  0.81189  0.02750  1.0000
  H   H6009     1.0  0.57866  0.91545  0.16328  1.0000
  H   H6010     1.0  0.52613  0.93854  0.06816  1.0000
  H   H6011     1.0  0.54766  0.90242  0.09348  1.0000
  C   C7508     1.0  0.72361  0.95033  0.22993  1.0000
  S   S1012     1.0  0.50603  0.85216  0.03841  1.0000
  S   S1013     1.0  0.56410  0.74481  0.16372  1.0000
  C   C7509     1.0  0.54445  0.74756  0.05336  1.0000
  S   S1014     1.0  0.50403  0.94830  0.13230  1.0000
  S   S1015     1.0  0.50423  0.74759  0.09940  1.0000
  C   C7510     1.0  0.56341  0.93563  0.15937  1.0000
  C   C7511     1.0  0.54324  0.76073  0.02342  1.0000
  H   H6012     1.0  0.52527  0.85043  0.13382  1.0000
  H   H6013     1.0  0.62032  0.77404  0.20691  1.0000
  C   C7512     1.0  0.61111  0.93672  0.20656  1.0000
  C   C7513     1.0  0.56651  0.91002  0.22008  1.0000
  C   C7514     1.0  0.55280  0.76688  0.99779  1.0000
  C   C7515     1.0  0.52290  0.77291  0.19735  1.0000
  H   H6014     1.0  0.50709  0.96368  0.10036  1.0000
  H   H6015     1.0  0.52845  0.76787  0.20599  1.0000
  C   C7516     1.0  0.55469  0.95523  0.20900  1.0000
  C   C7517     1.0  0.60187  0.97953  0.22237  1.0000
  P   P251      1.0  0.50871  0.75024  0.20674  1.0000
  C   C7518     1.0  0.52721  0.97912  0.08066  1.0000
  C   C7519     1.0  0.51101  0.83599  0.14586  1.0000
  C   C7520     1.0  0.54672  0.96784  0.02744  1.0000
  C   C7521     1.0  0.52223  0.74921  0.13624  1.0000
  H   H6016     1.0  0.51607  0.85324  0.98903  1.0000
  H   H6017     1.0  0.60829  0.89847  0.22789  1.0000
  H   H6018     1.0  0.54330  0.94602  0.23010  1.0000
  H   H6019     1.0  0.54818  0.95771  0.18250  1.0000
  C   C7522     1.0  0.50659  0.80015  0.00139  1.0000
  C   C7523     1.0  0.60084  0.76578  0.21521  1.0000
  C   C7524     1.0  0.50807  0.74726  0.13880  1.0000
  H   H6020     1.0  0.60209  0.91337  0.02633  1.0000
  H   H6021     1.0  0.69991  0.98267  0.22846  1.0000
  H   H6022     1.0  0.51486  0.77048  0.02629  1.0000
  H   H6023     1.0  0.56135  0.96061  0.05629  1.0000
  C   C7525     1.0  0.50835  0.78699  0.17537  1.0000
  Fe  Fe502     1.0  0.55750  0.98897  0.13050  1.0000
  C   C7526     1.0  0.61039  0.89598  0.01538  1.0000
  C   C7527     1.0  0.53890  0.74922  0.02161  1.0000
  C   C7528     1.0  0.51530  0.96872  0.16777  1.0000
  H   H6024     1.0  0.61955  0.97698  0.20410  1.0000
  C   C7529     1.0  0.56723  0.74455  0.22024  1.0000
  C   C7530     1.0  0.50616  0.81342  0.13465  1.0000
  C   C7531     1.0  0.56623  0.78360  0.23014  1.0000
  H   H6025     1.0  0.53058  0.74651  0.18017  1.0000
  H   H6026     1.0  0.56217  0.84588  0.16316  1.0000
  C   C7532     1.0  0.60095  0.86346  0.13937  1.0000
  C   C7533     1.0  0.51267  0.84441  0.16974  1.0000
  H   H6027     1.0  0.58871  0.83047  0.16661  1.0000
  C   C7534     1.0  0.55725  0.92329  0.21593  1.0000
  S   S1016     1.0  0.52921  0.74889  0.15075  1.0000
  C   C7535     1.0  0.59362  0.79820  0.17839  1.0000
  C   C7536     1.0  0.55492  0.94751  0.16484  1.0000
  H   H6028     1.0  0.58350  0.84734  0.08776  1.0000
  H   H6029     1.0  0.54172  0.83911  0.18243  1.0000
  C   C7537     1.0  0.57430  0.84202  0.12409  1.0000
  C   C7538     1.0  0.57216  0.92473  0.16748  1.0000
  C   C7539     1.0  0.52047  0.80152  0.99316  1.0000
  C   C7540     1.0  0.58643  0.79008  0.17433  1.0000
  H   H6030     1.0  0.60059  0.84515  0.17371  1.0000
  C   C7541     1.0  0.60698  0.81119  0.14242  1.0000
  H   H6031     1.0  0.53549  0.90777  0.01734  1.0000
  H   H6032     1.0  0.52395  0.97117  0.02808  1.0000
  C   C7542     1.0  0.56322  0.85740  0.09982  1.0000
  C   C7543     1.0  0.54198  0.82063  0.17521  1.0000
  C   C7544     1.0  0.59205  0.83969  0.15891  1.0000
  S   S1017     1.0  0.50387  0.83598  0.07246  1.0000
  H   H6033     1.0  0.54505  0.80290  0.16558  1.0000
  C   C7545     1.0  0.54871  0.81234  0.16501  1.0000
  H   H6034     1.0  0.56821  0.80517  0.04320  1.0000
  C   C7546     1.0  0.56273  0.79734  0.04279  1.0000
  C   C7547     1.0  0.52810  0.90065  0.18053  1.0000
  H   H6035     1.0  0.60043  0.78829  0.12030  1.0000
  C   C7548     1.0  0.61450  0.79007  0.13242  1.0000
  C   C7549     1.0  0.56155  0.92822  0.09554  1.0000
  C   C7550     1.0  0.51089  0.96345  0.21236  1.0000
  C   C7551     1.0  0.51304  0.76659  0.19483  1.0000
  H   H6036     1.0  0.60463  0.92755  0.22897  1.0000
  P   P252      1.0  0.53897  0.76429  0.04111  1.0000
  C   C7552     1.0  0.51488  0.91074  0.18159  1.0000
  C   C7553     1.0  0.52532  0.78619  0.18903  1.0000
  C   C7554     1.0  0.51722  0.80163  0.13113  1.0000
  C   C7555     1.0  0.54569  0.89962  0.23276  1.0000
  C   C7556     1.0  0.56070  0.81573  0.15441  1.0000
  C   C7557     1.0  0.55281  0.80117  0.03404  1.0000
  C   C7558     1.0  0.54525  0.79129  0.03393  1.0000
  C   C7559     1.0  0.52767  0.98058  0.09405  1.0000
  S   S1018     1.0  0.52869  0.85177  0.22008  1.0000
  H   H6037     1.0  0.54993  0.96949  0.01590  1.0000
  H   H6038     1.0  0.62202  0.78002  0.13098  1.0000
  H   H6039     1.0  0.53288  0.81778  0.18362  1.0000
  C   C7560     1.0  0.55498  0.85892  0.11339  1.0000
  C   C7561     1.0  0.56594  0.82765  0.15374  1.0000
  C   C7562     1.0  0.59888  0.84794  0.16295  1.0000
  H   H6040     1.0  0.54841  0.95603  0.15833  1.0000
  C   C7563     1.0  0.59336  0.75741  0.19852  1.0000
  P   P253      1.0  0.57533  0.75550  0.22598  1.0000
  H   H6041     1.0  0.63388  0.99042  0.21017  1.0000
  Fe  Fe503     1.0  0.57371  0.77044  0.12793  1.0000
  H   H6042     1.0  0.56588  0.80887  0.14692  1.0000
  C   C7564     1.0  0.56049  0.85132  0.12549  1.0000
  C   C7565     1.0  0.58268  0.84084  0.11037  1.0000
  H   H6043     1.0  0.62462  0.76921  0.18291  1.0000
  C   C7566     1.0  0.61685  0.79833  0.14038  1.0000
  H   H6044     1.0  0.51214  0.98566  0.20625  1.0000
  C   C7567     1.0  0.55748  0.96810  0.19967  1.0000
  C   C7568     1.0  0.51965  0.77176  0.04578  1.0000
  H   H6045     1.0  0.54135  0.75310  0.12020  1.0000
  S   S1019     1.0  0.55359  0.77637  0.14443  1.0000
  C   C7569     1.0  0.56192  0.77129  0.23025  1.0000
  H   H6046     1.0  0.51952  0.80373  0.17188  1.0000
  Fe  Fe504     1.0  0.55122  0.75407  0.14666  1.0000
  H   H6047     1.0  0.56326  0.93491  0.14880  1.0000
  H   H6048     1.0  0.59212  0.85840  0.12462  1.0000
  C   C7570     1.0  0.53052  0.75136  0.12227  1.0000
  H   H6049     1.0  0.60903  0.81723  0.14876  1.0000
  H   H6050     1.0  0.50850  0.74236  0.06882  1.0000
  C   C7571     1.0  0.60330  0.85985  0.15320  1.0000
  C   C7572     1.0  0.52125  0.81779  0.00694  1.0000
  C   C7573     1.0  0.55505  0.94848  0.17849  1.0000
  C   C7574     1.0  0.53747  0.91390  0.19133  1.0000
  C   C7575     1.0  0.51793  0.79330  0.17812  1.0000
  C   C7576     1.0  0.52335  0.87404  0.08418  1.0000
  H   H6051     1.0  0.54643  0.91512  0.19476  1.0000
  C   C7577     1.0  0.59406  0.85525  0.13530  1.0000
  H   H6052     1.0  0.54965  0.89447  0.18448  1.0000
  Fe  Fe505     1.0  0.55282  0.85072  0.21448  1.0000
  H   H6053     1.0  0.61944  0.90040  0.00833  1.0000
  Fe  Fe506     1.0  0.56822  0.76677  0.15990  1.0000
  C   C7578     1.0  0.56072  0.89832  0.22860  1.0000
  C   C7579     1.0  0.54936  0.87223  0.01847  1.0000
  C   C7580     1.0  0.54091  0.88600  0.01485  1.0000
  C   C7581     1.0  0.54196  0.89707  0.02023  1.0000
  C   C7582     1.0  0.55129  0.89432  0.02942  1.0000
  C   C7583     1.0  0.55938  0.88038  0.03360  1.0000
  C   C7584     1.0  0.55876  0.86948  0.02758  1.0000
  P   P254      1.0  0.57182  0.87715  0.04505  1.0000
  C   C7585     1.0  0.58701  0.88450  0.03369  1.0000
  C   C7586     1.0  0.56397  0.88537  0.06027  1.0000
  C   C7587     1.0  0.57292  0.88538  0.06900  1.0000
  C   C7588     1.0  0.56704  0.89159  0.08090  1.0000
  C   C7589     1.0  0.55224  0.89789  0.08410  1.0000
  C   C7590     1.0  0.54327  0.89793  0.07550  1.0000
  C   C7591     1.0  0.54903  0.89142  0.06381  1.0000
  C   C7592     1.0  0.58891  0.89762  0.03461  1.0000
  C   C7593     1.0  0.60062  0.90328  0.02554  1.0000
  H   H6054     1.0  0.50814  0.88309  0.01522  1.0000
  C   C7594     1.0  0.60840  0.88306  0.01422  1.0000
  C   C7595     1.0  0.59670  0.87737  0.02329  1.0000
  C   C7596     1.0  0.57797  0.85828  0.05233  1.0000
  C   C7597     1.0  0.56829  0.84911  0.05677  1.0000
  C   C7598     1.0  0.57316  0.83441  0.06169  1.0000
  C   C7599     1.0  0.58756  0.82882  0.06299  1.0000
  C   C7600     1.0  0.59714  0.83796  0.05922  1.0000
  C   C7601     1.0  0.59239  0.85265  0.05390  1.0000
  H   H6055     1.0  0.54858  0.86363  0.01428  1.0000
  Fe  Fe507     1.0  0.51836  0.84876  0.05527  1.0000
  S   S1020     1.0  0.57027  0.74876  0.12887  1.0000
  H   H6056     1.0  0.55211  0.90305  0.03335  1.0000
  H   H6057     1.0  0.56543  0.85881  0.02987  1.0000
  H   H6058     1.0  0.58440  0.88043  0.06673  1.0000
  H   H6059     1.0  0.57385  0.89126  0.08788  1.0000
  H   H6060     1.0  0.57979  0.92805  0.22781  1.0000
  C   C7602     1.0  0.55001  0.98124  0.20319  1.0000
  H   H6061     1.0  0.54165  0.89077  0.05791  1.0000
  H   H6062     1.0  0.58132  0.90358  0.04222  1.0000
  C   C7603     1.0  0.59080  0.76010  0.21217  1.0000
  H   H6063     1.0  0.57821  0.90853  0.21657  1.0000
  H   H6064     1.0  0.54259  0.82360  0.21354  1.0000
  H   H6065     1.0  0.59518  0.86742  0.02217  1.0000
  H   H6066     1.0  0.55702  0.85325  0.05618  1.0000
  H   H6067     1.0  0.56563  0.82741  0.06462  1.0000
  H   H6068     1.0  0.59126  0.81742  0.06702  1.0000
  H   H6069     1.0  0.60828  0.83363  0.06037  1.0000
  H   H6070     1.0  0.59997  0.85956  0.05104  1.0000
  S   S1021     1.0  0.56915  0.83504  0.22634  1.0000
  C   C7604     1.0  0.55593  0.79536  0.23445  1.0000
  C   C7605     1.0  0.51155  0.88752  0.21873  1.0000
  H   H6071     1.0  0.72006  0.96910  0.21312  1.0000
  Fe  Fe508     1.0  0.51947  0.81717  0.06448  1.0000
  C   C7606     1.0  0.54822  0.77719  0.04194  1.0000
  C   C7607     1.0  0.61541  0.98130  0.21363  1.0000
  H   H6072     1.0  0.52309  0.77888  0.13256  1.0000
  C   C7608     1.0  0.53638  0.91264  0.22833  1.0000
  C   C7609     1.0  0.51376  0.86792  0.00183  1.0000
  H   H6073     1.0  0.59932  0.76770  0.22570  1.0000
  Fe  Fe509     1.0  0.57804  0.85431  0.22472  1.0000
  C   C7610     1.0  0.51678  0.87244  0.07419  1.0000
  C   C7611     1.0  0.57255  0.92574  0.18100  1.0000
  P   P255      1.0  0.56452  0.93834  0.20431  1.0000
  C   C7612     1.0  0.56529  0.78351  0.05128  1.0000
  H   H6074     1.0  0.53135  0.75277  0.10015  1.0000
  C   C7613     1.0  0.55833  0.95784  0.08546  1.0000
  H   H6075     1.0  0.57265  0.78065  0.05840  1.0000
  C   C7614     1.0  0.55818  0.77341  0.05077  1.0000
  H   H6076     1.0  0.50244  0.79262  0.16712  1.0000
  C   C7615     1.0  0.56406  0.93766  0.18660  1.0000
  C   C7616     1.0  0.54803  0.95112  0.08437  1.0000
  C   C7617     1.0  0.61294  0.76913  0.20467  1.0000
  S   S1022     1.0  0.52761  0.86474  0.05984  1.0000
  C   C7618     1.0  0.53837  0.96371  0.05731  1.0000
  C   C7619     1.0  0.50194  0.87818  0.07498  1.0000
  H   H6077     1.0  0.53172  0.90253  0.07823  1.0000
  H   H6078     1.0  0.52049  0.88334  0.10207  1.0000
  C   C7620     1.0  0.61538  0.76642  0.19114  1.0000
  C   C7621     1.0  0.54978  0.93622  0.08941  1.0000
  H   H6079     1.0  0.57747  0.78437  0.22655  1.0000
  P   P256      1.0  0.53279  0.96156  0.07648  1.0000
  H   H6080     1.0  0.63490  0.85961  0.21965  1.0000
  H   H6081     1.0  0.61507  0.84644  0.23018  1.0000
  S   S1023     1.0  0.51738  0.88415  0.13341  1.0000
  H   H6082     1.0  0.61433  0.94623  0.18401  1.0000
  S   S1024     1.0  0.54742  0.98948  0.15340  1.0000
  H   H6083     1.0  0.52043  0.77679  0.06520  1.0000
  C   C7622     1.0  0.51750  0.94163  0.07695  1.0000
  C   C7623     1.0  0.51790  0.95245  0.08321  1.0000
  H   H6084     1.0  0.56264  0.91680  0.09978  1.0000
  C   C7624     1.0  0.51166  0.95535  0.17220  1.0000
  C   C7625     1.0  0.60132  0.93165  0.21886  1.0000
  H   H6085     1.0  0.55808  0.77381  0.98853  1.0000
  Fe  Fe510     1.0  0.50923  0.92499  0.13186  1.0000
  S   S1025     1.0  0.50720  0.81738  0.04882  1.0000
  H   H6086     1.0  0.54199  0.93075  0.08885  1.0000
  H   H6087     1.0  0.55552  0.76264  0.20704  1.0000
  C   C7626     1.0  0.55306  0.96282  0.05033  1.0000
  H   H6088     1.0  0.54737  0.74799  0.19614  1.0000
  C   C7627     1.0  0.54214  0.92441  0.21987  1.0000
  C   C7628     1.0  0.50231  0.74727  0.12745  1.0000
  C   C7629     1.0  0.53755  0.96890  0.22578  1.0000
  H   H6089     1.0  0.52475  0.91352  0.23128  1.0000
  C   C7630     1.0  0.71659  0.96424  0.22430  1.0000
  H   H6090     1.0  0.51338  0.84762  0.17897  1.0000
  C   C7631     1.0  0.59622  0.98552  0.23448  1.0000
  H   H6091     1.0  0.59713  0.88078  0.22407  1.0000
  C   C7632     1.0  0.59726  0.88097  0.23478  1.0000
  C   C7633     1.0  0.51079  0.74894  0.11353  1.0000
  C   C7634     1.0  0.53786  0.74534  0.06801  1.0000
  C   C7635     1.0  0.50711  0.84098  0.21760  1.0000
  C   C7636     1.0  0.55831  0.75108  0.21042  1.0000
  C   C7637     1.0  0.53209  0.96878  0.03430  1.0000
  H   H6092     1.0  0.53124  0.97125  0.10195  1.0000
  C   C7638     1.0  0.50947  0.88466  0.23355  1.0000
  C   C7639     1.0  0.51446  0.78792  0.13512  1.0000
  C   C7640     1.0  0.50893  0.86229  0.99318  1.0000
  C   C7641     1.0  0.50894  0.75216  0.99668  1.0000
  H   H6093     1.0  0.53325  0.74246  0.03071  1.0000
  C   C7642     1.0  0.60568  0.76041  0.18813  1.0000
  C   C7643     1.0  0.63284  0.85465  0.23093  1.0000
  H   H6094     1.0  0.50885  0.97441  0.13500  1.0000
  H   H6095     1.0  0.59563  0.97381  0.21950  1.0000
  Fe  Fe511     1.0  0.50676  0.89592  0.15106  1.0000
  C   C7644     1.0  0.50314  0.83067  0.15952  1.0000
  H   H6096     1.0  0.64981  0.86159  0.23480  1.0000
  C   C7645     1.0  0.51058  0.75081  0.22405  1.0000
  H   H6097     1.0  0.56789  0.88808  0.23176  1.0000
  C   C7646     1.0  0.50460  0.87913  0.00805  1.0000
  H   H6098     1.0  0.51600  0.75970  0.99261  1.0000
  C   C7647     1.0  0.62348  0.98887  0.21703  1.0000
  H   H6099     1.0  0.54336  0.76177  0.23480  1.0000
  C   C7648     1.0  0.54839  0.75544  0.99609  1.0000
  C   C7649     1.0  0.50204  0.88436  0.21264  1.0000
  H   H6100     1.0  0.50587  0.92593  0.07762  1.0000
  H   H6101     1.0  0.51649  0.96769  0.05430  1.0000
  C   C7650     1.0  0.50711  0.97750  0.21419  1.0000
  H   H6102     1.0  0.52881  0.75313  0.07233  1.0000
  H   H6103     1.0  0.50987  0.99015  0.17087  1.0000
  C   C7651     1.0  0.50411  0.83479  0.17142  1.0000
  C   C7652     1.0  0.54150  0.74657  0.00801  1.0000
  H   H6104     1.0  0.50231  0.91717  0.21679  1.0000
  C   C7653     1.0  0.70509  0.97191  0.23305  1.0000
  H   H6105     1.0  0.61588  0.87748  0.00625  1.0000
  C   C7654     1.0  0.50419  0.95303  0.22248  1.0000
  H   H6106     1.0  0.50695  0.94220  0.22093  1.0000
  Fe  Fe512     1.0  0.50367  0.90233  0.12059  1.0000
  H   H6107     1.0  0.50310  0.75585  0.01786  1.0000
  H   H6108     1.0  0.58586  0.75318  0.19566  1.0000
  H   H6109     1.0  0.55213  0.99111  0.19581  1.0000
  C   C7655     1.0  0.55356  0.74277  0.20431  1.0000
  C   C7656     1.0  0.50690  0.74494  0.98757  1.0000
  C   C7657     1.0  0.50351  0.76316  0.22948  1.0000
  H   H6110     1.0  0.50404  0.88598  0.20115  1.0000
  C   C7658     1.0  0.50699  0.97985  0.17443  1.0000
  Fe  Fe513     1.0  0.86588  0.91373  0.45226  1.0000
  S   S1026     1.0  0.86531  0.90974  0.43138  1.0000
  S   S1027     1.0  0.88459  0.91890  0.45704  1.0000
  C   C7659     1.0  0.95092  0.74458  0.39717  1.0000
  S   S1028     1.0  0.93835  0.84546  0.44844  1.0000
  C   C7660     1.0  0.56094  0.95504  0.33151  1.0000
  C   C7661     1.0  0.67030  0.95524  0.25962  1.0000
  C   C7662     1.0  0.64113  0.85589  0.23961  1.0000
  C   C7663     1.0  0.62724  0.84200  0.26010  1.0000
  C   C7664     1.0  0.54710  0.97308  0.45745  1.0000
  C   C7665     1.0  0.79782  0.76777  0.47048  1.0000
  H   H6111     1.0  0.83885  0.75551  0.44116  1.0000
  S   S1029     1.0  0.62093  0.93478  0.44961  1.0000
  Fe  Fe514     1.0  0.72790  0.93083  0.34497  1.0000
  S   S1030     1.0  0.70508  0.93356  0.34273  1.0000
  S   S1031     1.0  0.73837  0.94860  0.34466  1.0000
  Fe  Fe515     1.0  0.73551  0.89906  0.34516  1.0000
  S   S1032     1.0  0.71342  0.89891  0.34292  1.0000
  S   S1033     1.0  0.75300  0.87898  0.34890  1.0000
  Fe  Fe516     1.0  0.71477  0.91959  0.32667  1.0000
  S   S1034     1.0  0.70624  0.92736  0.30614  1.0000
  Fe  Fe517     1.0  0.70521  0.91274  0.35897  1.0000
  S   S1035     1.0  0.68677  0.90879  0.37786  1.0000
  S   S1036     1.0  0.73778  0.91859  0.32746  1.0000
  S   S1037     1.0  0.72711  0.91119  0.36258  1.0000
  S   S1038     1.0  0.64919  0.97276  0.31657  1.0000
  Fe  Fe518     1.0  0.64404  0.90642  0.28525  1.0000
  S   S1039     1.0  0.63255  0.92268  0.26900  1.0000
  S   S1040     1.0  0.66849  0.89964  0.28355  1.0000
  Fe  Fe519     1.0  0.61558  0.89997  0.30464  1.0000
  S   S1041     1.0  0.60178  0.91601  0.29029  1.0000
  S   S1042     1.0  0.60683  0.88628  0.32563  1.0000
  Fe  Fe520     1.0  0.61841  0.90701  0.27248  1.0000
  S   S1043     1.0  0.61226  0.90430  0.25296  1.0000
  Fe  Fe521     1.0  0.61695  0.93009  0.28808  1.0000
  S   S1044     1.0  0.60903  0.95347  0.28918  1.0000
  S   S1045     1.0  0.63143  0.89005  0.28709  1.0000
  S   S1046     1.0  0.62917  0.91465  0.30406  1.0000
  H   H6112     1.0  0.98487  0.77246  0.42459  1.0000
  Fe  Fe522     1.0  0.56741  0.96774  0.36543  1.0000
  S   S1047     1.0  0.58584  0.95578  0.37618  1.0000
  C   C7666     1.0  0.80676  0.79370  0.46284  1.0000
  Fe  Fe523     1.0  0.54529  0.95362  0.38881  1.0000
  S   S1048     1.0  0.56185  0.94047  0.40157  1.0000
  S   S1049     1.0  0.52191  0.95198  0.39740  1.0000
  Fe  Fe524     1.0  0.57009  0.96052  0.39623  1.0000
  S   S1050     1.0  0.57591  0.97001  0.41127  1.0000
  Fe  Fe525     1.0  0.57604  0.93680  0.38036  1.0000
  S   S1051     1.0  0.58806  0.91408  0.37950  1.0000
  S   S1052     1.0  0.55229  0.97410  0.38510  1.0000
  S   S1053     1.0  0.55886  0.94835  0.36805  1.0000
  C   C7667     1.0  0.52397  0.91501  0.38046  1.0000
  H   H6113     1.0  0.91933  0.74198  0.46162  1.0000
  C   C7668     1.0  0.58938  0.97426  0.47899  1.0000
  S   S1054     1.0  0.66020  0.93009  0.45276  1.0000
  H   H6114     1.0  0.55783  0.94264  0.24866  1.0000
  H   H6115     1.0  0.68282  0.88154  0.26072  1.0000
  H   H6116     1.0  0.82160  0.77850  0.43547  1.0000
  H   H6117     1.0  0.66758  0.90365  0.24924  1.0000
  S   S1055     1.0  0.68719  0.94707  0.41798  1.0000
  C   C7669     1.0  0.70634  0.98541  0.32776  1.0000
  Fe  Fe526     1.0  0.80884  0.87013  0.43173  1.0000
  S   S1056     1.0  0.78728  0.86831  0.43010  1.0000
  S   S1057     1.0  0.80840  0.88701  0.44274  1.0000
  Fe  Fe527     1.0  0.82538  0.84686  0.41546  1.0000
  S   S1058     1.0  0.80515  0.84349  0.41187  1.0000
  S   S1059     1.0  0.84822  0.83573  0.40653  1.0000
  Fe  Fe528     1.0  0.79793  0.86754  0.40731  1.0000
  S   S1060     1.0  0.78727  0.88491  0.39110  1.0000
  Fe  Fe529     1.0  0.79626  0.84467  0.43502  1.0000
  S   S1061     1.0  0.81907  0.87081  0.40874  1.0000
  S   S1062     1.0  0.81694  0.84643  0.43886  1.0000
  H   H6118     1.0  0.94766  0.79308  0.41952  1.0000
  H   H6119     1.0  0.71842  0.98705  0.45040  1.0000
  S   S1063     1.0  0.93221  0.77366  0.41742  1.0000
  C   C7670     1.0  0.85206  0.81697  0.41249  1.0000
  C   C7671     1.0  0.84240  0.81021  0.42376  1.0000
  C   C7672     1.0  0.84581  0.79525  0.42862  1.0000
  C   C7673     1.0  0.85885  0.78700  0.42223  1.0000
  C   C7674     1.0  0.86842  0.79372  0.41082  1.0000
  C   C7675     1.0  0.86506  0.80871  0.40602  1.0000
  H   H6120     1.0  0.83237  0.81651  0.42884  1.0000
  H   H6121     1.0  0.83846  0.79013  0.43753  1.0000
  H   H6122     1.0  0.87848  0.78740  0.40581  1.0000
  H   H6123     1.0  0.87254  0.81390  0.39729  1.0000
  C   C7676     1.0  0.58984  0.95981  0.42018  1.0000
  C   C7677     1.0  0.59225  0.94487  0.42427  1.0000
  C   C7678     1.0  0.60206  0.93722  0.43309  1.0000
  C   C7679     1.0  0.60973  0.94445  0.43756  1.0000
  C   C7680     1.0  0.60772  0.95933  0.43300  1.0000
  C   C7681     1.0  0.59772  0.96696  0.42443  1.0000
  H   H6124     1.0  0.58617  0.93927  0.42107  1.0000
  H   H6125     1.0  0.60362  0.92570  0.43655  1.0000
  H   H6126     1.0  0.61362  0.96498  0.43633  1.0000
  H   H6127     1.0  0.59602  0.97843  0.42107  1.0000
  C   C7682     1.0  0.59553  0.91883  0.48236  1.0000
  C   C7683     1.0  0.54265  0.97686  0.47071  1.0000
  H   H6128     1.0  0.57510  0.93397  0.48247  1.0000
  C   C7684     1.0  0.51385  0.95079  0.38436  1.0000
  C   C7685     1.0  0.51997  0.95504  0.36985  1.0000
  C   C7686     1.0  0.51377  0.95346  0.35955  1.0000
  H   H6129     1.0  0.92717  0.85554  0.41712  1.0000
  C   C7687     1.0  0.65761  0.95084  0.26089  1.0000
  H   H6130     1.0  0.52941  0.95963  0.36655  1.0000
  H   H6131     1.0  0.51846  0.95672  0.34832  1.0000
  C   C7688     1.0  0.60102  0.89471  0.34019  1.0000
  C   C7689     1.0  0.59890  0.88619  0.35401  1.0000
  C   C7690     1.0  0.59476  0.89238  0.36587  1.0000
  C   C7691     1.0  0.59215  0.90724  0.36410  1.0000
  C   C7692     1.0  0.59365  0.91596  0.35028  1.0000
  C   C7693     1.0  0.59847  0.90963  0.33832  1.0000
  H   H6132     1.0  0.60068  0.87473  0.35559  1.0000
  H   H6133     1.0  0.59360  0.88561  0.37650  1.0000
  H   H6134     1.0  0.59170  0.92746  0.34882  1.0000
  H   H6135     1.0  0.60035  0.91623  0.32767  1.0000
  H   H6136     1.0  0.80157  0.78005  0.42434  1.0000
  C   C7694     1.0  0.69143  0.97199  0.27558  1.0000
  C   C7695     1.0  0.68209  0.98034  0.38901  1.0000
  C   C7696     1.0  0.63769  0.96785  0.30904  1.0000
  C   C7697     1.0  0.64212  0.95454  0.30528  1.0000
  C   C7698     1.0  0.63337  0.95016  0.29921  1.0000
  C   C7699     1.0  0.61992  0.95891  0.29711  1.0000
  C   C7700     1.0  0.61541  0.97227  0.30090  1.0000
  H   H6137     1.0  0.65252  0.94769  0.30682  1.0000
  H   H6138     1.0  0.63736  0.94024  0.29568  1.0000
  C   C7701     1.0  0.68617  0.91961  0.38913  1.0000
  C   C7702     1.0  0.69523  0.92932  0.38450  1.0000
  C   C7703     1.0  0.69542  0.93761  0.39353  1.0000
  C   C7704     1.0  0.68640  0.93648  0.40713  1.0000
  C   C7705     1.0  0.67695  0.92709  0.41173  1.0000
  C   C7706     1.0  0.67691  0.91855  0.40273  1.0000
  H   H6139     1.0  0.70205  0.93057  0.37390  1.0000
  H   H6140     1.0  0.70235  0.94515  0.38989  1.0000
  H   H6141     1.0  0.66981  0.92631  0.42221  1.0000
  H   H6142     1.0  0.66984  0.91109  0.40633  1.0000
  C   C7707     1.0  0.76278  0.88022  0.36063  1.0000
  C   C7708     1.0  0.76336  0.89368  0.36177  1.0000
  C   C7709     1.0  0.77074  0.89481  0.37133  1.0000
  C   C7710     1.0  0.77773  0.88253  0.37981  1.0000
  C   C7711     1.0  0.77736  0.86898  0.37864  1.0000
  C   C7712     1.0  0.76995  0.86784  0.36898  1.0000
  H   H6143     1.0  0.75826  0.90327  0.35512  1.0000
  H   H6144     1.0  0.77106  0.90528  0.37212  1.0000
  H   H6145     1.0  0.78275  0.85945  0.38515  1.0000
  H   H6146     1.0  0.76956  0.85739  0.36812  1.0000
  C   C7713     1.0  0.69485  0.91928  0.30138  1.0000
  C   C7714     1.0  0.69798  0.90449  0.30234  1.0000
  C   C7715     1.0  0.68976  0.89861  0.29693  1.0000
  C   C7716     1.0  0.67792  0.90734  0.29110  1.0000
  C   C7717     1.0  0.67451  0.92206  0.29054  1.0000
  C   C7718     1.0  0.68310  0.92802  0.29542  1.0000
  H   H6147     1.0  0.70712  0.89767  0.30672  1.0000
  H   H6148     1.0  0.69256  0.88723  0.29730  1.0000
  H   H6149     1.0  0.66549  0.92893  0.28603  1.0000
  H   H6150     1.0  0.68061  0.93945  0.29457  1.0000
  C   C7719     1.0  0.65147  0.91298  0.32576  1.0000
  H   H6151     1.0  0.55742  0.96845  0.24350  1.0000
  C   C7720     1.0  0.73010  0.94741  0.37381  1.0000
  C   C7721     1.0  0.73722  0.95401  0.36042  1.0000
  H   H6152     1.0  0.69579  0.80189  0.26313  1.0000
  H   H6153     1.0  0.64303  0.83024  0.37959  1.0000
  C   C7722     1.0  0.90997  0.83729  0.43971  1.0000
  H   H6154     1.0  0.72553  0.93844  0.37474  1.0000
  C   C7723     1.0  0.82056  0.81344  0.48348  1.0000
  C   C7724     1.0  0.54218  0.91641  0.35817  1.0000
  C   C7725     1.0  0.59123  0.87113  0.24640  1.0000
  H   H6155     1.0  0.78654  0.90550  0.40987  1.0000
  H   H6156     1.0  0.63257  0.97964  0.27092  1.0000
  C   C7726     1.0  0.60414  0.89132  0.25083  1.0000
  C   C7727     1.0  0.59804  0.88155  0.26244  1.0000
  C   C7728     1.0  0.59170  0.87150  0.26023  1.0000
  H   H6157     1.0  0.52528  0.78298  0.24143  1.0000
  C   C7729     1.0  0.69519  0.90203  0.47622  1.0000
  H   H6158     1.0  0.59811  0.88180  0.27315  1.0000
  H   H6159     1.0  0.58709  0.86397  0.26931  1.0000
  C   C7730     1.0  0.77539  0.97013  0.43044  1.0000
  H   H6160     1.0  0.55712  0.96476  0.33557  1.0000
  H   H6161     1.0  0.50523  0.80601  0.25348  1.0000
  H   H6162     1.0  0.91957  0.80349  0.42406  1.0000
  H   H6163     1.0  0.97927  0.89524  0.46800  1.0000
  H   H6164     1.0  0.56234  0.75365  0.25666  1.0000
  C   C7731     1.0  0.78192  0.91670  0.40586  1.0000
  P   P257      1.0  0.57836  0.98394  0.24521  1.0000
  H   H6165     1.0  0.64450  0.90280  0.24429  1.0000
  H   H6166     1.0  0.67326  0.87404  0.38525  1.0000
  C   C7732     1.0  0.64404  0.95980  0.26460  1.0000
  C   C7733     1.0  0.64696  0.88008  0.25282  1.0000
  C   C7734     1.0  0.94271  0.76124  0.44183  1.0000
  C   C7735     1.0  0.94170  0.77287  0.43016  1.0000
  C   C7736     1.0  0.94829  0.78413  0.42861  1.0000
  C   C7737     1.0  0.95528  0.78412  0.43904  1.0000
  P   P258      1.0  0.82437  0.78466  0.48277  1.0000
  H   H6167     1.0  0.93777  0.75246  0.44302  1.0000
  H   H6168     1.0  0.95996  0.79305  0.43798  1.0000
  H   H6169     1.0  0.90669  0.82646  0.41157  1.0000
  C   C7738     1.0  0.96692  0.86262  0.47371  1.0000
  C   C7739     1.0  0.91588  0.86793  0.45470  1.0000
  H   H6170     1.0  0.97334  0.91927  0.45275  1.0000
  H   H6171     1.0  0.91422  0.86928  0.44419  1.0000
  H   H6172     1.0  0.89812  0.88557  0.45953  1.0000
  C   C7740     1.0  0.84944  0.90374  0.43392  1.0000
  C   C7741     1.0  0.83856  0.90515  0.44622  1.0000
  C   C7742     1.0  0.82597  0.90013  0.44866  1.0000
  C   C7743     1.0  0.82428  0.89340  0.43894  1.0000
  C   C7744     1.0  0.83517  0.89191  0.42658  1.0000
  C   C7745     1.0  0.84769  0.89726  0.42398  1.0000
  H   H6173     1.0  0.83980  0.91013  0.45392  1.0000
  H   H6174     1.0  0.81769  0.90124  0.45828  1.0000
  H   H6175     1.0  0.68628  0.91403  0.33031  1.0000
  H   H6176     1.0  0.62122  0.91120  0.35240  1.0000
  C   C7746     1.0  0.80292  0.94136  0.42709  1.0000
  H   H6177     1.0  0.56295  0.95509  0.29587  1.0000
  Fe  Fe530     1.0  0.91765  0.75808  0.42357  1.0000
  H   H6178     1.0  0.54655  0.97429  0.30715  1.0000
  H   H6179     1.0  0.94067  0.75237  0.39855  1.0000
  H   H6180     1.0  0.52981  0.95445  0.27604  1.0000
  H   H6181     1.0  0.86118  0.74940  0.45718  1.0000
  C   C7747     1.0  0.79693  0.79188  0.45613  1.0000
  C   C7748     1.0  0.70189  0.91177  0.46510  1.0000
  C   C7749     1.0  0.71711  0.90894  0.46045  1.0000
  C   C7750     1.0  0.72548  0.89624  0.46717  1.0000
  P   P259      1.0  0.72551  0.92101  0.44520  1.0000
  C   C7751     1.0  0.72429  0.91713  0.42902  1.0000
  C   C7752     1.0  0.71621  0.93926  0.44624  1.0000
  C   C7753     1.0  0.71487  0.94989  0.43376  1.0000
  C   C7754     1.0  0.70795  0.96405  0.43462  1.0000
  C   C7755     1.0  0.70229  0.96769  0.44791  1.0000
  C   C7756     1.0  0.70358  0.95719  0.46040  1.0000
  C   C7757     1.0  0.71059  0.94303  0.45959  1.0000
  C   C7758     1.0  0.73469  0.92009  0.41631  1.0000
  C   C7759     1.0  0.73413  0.91653  0.40394  1.0000
  C   C7760     1.0  0.72307  0.91025  0.40409  1.0000
  C   C7761     1.0  0.71252  0.90756  0.41658  1.0000
  C   C7762     1.0  0.71306  0.91104  0.42898  1.0000
  C   C7763     1.0  0.74445  0.91868  0.44523  1.0000
  C   C7764     1.0  0.51501  0.93786  0.31737  1.0000
  S   S1064     1.0  0.84893  0.93072  0.46208  1.0000
  C   C7765     1.0  0.83874  0.80522  0.46371  1.0000
  H   H6182     1.0  0.69516  0.92140  0.45996  1.0000
  H   H6183     1.0  0.73717  0.89362  0.46373  1.0000
  H   H6184     1.0  0.71895  0.94733  0.42332  1.0000
  H   H6185     1.0  0.70678  0.97213  0.42490  1.0000
  H   H6186     1.0  0.69651  0.97855  0.44855  1.0000
  H   H6187     1.0  0.69871  0.95999  0.47069  1.0000
  H   H6188     1.0  0.71142  0.93501  0.46937  1.0000
  H   H6189     1.0  0.74312  0.92527  0.41591  1.0000
  H   H6190     1.0  0.74207  0.91886  0.39410  1.0000
  H   H6191     1.0  0.72249  0.90773  0.39446  1.0000
  H   H6192     1.0  0.70372  0.90308  0.41653  1.0000
  H   H6193     1.0  0.70457  0.90908  0.43838  1.0000
  C   C7766     1.0  0.77855  0.82877  0.46848  1.0000
  C   C7767     1.0  0.63802  0.91763  0.33442  1.0000
  H   H6194     1.0  0.65665  0.92070  0.31741  1.0000
  H   H6195     1.0  0.63279  0.92891  0.33254  1.0000
  C   C7768     1.0  0.65575  0.97734  0.26640  1.0000
  H   H6196     1.0  0.95077  0.75214  0.46112  1.0000
  C   C7769     1.0  0.99471  0.91765  0.43895  1.0000
  S   S1065     1.0  0.94461  0.80882  0.47669  1.0000
  C   C7770     1.0  0.78434  0.94434  0.48089  1.0000
  H   H6197     1.0  0.51136  0.94827  0.31091  1.0000
  Fe  Fe531     1.0  0.88003  0.90281  0.47764  1.0000
  P   P260      1.0  0.54759  0.91775  0.33908  1.0000
  C   C7771     1.0  0.63810  0.84994  0.25435  1.0000
  C   C7772     1.0  0.78600  0.92751  0.40916  1.0000
  S   S1066     1.0  0.58315  0.85805  0.24433  1.0000
  H   H6198     1.0  0.50447  0.84941  0.25247  1.0000
  C   C7773     1.0  0.70359  0.88943  0.48284  1.0000
  C   C7774     1.0  0.78637  0.83420  0.47469  1.0000
  C   C7775     1.0  0.58995  0.95480  0.25333  1.0000
  H   H6199     1.0  0.62096  0.83377  0.37053  1.0000
  C   C7776     1.0  0.80749  0.75760  0.42386  1.0000
  C   C7777     1.0  0.65080  0.84761  0.36356  1.0000
  C   C7778     1.0  0.97971  0.86758  0.46750  1.0000
  C   C7779     1.0  0.88026  0.80633  0.46548  1.0000
  C   C7780     1.0  0.75113  0.97261  0.44538  1.0000
  C   C7781     1.0  0.87663  0.79088  0.45251  1.0000
  C   C7782     1.0  0.87813  0.80149  0.44003  1.0000
  C   C7783     1.0  0.88038  0.81459  0.44025  1.0000
  C   C7784     1.0  0.88148  0.81707  0.45293  1.0000
  C   C7785     1.0  0.76579  0.93460  0.39213  1.0000
  C   C7786     1.0  0.54743  0.95353  0.28526  1.0000
  H   H6200     1.0  0.85457  0.75044  0.41562  1.0000
  C   C7787     1.0  0.56952  0.88573  0.31779  1.0000
  C   C7788     1.0  0.68298  0.98702  0.39914  1.0000
  C   C7789     1.0  0.60909  0.98341  0.46130  1.0000
  H   H6201     1.0  0.87723  0.78475  0.47465  1.0000
  H   H6202     1.0  0.63422  0.95634  0.26567  1.0000
  C   C7790     1.0  0.50544  0.76433  0.24236  1.0000
  C   C7791     1.0  0.53190  0.92167  0.33153  1.0000
  H   H6203     1.0  0.76479  0.98275  0.28016  1.0000
  C   C7792     1.0  0.83004  0.75591  0.43649  1.0000
  H   H6204     1.0  0.60516  0.96271  0.46373  1.0000
  C   C7793     1.0  0.67445  0.81068  0.27457  1.0000
  S   S1067     1.0  0.97852  0.79553  0.48001  1.0000
  Fe  Fe532     1.0  0.65983  0.94192  0.46895  1.0000
  H   H6205     1.0  0.71859  0.97978  0.34422  1.0000
  H   H6206     1.0  0.87768  0.79952  0.43015  1.0000
  H   H6207     1.0  0.88142  0.82272  0.43050  1.0000
  H   H6208     1.0  0.88354  0.82720  0.45280  1.0000
  C   C7794     1.0  0.55780  0.93166  0.33160  1.0000
  C   C7795     1.0  0.57124  0.92949  0.32187  1.0000
  C   C7796     1.0  0.57951  0.93995  0.31719  1.0000
  C   C7797     1.0  0.51828  0.98851  0.34645  1.0000
  C   C7798     1.0  0.78786  0.96766  0.46627  1.0000
  H   H6209     1.0  0.79268  0.80061  0.44805  1.0000
  C   C7799     1.0  0.54845  0.91546  0.38028  1.0000
  C   C7800     1.0  0.55242  0.91623  0.36558  1.0000
  H   H6210     1.0  0.57574  0.91953  0.31832  1.0000
  H   H6211     1.0  0.59011  0.93797  0.31014  1.0000
  H   H6212     1.0  0.84977  0.82108  0.44872  1.0000
  H   H6213     1.0  0.92073  0.91274  0.45350  1.0000
  H   H6214     1.0  0.59184  0.91074  0.47990  1.0000
  H   H6215     1.0  0.56346  0.89156  0.35594  1.0000
  H   H6216     1.0  0.57824  0.86887  0.34985  1.0000
  H   H6217     1.0  0.55638  0.91558  0.38586  1.0000
  H   H6218     1.0  0.56344  0.91688  0.35994  1.0000
  C   C7801     1.0  0.92744  0.87728  0.41583  1.0000
  C   C7802     1.0  0.91930  0.89132  0.41548  1.0000
  C   C7803     1.0  0.90449  0.89453  0.41556  1.0000
  C   C7804     1.0  0.89779  0.88370  0.41614  1.0000
  C   C7805     1.0  0.90574  0.86946  0.41715  1.0000
  C   C7806     1.0  0.92072  0.86639  0.41657  1.0000
  P   P261      1.0  0.89711  0.85551  0.41780  1.0000
  C   C7807     1.0  0.87872  0.85806  0.42835  1.0000
  C   C7808     1.0  0.87445  0.86579  0.43917  1.0000
  C   C7809     1.0  0.86005  0.86809  0.44690  1.0000
  C   C7810     1.0  0.85000  0.86216  0.44439  1.0000
  C   C7811     1.0  0.85430  0.85402  0.43401  1.0000
  C   C7812     1.0  0.86858  0.85197  0.42603  1.0000
  C   C7813     1.0  0.89785  0.85615  0.39941  1.0000
  C   C7814     1.0  0.88639  0.86355  0.37914  1.0000
  C   C7815     1.0  0.88574  0.86323  0.39335  1.0000
  H   H6219     1.0  0.93887  0.87470  0.41600  1.0000
  H   H6220     1.0  0.92442  0.89969  0.41527  1.0000
  H   H6221     1.0  0.89810  0.90539  0.41538  1.0000
  H   H6222     1.0  0.88632  0.88644  0.41608  1.0000
  H   H6223     1.0  0.88208  0.87033  0.44148  1.0000
  H   H6224     1.0  0.66970  0.98734  0.43403  1.0000
  C   C7816     1.0  0.80235  0.94987  0.41336  1.0000
  H   H6225     1.0  0.84654  0.84955  0.43186  1.0000
  H   H6226     1.0  0.87158  0.84579  0.41790  1.0000
  H   H6227     1.0  0.90728  0.84657  0.44433  1.0000
  H   H6228     1.0  0.87689  0.86872  0.37466  1.0000
  H   H6229     1.0  0.87577  0.86854  0.39955  1.0000
  H   H6230     1.0  0.70911  0.86864  0.34949  1.0000
  C   C7817     1.0  0.66407  0.83558  0.26495  1.0000
  C   C7818     1.0  0.64099  0.83869  0.37036  1.0000
  C   C7819     1.0  0.61673  0.85947  0.30005  1.0000
  H   H6231     1.0  0.65326  0.82204  0.28355  1.0000
  C   C7820     1.0  0.82029  0.76898  0.43326  1.0000
  H   H6232     1.0  0.65655  0.87261  0.37156  1.0000
  H   H6233     1.0  0.61841  0.85696  0.32163  1.0000
  H   H6234     1.0  0.60527  0.86455  0.30207  1.0000
  H   H6235     1.0  0.61843  0.86174  0.27773  1.0000
  H   H6236     1.0  0.92054  0.84533  0.39502  1.0000
  H   H6237     1.0  0.87918  0.74572  0.47157  1.0000
  H   H6238     1.0  0.75159  0.89907  0.43742  1.0000
  C   C7821     1.0  0.80902  0.76984  0.42695  1.0000
  C   C7822     1.0  0.54263  0.97024  0.30037  1.0000
  H   H6239     1.0  0.98150  0.87317  0.45639  1.0000
  C   C7823     1.0  0.91966  0.86439  0.48215  1.0000
  C   C7824     1.0  0.91089  0.85028  0.39074  1.0000
  C   C7825     1.0  0.87786  0.79323  0.46516  1.0000
  S   S1068     1.0  0.64663  0.96223  0.43384  1.0000
  H   H6240     1.0  0.56471  0.96252  0.44290  1.0000
  H   H6241     1.0  0.59914  0.95795  0.25458  1.0000
  H   H6242     1.0  0.79425  0.75780  0.47351  1.0000
  H   H6243     1.0  0.68194  0.96081  0.35505  1.0000
  H   H6244     1.0  0.87640  0.75048  0.39622  1.0000
  C   C7826     1.0  0.57710  0.98531  0.28624  1.0000
  H   H6245     1.0  0.82322  0.98951  0.47612  1.0000
  H   H6246     1.0  0.53325  0.80431  0.24171  1.0000
  H   H6247     1.0  0.51313  0.97403  0.28707  1.0000
  H   H6248     1.0  0.63335  0.97884  0.38045  1.0000
  C   C7827     1.0  0.98417  0.91259  0.45049  1.0000
  H   H6249     1.0  0.76114  0.81812  0.47245  1.0000
  C   C7828     1.0  0.90985  0.82612  0.42119  1.0000
  H   H6250     1.0  0.87463  0.78081  0.45232  1.0000
  H   H6251     1.0  0.55644  0.90698  0.31301  1.0000
  H   H6252     1.0  0.71331  0.97456  0.26491  1.0000
  C   C7829     1.0  0.71916  0.94407  0.24435  1.0000
  C   C7830     1.0  0.74206  0.97056  0.37156  1.0000
  H   H6253     1.0  0.78420  0.91909  0.47027  1.0000
  C   C7831     1.0  0.76716  0.82239  0.47717  1.0000
  C   C7832     1.0  0.98428  0.75180  0.42236  1.0000
  C   C7833     1.0  0.64079  0.95528  0.40154  1.0000
  C   C7834     1.0  0.65469  0.95811  0.39674  1.0000
  C   C7835     1.0  0.66345  0.95480  0.38393  1.0000
  C   C7836     1.0  0.65849  0.94846  0.37598  1.0000
  C   C7837     1.0  0.64450  0.94574  0.38064  1.0000
  C   C7838     1.0  0.63560  0.94933  0.39342  1.0000
  P   P262      1.0  0.63820  0.93661  0.37121  1.0000
  C   C7839     1.0  0.65307  0.92912  0.35807  1.0000
  C   C7840     1.0  0.63098  0.92291  0.38539  1.0000
  C   C7841     1.0  0.63990  0.91372  0.39456  1.0000
  C   C7842     1.0  0.63423  0.90421  0.40671  1.0000
  C   C7843     1.0  0.61951  0.90397  0.40997  1.0000
  C   C7844     1.0  0.61050  0.91326  0.40109  1.0000
  C   C7845     1.0  0.61617  0.92274  0.38888  1.0000
  C   C7846     1.0  0.65976  0.91448  0.36057  1.0000
  C   C7847     1.0  0.67174  0.90916  0.35057  1.0000
  C   C7848     1.0  0.67691  0.91825  0.33789  1.0000
  C   C7849     1.0  0.67002  0.93270  0.33502  1.0000
  C   C7850     1.0  0.65818  0.93816  0.34507  1.0000
  C   C7851     1.0  0.62557  0.94909  0.36101  1.0000
  C   C7852     1.0  0.62540  0.96381  0.35728  1.0000
  C   C7853     1.0  0.61706  0.97318  0.34779  1.0000
  C   C7854     1.0  0.60919  0.96787  0.34162  1.0000
  C   C7855     1.0  0.60947  0.95325  0.34507  1.0000
  C   C7856     1.0  0.61756  0.94392  0.35479  1.0000
  H   H6254     1.0  0.63404  0.95762  0.41157  1.0000
  H   H6255     1.0  0.65889  0.96253  0.40305  1.0000
  H   H6256     1.0  0.67436  0.95658  0.38048  1.0000
  H   H6257     1.0  0.66580  0.94523  0.36655  1.0000
  H   H6258     1.0  0.62479  0.94719  0.39733  1.0000
  H   H6259     1.0  0.65122  0.91420  0.39249  1.0000
  H   H6260     1.0  0.64119  0.89731  0.41375  1.0000
  H   H6261     1.0  0.61503  0.89678  0.41948  1.0000
  H   H6262     1.0  0.59902  0.91328  0.40374  1.0000
  H   H6263     1.0  0.60885  0.93011  0.38250  1.0000
  H   H6264     1.0  0.65612  0.90712  0.37028  1.0000
  H   H6265     1.0  0.67396  0.93967  0.32505  1.0000
  H   H6266     1.0  0.65316  0.94948  0.34272  1.0000
  H   H6267     1.0  0.63208  0.96803  0.36127  1.0000
  H   H6268     1.0  0.51739  0.82427  0.25462  1.0000
  H   H6269     1.0  0.60300  0.97506  0.33402  1.0000
  H   H6270     1.0  0.60339  0.94919  0.34021  1.0000
  H   H6271     1.0  0.61768  0.93265  0.35738  1.0000
  C   C7857     1.0  0.78159  0.93080  0.35671  1.0000
  C   C7858     1.0  0.77778  0.92703  0.34608  1.0000
  C   C7859     1.0  0.78718  0.91627  0.33938  1.0000
  C   C7860     1.0  0.80045  0.90934  0.34323  1.0000
  C   C7861     1.0  0.80423  0.91279  0.35418  1.0000
  C   C7862     1.0  0.79470  0.92363  0.36088  1.0000
  P   P263      1.0  0.82200  0.90460  0.35805  1.0000
  C   C7863     1.0  0.83496  0.90966  0.34175  1.0000
  C   C7864     1.0  0.82428  0.91097  0.37230  1.0000
  C   C7865     1.0  0.83394  0.91989  0.36984  1.0000
  C   C7866     1.0  0.83638  0.92358  0.38132  1.0000
  C   C7867     1.0  0.82934  0.91829  0.39528  1.0000
  C   C7868     1.0  0.81967  0.90953  0.39776  1.0000
  C   C7869     1.0  0.81705  0.90599  0.38633  1.0000
  C   C7870     1.0  0.84706  0.89954  0.33653  1.0000
  C   C7871     1.0  0.85689  0.90370  0.32383  1.0000
  C   C7872     1.0  0.85469  0.91795  0.31622  1.0000
  C   C7873     1.0  0.84261  0.92806  0.32129  1.0000
  C   C7874     1.0  0.83275  0.92393  0.33398  1.0000
  C   C7875     1.0  0.82511  0.88530  0.36416  1.0000
  C   C7876     1.0  0.81534  0.87759  0.36379  1.0000
  C   C7877     1.0  0.81771  0.86277  0.36924  1.0000
  C   C7878     1.0  0.82984  0.85552  0.37505  1.0000
  C   C7879     1.0  0.83966  0.86309  0.37537  1.0000
  C   C7880     1.0  0.83726  0.87791  0.37006  1.0000
  H   H6272     1.0  0.77424  0.93921  0.36179  1.0000
  H   H6273     1.0  0.76745  0.93232  0.34314  1.0000
  H   H6274     1.0  0.78406  0.91321  0.33130  1.0000
  H   H6275     1.0  0.80773  0.90121  0.33773  1.0000
  H   H6276     1.0  0.79732  0.92664  0.36927  1.0000
  H   H6277     1.0  0.83983  0.92376  0.35917  1.0000
  H   H6278     1.0  0.84399  0.93027  0.37946  1.0000
  H   H6279     1.0  0.83154  0.92074  0.40423  1.0000
  H   H6280     1.0  0.81439  0.90520  0.40859  1.0000
  H   H6281     1.0  0.80964  0.89905  0.38844  1.0000
  H   H6282     1.0  0.84891  0.88841  0.34211  1.0000
  H   H6283     1.0  0.86619  0.89584  0.31984  1.0000
  H   H6284     1.0  0.86231  0.92115  0.30637  1.0000
  H   H6285     1.0  0.84084  0.93909  0.31535  1.0000
  H   H6286     1.0  0.82339  0.93187  0.33775  1.0000
  H   H6287     1.0  0.80555  0.88295  0.35993  1.0000
  H   H6288     1.0  0.80986  0.85698  0.36934  1.0000
  H   H6289     1.0  0.83148  0.84410  0.37963  1.0000
  H   H6290     1.0  0.84889  0.85747  0.38016  1.0000
  H   H6291     1.0  0.84476  0.88365  0.37081  1.0000
  C   C7881     1.0  0.56103  0.89867  0.32118  1.0000
  C   C7882     1.0  0.92693  0.85685  0.45965  1.0000
  H   H6292     1.0  0.67243  0.98254  0.37145  1.0000
  C   C7883     1.0  0.52394  0.91107  0.33455  1.0000
  H   H6293     1.0  0.51285  0.91491  0.38617  1.0000
  H   H6294     1.0  0.58185  0.95531  0.45875  1.0000
  H   H6295     1.0  0.79375  0.92448  0.41585  1.0000
  H   H6296     1.0  0.81888  0.94217  0.46060  1.0000
  C   C7884     1.0  0.62422  0.85782  0.28627  1.0000
  C   C7885     1.0  0.89924  0.85717  0.37074  1.0000
  C   C7886     1.0  0.68201  0.96863  0.28885  1.0000
  C   C7887     1.0  0.62417  0.85525  0.31108  1.0000
  H   H6297     1.0  0.67729  0.89805  0.35280  1.0000
  C   C7888     1.0  0.58611  0.93208  0.48369  1.0000
  C   C7889     1.0  0.62434  0.97678  0.30677  1.0000
  H   H6298     1.0  0.89971  0.85734  0.35976  1.0000
  C   C7890     1.0  0.85852  0.75506  0.46568  1.0000
  H   H6299     1.0  0.60506  0.97914  0.29929  1.0000
  S   S1069     1.0  0.86285  0.76833  0.42877  1.0000
  H   H6300     1.0  0.74964  0.97002  0.34927  1.0000
  H   H6301     1.0  0.52719  0.90068  0.34131  1.0000
  H   H6302     1.0  0.79447  0.89369  0.46899  1.0000
  C   C7891     1.0  0.67651  0.83600  0.25381  1.0000
  C   C7892     1.0  0.56120  0.96525  0.45328  1.0000
  H   H6303     1.0  0.74135  0.93784  0.45280  1.0000
  C   C7893     1.0  0.90650  0.83845  0.42670  1.0000
  C   C7894     1.0  0.69227  0.87097  0.36838  1.0000
  C   C7895     1.0  0.91153  0.85066  0.37651  1.0000
  S   S1070     1.0  0.90514  0.75866  0.40775  1.0000
  C   C7896     1.0  0.86874  0.75307  0.47370  1.0000
  C   C7897     1.0  0.81895  0.96834  0.48457  1.0000
  C   C7898     1.0  0.60992  0.91627  0.48350  1.0000
  H   H6304     1.0  0.70319  0.96424  0.36135  1.0000
  C   C7899     1.0  0.60152  0.97250  0.46769  1.0000
  H   H6305     1.0  0.65796  0.96375  0.47869  1.0000
  H   H6306     1.0  0.50743  0.97416  0.25322  1.0000
  H   H6307     1.0  0.53102  0.91491  0.39901  1.0000
  C   C7900     1.0  0.84498  0.76444  0.46849  1.0000
  H   H6308     1.0  0.95539  0.74537  0.41664  1.0000
  C   C7901     1.0  0.95622  0.77255  0.45076  1.0000
  C   C7902     1.0  0.75480  0.90686  0.44087  1.0000
  C   C7903     1.0  0.53421  0.91496  0.38771  1.0000
  C   C7904     1.0  0.63149  0.90772  0.34547  1.0000
  C   C7905     1.0  0.93318  0.89649  0.46746  1.0000
  H   H6309     1.0  0.67733  0.84565  0.24553  1.0000
  C   C7906     1.0  0.74905  0.92864  0.44946  1.0000
  S   S1071     1.0  0.89835  0.75826  0.44196  1.0000
  Fe  Fe533     1.0  0.88641  0.75677  0.42661  1.0000
  C   C7907     1.0  0.53677  0.78294  0.23869  1.0000
  H   H6310     1.0  0.74690  0.97935  0.37063  1.0000
  H   H6311     1.0  0.74647  0.94731  0.30714  1.0000
  C   C7908     1.0  0.65832  0.89845  0.32806  1.0000
  C   C7909     1.0  0.63911  0.84940  0.30834  1.0000
  H   H6312     1.0  0.68344  0.90436  0.47971  1.0000
  C   C7910     1.0  0.99048  0.76360  0.41938  1.0000
  H   H6313     1.0  0.66494  0.98468  0.48073  1.0000
  H   H6314     1.0  0.79524  0.83907  0.46805  1.0000
  H   H6315     1.0  0.92156  0.84586  0.36997  1.0000
  C   C7911     1.0  0.56486  0.89008  0.34530  1.0000
  H   H6316     1.0  0.84455  0.79698  0.45779  1.0000
  C   C7912     1.0  0.75659  0.89635  0.48286  1.0000
  H   H6317     1.0  0.66893  0.89508  0.32154  1.0000
  C   C7913     1.0  0.63918  0.85173  0.28348  1.0000
  C   C7914     1.0  0.76941  0.90498  0.44097  1.0000
  H   H6318     1.0  0.64493  0.84657  0.31681  1.0000
  H   H6319     1.0  0.77736  0.89583  0.43768  1.0000
  C   C7915     1.0  0.64661  0.84769  0.29458  1.0000
  P   P264      1.0  0.78519  0.95616  0.40791  1.0000
  C   C7916     1.0  0.91702  0.81299  0.42833  1.0000
  C   C7917     1.0  0.57323  0.87709  0.34192  1.0000
  S   S1072     1.0  0.57037  0.98323  0.34414  1.0000
  C   C7918     1.0  0.63820  0.89319  0.34771  1.0000
  P   P265      1.0  0.64919  0.85104  0.26545  1.0000
  C   C7919     1.0  0.81734  0.74452  0.42695  1.0000
  C   C7920     1.0  0.66299  0.82275  0.27518  1.0000
  C   C7921     1.0  0.68861  0.96778  0.34756  1.0000
  C   C7922     1.0  0.77390  0.91500  0.44507  1.0000
  C   C7923     1.0  0.76374  0.92690  0.44920  1.0000
  C   C7924     1.0  0.65160  0.88843  0.33887  1.0000
  H   H6320     1.0  0.72458  0.93329  0.24878  1.0000
  C   C7925     1.0  0.70937  0.97856  0.34125  1.0000
  H   H6321     1.0  0.90799  0.79206  0.46512  1.0000
  C   C7926     1.0  0.65562  0.86744  0.25919  1.0000
  H   H6322     1.0  0.65826  0.84359  0.29254  1.0000
  H   H6323     1.0  0.85617  0.89598  0.41452  1.0000
  H   H6324     1.0  0.75424  0.95510  0.41977  1.0000
  H   H6325     1.0  0.92664  0.80196  0.44642  1.0000
  C   C7927     1.0  0.70058  0.96971  0.35108  1.0000
  C   C7928     1.0  0.68539  0.97467  0.33426  1.0000
  C   C7929     1.0  0.77897  0.95913  0.47652  1.0000
  H   H6326     1.0  0.80372  0.92714  0.47902  1.0000
  H   H6327     1.0  0.78463  0.77774  0.45488  1.0000
  H   H6328     1.0  0.66615  0.87013  0.29175  1.0000
  H   H6329     1.0  0.69257  0.86810  0.33533  1.0000
  H   H6330     1.0  0.63294  0.88579  0.35643  1.0000
  C   C7930     1.0  0.64311  0.97297  0.26750  1.0000
  C   C7931     1.0  0.74583  0.95876  0.30351  1.0000
  H   H6331     1.0  0.72592  0.96384  0.31855  1.0000
  C   C7932     1.0  0.80215  0.96150  0.46033  1.0000
  H   H6332     1.0  0.82986  0.96300  0.47995  1.0000
  C   C7933     1.0  0.92279  0.78187  0.47890  1.0000
  C   C7934     1.0  0.67030  0.86484  0.30130  1.0000
  C   C7935     1.0  0.66413  0.87024  0.31365  1.0000
  H   H6333     1.0  0.68683  0.84892  0.29154  1.0000
  H   H6334     1.0  0.65511  0.87950  0.31344  1.0000
  C   C7936     1.0  0.73407  0.96825  0.30996  1.0000
  H   H6335     1.0  0.79880  0.75832  0.41887  1.0000
  H   H6336     1.0  0.76597  0.95654  0.28781  1.0000
  C   C7937     1.0  0.79305  0.97854  0.36640  1.0000
  H   H6337     1.0  0.57885  0.92448  0.25665  1.0000
  C   C7938     1.0  0.84181  0.81885  0.45857  1.0000
  C   C7939     1.0  0.68189  0.85288  0.30122  1.0000
  H   H6338     1.0  0.63352  0.86891  0.33728  1.0000
  C   C7940     1.0  0.58445  0.98739  0.48327  1.0000
  C   C7941     1.0  0.67281  0.98743  0.37967  1.0000
  C   C7942     1.0  0.90970  0.79044  0.47571  1.0000
  C   C7943     1.0  0.92278  0.90902  0.46417  1.0000
  C   C7944     1.0  0.75683  0.96397  0.29269  1.0000
  C   C7945     1.0  0.66440  0.89351  0.25169  1.0000
  H   H6339     1.0  0.78613  0.97235  0.42768  1.0000
  C   C7946     1.0  0.57304  0.74663  0.25549  1.0000
  C   C7947     1.0  0.57851  0.93585  0.25457  1.0000
  C   C7948     1.0  0.68708  0.84608  0.31363  1.0000
  C   C7949     1.0  0.68082  0.85136  0.32606  1.0000
  C   C7950     1.0  0.66962  0.86377  0.32602  1.0000
  P   P266      1.0  0.66088  0.86988  0.34234  1.0000
  H   H6340     1.0  0.69597  0.83672  0.31363  1.0000
  S   S1073     1.0  0.86815  0.95685  0.46747  1.0000
  C   C7951     1.0  0.99012  0.86526  0.47553  1.0000
  H   H6341     1.0  0.78529  0.91350  0.44493  1.0000
  C   C7952     1.0  0.55204  0.95923  0.29399  1.0000
  H   H6342     1.0  0.69019  0.98147  0.40637  1.0000
  H   H6343     1.0  0.76497  0.95652  0.39128  1.0000
  H   H6344     1.0  0.58114  0.96049  0.31886  1.0000
  H   H6345     1.0  0.99205  0.92825  0.43227  1.0000
  C   C7953     1.0  0.82874  0.74359  0.43325  1.0000
  C   C7954     1.0  0.80767  0.94687  0.46489  1.0000
  S   S1074     1.0  0.86302  0.89614  0.47185  1.0000
  C   C7955     1.0  0.68694  0.81127  0.26364  1.0000
  C   C7956     1.0  0.68827  0.86860  0.34644  1.0000
  H   H6346     1.0  0.68475  0.84580  0.33569  1.0000
  H   H6347     1.0  0.65482  0.98749  0.26890  1.0000
  C   C7957     1.0  0.79239  0.77898  0.46000  1.0000
  C   C7958     1.0  0.68795  0.82391  0.25323  1.0000
  C   C7959     1.0  0.55868  0.90097  0.33495  1.0000
  H   H6348     1.0  0.53972  0.97631  0.45030  1.0000
  H   H6349     1.0  0.68874  0.96974  0.38836  1.0000
  H   H6350     1.0  0.59933  0.93233  0.25953  1.0000
  C   C7960     1.0  0.57900  0.98031  0.27396  1.0000
  C   C7961     1.0  0.68720  0.96455  0.30135  1.0000
  C   C7962     1.0  0.63571  0.86049  0.34652  1.0000
  H   H6351     1.0  0.66050  0.84575  0.36750  1.0000
  C   C7963     1.0  0.66946  0.96865  0.26212  1.0000
  C   C7964     1.0  0.57561  0.87493  0.32817  1.0000
  C   C7965     1.0  0.59010  0.94024  0.25619  1.0000
  H   H6352     1.0  0.61644  0.85301  0.34921  1.0000
  C   C7966     1.0  0.64809  0.85870  0.35172  1.0000
  C   C7967     1.0  0.67344  0.86932  0.35270  1.0000
  H   H6353     1.0  0.83408  0.88648  0.41914  1.0000
  C   C7968     1.0  0.56651  0.96072  0.24720  1.0000
  H   H6354     1.0  0.68064  0.94809  0.25673  1.0000
  C   C7969     1.0  0.70054  0.96568  0.24755  1.0000
  C   C7970     1.0  0.91455  0.91644  0.47479  1.0000
  C   C7971     1.0  0.75023  0.94592  0.47986  1.0000
  H   H6355     1.0  0.83554  0.86773  0.47855  1.0000
  H   H6356     1.0  0.58243  0.86502  0.32549  1.0000
  Fe  Fe534     1.0  0.86725  0.93430  0.46880  1.0000
  H   H6357     1.0  0.58381  0.96910  0.27416  1.0000
  P   P267      1.0  0.68565  0.97519  0.25919  1.0000
  C   C7972     1.0  0.78174  0.98501  0.39339  1.0000
  C   C7973     1.0  0.51139  0.91401  0.32935  1.0000
  C   C7974     1.0  0.69767  0.86913  0.35437  1.0000
  C   C7975     1.0  0.62601  0.85147  0.35325  1.0000
  C   C7976     1.0  0.90672  0.87717  0.46342  1.0000
  C   C7977     1.0  0.62858  0.84064  0.36523  1.0000
  C   C7978     1.0  0.61898  0.84078  0.25139  1.0000
  C   C7979     1.0  0.80766  0.76953  0.47721  1.0000
  H   H6358     1.0  0.70585  0.95984  0.31040  1.0000
  H   H6359     1.0  0.79731  0.97607  0.35594  1.0000
  H   H6360     1.0  0.63656  0.88004  0.25117  1.0000
  C   C7980     1.0  0.57812  0.96518  0.24891  1.0000
  H   H6361     1.0  0.72339  0.94727  0.39637  1.0000
  C   C7981     1.0  0.57444  0.95266  0.32208  1.0000
  H   H6362     1.0  0.61742  0.90629  0.48173  1.0000
  C   C7982     1.0  0.92084  0.81206  0.44103  1.0000
  H   H6363     1.0  0.75872  0.90616  0.47548  1.0000
  H   H6364     1.0  0.73241  0.95594  0.46920  1.0000
  C   C7983     1.0  0.52398  0.97001  0.28905  1.0000
  H   H6365     1.0  0.80909  0.96812  0.45249  1.0000
  C   C7984     1.0  0.70769  0.95169  0.25313  1.0000
  H   H6366     1.0  0.60903  0.97494  0.38172  1.0000
  H   H6367     1.0  0.93908  0.89038  0.45939  1.0000
  H   H6368     1.0  0.72233  0.96707  0.28709  1.0000
  H   H6369     1.0  0.53322  0.94348  0.32045  1.0000
  C   C7985     1.0  0.73953  0.98637  0.48334  1.0000
  H   H6370     1.0  0.61699  0.98452  0.34487  1.0000
  C   C7986     1.0  0.66807  0.87125  0.36678  1.0000
  C   C7987     1.0  0.75753  0.96049  0.42592  1.0000
  H   H6371     1.0  0.67358  0.80081  0.28251  1.0000
  C   C7988     1.0  0.72893  0.95240  0.38602  1.0000
  H   H6372     1.0  0.85655  0.87490  0.45452  1.0000
  H   H6373     1.0  0.76726  0.93480  0.45212  1.0000
  H   H6374     1.0  0.51951  0.91657  0.36036  1.0000
  C   C7989     1.0  0.88082  0.95866  0.47583  1.0000
  H   H6375     1.0  0.69755  0.82431  0.24463  1.0000
  Fe  Fe535     1.0  0.98418  0.81419  0.46276  1.0000
  C   C7990     1.0  0.88539  0.97157  0.47186  1.0000
  H   H6376     1.0  0.55474  0.94488  0.28051  1.0000
  H   H6377     1.0  0.62503  0.83687  0.27133  1.0000
  H   H6378     1.0  0.92008  0.82343  0.45669  1.0000
  H   H6379     1.0  0.97376  0.75191  0.42962  1.0000
  C   C7991     1.0  0.56673  0.94608  0.25005  1.0000
  C   C7992     1.0  0.70588  0.97192  0.27504  1.0000
  H   H6380     1.0  0.88134  0.98014  0.46356  1.0000
  H   H6381     1.0  0.76801  0.96406  0.48123  1.0000
  C   C7993     1.0  0.65140  0.89304  0.24897  1.0000
  C   C7994     1.0  0.50617  0.82729  0.25367  1.0000
  C   C7995     1.0  0.66863  0.86800  0.26198  1.0000
  C   C7996     1.0  0.79217  0.96747  0.37863  1.0000
  C   C7997     1.0  0.67747  0.87207  0.37457  1.0000
  Fe  Fe536     1.0  0.95301  0.82656  0.45965  1.0000
  H   H6382     1.0  0.69948  0.87206  0.37427  1.0000
  C   C7998     1.0  0.56633  0.96446  0.47590  1.0000
  C   C7999     1.0  0.76276  0.88325  0.47879  1.0000
  C   C8000     1.0  0.95016  0.76101  0.45200  1.0000
  H   H6383     1.0  0.65830  0.94040  0.25915  1.0000
  C   C8001     1.0  0.79892  0.93834  0.47526  1.0000
  C   C8002     1.0  0.70175  0.96380  0.30071  1.0000
  C   C8003     1.0  0.89536  0.97343  0.47840  1.0000
  H   H6384     1.0  0.74324  0.97646  0.45421  1.0000
  H   H6385     1.0  0.67080  0.96866  0.28961  1.0000
  C   C8004     1.0  0.73319  0.98310  0.30558  1.0000
  C   C8005     1.0  0.75614  0.97872  0.28839  1.0000
  C   C8006     1.0  0.62353  0.98597  0.38474  1.0000
  H   H6386     1.0  0.83443  0.89332  0.47636  1.0000
  H   H6387     1.0  0.89923  0.98323  0.47482  1.0000
  C   C8007     1.0  0.52787  0.91588  0.36573  1.0000
  H   H6388     1.0  0.76786  0.98130  0.44755  1.0000
  H   H6389     1.0  0.57154  0.88413  0.30708  1.0000
  S   S1075     1.0  0.78254  0.82962  0.45000  1.0000
  Fe  Fe537     1.0  0.66840  0.94832  0.43651  1.0000
  C   C8008     1.0  0.92099  0.74365  0.48205  1.0000
  H   H6390     1.0  0.70436  0.94663  0.26431  1.0000
  S   S1076     1.0  0.96627  0.83033  0.47243  1.0000
  H   H6391     1.0  0.51719  0.88654  0.23826  1.0000
  C   C8009     1.0  0.73560  0.94960  0.47900  1.0000
  H   H6392     1.0  0.67599  0.97329  0.33162  1.0000
  C   C8010     1.0  0.71874  0.88658  0.47838  1.0000
  H   H6393     1.0  0.83876  0.86427  0.45019  1.0000
  H   H6394     1.0  0.58054  0.97796  0.29556  1.0000
  C   C8011     1.0  0.81220  0.78250  0.47343  1.0000
  C   C8012     1.0  0.76509  0.97514  0.44180  1.0000
  Fe  Fe538     1.0  0.63829  0.94466  0.45108  1.0000
  C   C8013     1.0  0.52845  0.97569  0.29802  1.0000
  S   S1077     1.0  0.63713  0.95471  0.46894  1.0000
  C   C8014     1.0  0.60992  0.98393  0.38522  1.0000
  H   H6395     1.0  0.83676  0.84021  0.46212  1.0000
  C   C8015     1.0  0.55228  0.97273  0.47984  1.0000
  C   C8016     1.0  0.57083  0.96107  0.46238  1.0000
  H   H6396     1.0  0.61020  0.83515  0.25591  1.0000
  Fe  Fe539     1.0  0.64784  0.97085  0.45172  1.0000
  H   H6397     1.0  0.83886  0.93663  0.42598  1.0000
  C   C8017     1.0  0.78641  0.97061  0.39223  1.0000
  H   H6398     1.0  0.83741  0.76598  0.46192  1.0000
  C   C8018     1.0  0.76990  0.94543  0.39532  1.0000
  C   C8019     1.0  0.74352  0.96534  0.35944  1.0000
  H   H6399     1.0  0.76863  0.91184  0.39489  1.0000
  C   C8020     1.0  0.73472  0.96411  0.38492  1.0000
  H   H6400     1.0  0.81637  0.93006  0.44218  1.0000
  C   C8021     1.0  0.82867  0.94038  0.42246  1.0000
  C   C8022     1.0  0.77184  0.92024  0.39735  1.0000
  H   H6401     1.0  0.83804  0.95182  0.40175  1.0000
  C   C8023     1.0  0.82821  0.94889  0.40878  1.0000
  H   H6402     1.0  0.93700  0.84639  0.47753  1.0000
  C   C8024     1.0  0.81602  0.93664  0.43159  1.0000
  C   C8025     1.0  0.90858  0.87539  0.47718  1.0000
  H   H6403     1.0  0.62079  0.98701  0.30982  1.0000
  H   H6404     1.0  0.51208  0.98537  0.35722  1.0000
  H   H6405     1.0  0.54268  0.94621  0.34420  1.0000
  C   C8026     1.0  0.91714  0.82415  0.44681  1.0000
  H   H6406     1.0  0.90621  0.92594  0.47229  1.0000
  H   H6407     1.0  0.73625  0.96407  0.43963  1.0000
  H   H6408     1.0  0.79322  0.93839  0.43434  1.0000
  C   C8027     1.0  0.81512  0.95357  0.40419  1.0000
  C   C8028     1.0  0.53341  0.95893  0.28276  1.0000
  H   H6409     1.0  0.81502  0.96018  0.39358  1.0000
  H   H6410     1.0  0.79589  0.95645  0.37749  1.0000
  C   C8029     1.0  0.55272  0.94454  0.33633  1.0000
  C   C8030     1.0  0.77171  0.96267  0.42247  1.0000
  C   C8031     1.0  0.78008  0.94198  0.40384  1.0000
  C   C8032     1.0  0.67302  0.88099  0.25815  1.0000
  P   P268      1.0  0.88239  0.80861  0.48192  1.0000
  C   C8033     1.0  0.52740  0.93509  0.32282  1.0000
  C   C8034     1.0  0.98759  0.89892  0.45912  1.0000
  H   H6411     1.0  0.75783  0.93734  0.38568  1.0000
  C   C8035     1.0  0.74727  0.96547  0.43733  1.0000
  C   C8036     1.0  0.92874  0.85505  0.47347  1.0000
  H   H6412     1.0  0.61866  0.98175  0.45283  1.0000
  H   H6413     1.0  0.72528  0.87679  0.48347  1.0000
  H   H6414     1.0  0.76977  0.88287  0.46830  1.0000
  C   C8037     1.0  0.83441  0.82967  0.46599  1.0000
  S   S1078     1.0  0.73407  0.96940  0.40057  1.0000
  S   S1079     1.0  0.67044  0.95858  0.45263  1.0000
  S   S1080     1.0  0.97175  0.81195  0.44816  1.0000
  H   H6415     1.0  0.78385  0.97911  0.46307  1.0000
  H   H6416     1.0  0.80983  0.80395  0.45985  1.0000
  H   H6417     1.0  0.93098  0.77699  0.47088  1.0000
  C   C8038     1.0  0.71104  0.96774  0.28758  1.0000
  H   H6418     1.0  0.75829  0.94938  0.47057  1.0000
  H   H6419     1.0  0.77719  0.98789  0.40364  1.0000
  H   H6420     1.0  0.68004  0.96150  0.31154  1.0000
  Fe  Fe540     1.0  0.96450  0.79440  0.46631  1.0000
  S   S1081     1.0  0.96458  0.77242  0.46416  1.0000
  H   H6421     1.0  0.67518  0.85854  0.26746  1.0000
  H   H6422     1.0  0.73138  0.98574  0.47834  1.0000
  C   C8039     1.0  0.69431  0.98334  0.32434  1.0000
  C   C8040     1.0  0.82817  0.80235  0.47630  1.0000
  H   H6423     1.0  0.62641  0.98216  0.48388  1.0000
  C   C8041     1.0  0.86566  0.76089  0.48417  1.0000
  H   H6424     1.0  0.95904  0.86422  0.46739  1.0000
  C   C8042     1.0  0.82366  0.82703  0.47829  1.0000
  C   C8043     1.0  0.81522  0.98327  0.48244  1.0000
  C   C8044     1.0  0.87170  0.83849  0.47692  1.0000
  H   H6425     1.0  0.86334  0.83696  0.47282  1.0000
  C   C8045     1.0  0.93543  0.89146  0.48137  1.0000
  H   H6426     1.0  0.86216  0.86099  0.47577  1.0000
  H   H6427     1.0  0.50341  0.98460  0.33685  1.0000
  H   H6428     1.0  0.92771  0.75143  0.47751  1.0000
  H   H6429     1.0  0.69186  0.98829  0.31397  1.0000
  C   C8046     1.0  0.50689  0.92743  0.32083  1.0000
  H   H6430     1.0  0.74189  0.98441  0.32951  1.0000
  C   C8047     1.0  0.87114  0.85226  0.47822  1.0000
  C   C8048     1.0  0.84162  0.77204  0.47931  1.0000
  H   H6431     1.0  0.51615  0.75423  0.25983  1.0000
  C   C8049     1.0  0.51461  0.75325  0.24988  1.0000
  H   H6432     1.0  0.50494  0.90601  0.33223  1.0000
  H   H6433     1.0  0.50309  0.96705  0.32450  1.0000
  C   C8050     1.0  0.51344  0.98800  0.33477  1.0000
  C   C8051     1.0  0.74442  0.98825  0.29489  1.0000
  H   H6434     1.0  0.53177  0.98310  0.47383  1.0000
  H   H6435     1.0  0.54138  0.89037  0.23918  1.0000
  C   C8052     1.0  0.88277  0.82690  0.48122  1.0000
  C   C8053     1.0  0.78478  0.91099  0.48002  1.0000
  C   C8054     1.0  0.79065  0.89665  0.47922  1.0000
  C   C8055     1.0  0.57512  0.98982  0.26160  1.0000
  P   P269      1.0  0.51627  0.99052  0.30541  1.0000
  C   C8056     1.0  0.62174  0.84714  0.23683  1.0000
  Fe  Fe541     1.0  0.84732  0.91355  0.48206  1.0000
  C   C8057     1.0  0.00156  0.89014  0.45620  1.0000
  C   C8058     1.0  0.60362  0.89100  0.23700  1.0000
  H   H6436     1.0  0.51844  0.99017  0.25965  1.0000
  C   C8059     1.0  0.88190  0.85473  0.48318  1.0000
  H   H6437     1.0  0.94309  0.88150  0.48395  1.0000
  H   H6438     1.0  0.81769  0.83555  0.48383  1.0000
  H   H6439     1.0  0.84909  0.97834  0.48467  1.0000
  H   H6440     1.0  0.88138  0.86538  0.48428  1.0000
  C   C8060     1.0  0.54123  0.79500  0.23880  1.0000
  H   H6441     1.0  0.81163  0.76086  0.48549  1.0000
  H   H6442     1.0  0.94904  0.74162  0.37736  1.0000
  H   H6443     1.0  0.99278  0.81825  0.48580  1.0000
  H   H6444     1.0  0.76506  0.86040  0.48528  1.0000
  C   C8061     1.0  0.58177  0.74543  0.24191  1.0000
  H   H6445     1.0  0.52985  0.96929  0.23587  1.0000
  C   C8062     1.0  0.89388  0.82966  0.48566  1.0000
  C   C8063     1.0  0.66492  0.96226  0.48579  1.0000
  H   H6446     1.0  0.52131  0.94252  0.65404  1.0000
  C   C8064     1.0  0.74856  0.98187  0.58633  1.0000
  H   H6447     1.0  0.95473  0.85090  0.49259  1.0000
  C   C8065     1.0  0.65125  0.94780  0.53783  1.0000
  C   C8066     1.0  0.85322  0.81187  0.49643  1.0000
  C   C8067     1.0  0.72330  0.91513  0.70251  1.0000
  Fe  Fe542     1.0  0.90733  0.74447  0.55978  1.0000
  C   C8068     1.0  0.68776  0.98184  0.60053  1.0000
  C   C8069     1.0  0.77691  0.98362  0.58452  1.0000
  C   C8070     1.0  0.84348  0.79400  0.51599  1.0000
  H   H6448     1.0  0.73792  0.82851  0.55787  1.0000
  H   H6449     1.0  0.82013  0.76564  0.53510  1.0000
  H   H6450     1.0  0.81796  0.98734  0.56607  1.0000
  C   C8071     1.0  0.71245  0.84931  0.61591  1.0000
  H   H6451     1.0  0.78683  0.98357  0.55606  1.0000
  H   H6452     1.0  0.71361  0.85454  0.60470  1.0000
  H   H6453     1.0  0.71362  0.94825  0.49025  1.0000
  C   C8072     1.0  0.79452  0.96723  0.49833  1.0000
  S   S1082     1.0  0.68720  0.92888  0.69578  1.0000
  C   C8073     1.0  0.72587  0.89083  0.59675  1.0000
  S   S1083     1.0  0.58837  0.95313  0.62990  1.0000
  C   C8074     1.0  0.90054  0.96254  0.48925  1.0000
  Fe  Fe543     1.0  0.59535  0.96404  0.64265  1.0000
  S   S1084     1.0  0.61605  0.95265  0.64998  1.0000
  H   H6454     1.0  0.91667  0.78362  0.51356  1.0000
  H   H6455     1.0  0.68005  0.90743  0.68571  1.0000
  H   H6456     1.0  0.74997  0.87043  0.62066  1.0000
  C   C8075     1.0  0.63744  0.99051  0.60581  1.0000
  Fe  Fe544     1.0  0.68634  0.96559  0.54933  1.0000
  S   S1085     1.0  0.70130  0.97472  0.52943  1.0000
  S   S1086     1.0  0.69270  0.94312  0.56167  1.0000
  C   C8076     1.0  0.68782  0.98324  0.63857  1.0000
  C   C8077     1.0  0.91473  0.78560  0.50298  1.0000
  H   H6457     1.0  0.72955  0.90324  0.57512  1.0000
  S   S1087     1.0  0.66603  0.97547  0.54099  1.0000
  H   H6458     1.0  0.77232  0.83877  0.59814  1.0000
  Fe  Fe545     1.0  0.75159  0.92619  0.60101  1.0000
  S   S1088     1.0  0.77383  0.91975  0.60543  1.0000
  S   S1089     1.0  0.74931  0.94152  0.58022  1.0000
  Fe  Fe546     1.0  0.73821  0.90886  0.62943  1.0000
  S   S1090     1.0  0.75950  0.90092  0.63622  1.0000
  S   S1091     1.0  0.71804  0.90086  0.64244  1.0000
  Fe  Fe547     1.0  0.76200  0.92368  0.62712  1.0000
  S   S1092     1.0  0.77169  0.93437  0.63797  1.0000
  Fe  Fe548     1.0  0.76923  0.89781  0.61384  1.0000
  S   S1093     1.0  0.78499  0.87786  0.60813  1.0000
  S   S1094     1.0  0.73991  0.93194  0.62206  1.0000
  S   S1095     1.0  0.74778  0.90393  0.60775  1.0000
  Fe  Fe549     1.0  0.80991  0.83855  0.52094  1.0000
  S   S1096     1.0  0.78763  0.85199  0.52016  1.0000
  S   S1097     1.0  0.82728  0.84574  0.50257  1.0000
  Fe  Fe550     1.0  0.79959  0.81825  0.54811  1.0000
  S   S1098     1.0  0.77634  0.83023  0.54970  1.0000
  S   S1099     1.0  0.80327  0.79839  0.56529  1.0000
  Fe  Fe551     1.0  0.78087  0.83121  0.52627  1.0000
  S   S1100     1.0  0.76509  0.82685  0.51654  1.0000
  Fe  Fe552     1.0  0.78541  0.84987  0.54352  1.0000
  S   S1101     1.0  0.77467  0.87018  0.55139  1.0000
  S   S1102     1.0  0.80336  0.81769  0.52513  1.0000
  S   S1103     1.0  0.80837  0.83790  0.54392  1.0000
  H   H6459     1.0  0.91876  0.79004  0.55024  1.0000
  C   C8078     1.0  0.81852  0.78481  0.56083  1.0000
  C   C8079     1.0  0.83222  0.78777  0.55382  1.0000
  C   C8080     1.0  0.55880  0.95420  0.51206  1.0000
  C   C8081     1.0  0.81701  0.77060  0.56530  1.0000
  H   H6460     1.0  0.83351  0.79873  0.55060  1.0000
  C   C8082     1.0  0.92048  0.79741  0.53997  1.0000
  H   H6461     1.0  0.80651  0.76824  0.57085  1.0000
  C   C8083     1.0  0.77091  0.82728  0.49812  1.0000
  C   C8084     1.0  0.67002  0.94861  0.49359  1.0000
  C   C8085     1.0  0.96323  0.76529  0.50482  1.0000
  C   C8086     1.0  0.68631  0.98158  0.66358  1.0000
  C   C8087     1.0  0.60622  0.98409  0.58304  1.0000
  C   C8088     1.0  0.50525  0.87070  0.57390  1.0000
  H   H6462     1.0  0.98808  0.77029  0.51189  1.0000
  C   C8089     1.0  0.59752  0.95304  0.55570  1.0000
  H   H6463     1.0  0.78659  0.96088  0.50438  1.0000
  H   H6464     1.0  0.75421  0.81712  0.49840  1.0000
  H   H6465     1.0  0.74440  0.81004  0.58776  1.0000
  C   C8090     1.0  0.78276  0.87554  0.59216  1.0000
  C   C8091     1.0  0.77632  0.88727  0.58277  1.0000
  C   C8092     1.0  0.77418  0.88550  0.57020  1.0000
  C   C8093     1.0  0.77853  0.87200  0.56683  1.0000
  C   C8094     1.0  0.78524  0.86023  0.57605  1.0000
  C   C8095     1.0  0.78734  0.86201  0.58874  1.0000
  H   H6466     1.0  0.77307  0.89781  0.58513  1.0000
  H   H6467     1.0  0.76900  0.89466  0.56317  1.0000
  H   H6468     1.0  0.78870  0.84979  0.57346  1.0000
  H   H6469     1.0  0.79246  0.85292  0.59593  1.0000
  C   C8096     1.0  0.75558  0.87780  0.67226  1.0000
  C   C8097     1.0  0.74125  0.88484  0.67158  1.0000
  C   C8098     1.0  0.77347  0.95971  0.64161  1.0000
  C   C8099     1.0  0.76618  0.95310  0.63610  1.0000
  C   C8100     1.0  0.75475  0.96145  0.62952  1.0000
  C   C8101     1.0  0.75329  0.84741  0.62345  1.0000
  H   H6470     1.0  0.73151  0.82827  0.60202  1.0000
  H   H6471     1.0  0.78220  0.95333  0.64681  1.0000
  H   H6472     1.0  0.74889  0.95638  0.62549  1.0000
  H   H6473     1.0  0.73804  0.88827  0.66143  1.0000
  C   C8102     1.0  0.69539  0.92056  0.68129  1.0000
  C   C8103     1.0  0.70798  0.92450  0.67209  1.0000
  C   C8104     1.0  0.71484  0.91860  0.66010  1.0000
  C   C8105     1.0  0.70920  0.90859  0.65727  1.0000
  C   C8106     1.0  0.69664  0.90449  0.66656  1.0000
  C   C8107     1.0  0.68969  0.91053  0.67855  1.0000
  H   H6474     1.0  0.71240  0.93222  0.67425  1.0000
  H   H6475     1.0  0.72457  0.92171  0.65310  1.0000
  H   H6476     1.0  0.69237  0.89658  0.66454  1.0000
  H   H6477     1.0  0.72450  0.87607  0.61711  1.0000
  H   H6478     1.0  0.71373  0.94383  0.71783  1.0000
  C   C8108     1.0  0.75220  0.98212  0.54737  1.0000
  C   C8109     1.0  0.65821  0.93775  0.56058  1.0000
  C   C8110     1.0  0.97490  0.85239  0.49590  1.0000
  Fe  Fe553     1.0  0.58485  0.97480  0.61522  1.0000
  C   C8111     1.0  0.84442  0.77642  0.55159  1.0000
  H   H6479     1.0  0.78866  0.83750  0.49435  1.0000
  S   S1104     1.0  0.61087  0.94321  0.71582  1.0000
  H   H6480     1.0  0.82146  0.94178  0.57801  1.0000
  C   C8112     1.0  0.70821  0.94268  0.56725  1.0000
  C   C8113     1.0  0.71554  0.95384  0.56122  1.0000
  C   C8114     1.0  0.72829  0.95328  0.56507  1.0000
  C   C8115     1.0  0.73358  0.94172  0.57529  1.0000
  C   C8116     1.0  0.72612  0.93068  0.58162  1.0000
  C   C8117     1.0  0.71354  0.93105  0.57743  1.0000
  H   H6481     1.0  0.71147  0.96301  0.55360  1.0000
  H   H6482     1.0  0.73381  0.96201  0.56037  1.0000
  H   H6483     1.0  0.73007  0.92183  0.58963  1.0000
  H   H6484     1.0  0.70795  0.92239  0.58206  1.0000
  Fe  Fe554     1.0  0.89610  0.77446  0.54331  1.0000
  H   H6485     1.0  0.71923  0.89989  0.60124  1.0000
  C   C8118     1.0  0.73175  0.89278  0.58209  1.0000
  C   C8119     1.0  0.74088  0.88128  0.57641  1.0000
  Fe  Fe555     1.0  0.63305  0.93501  0.72058  1.0000
  C   C8120     1.0  0.76610  0.83251  0.59605  1.0000
  C   C8121     1.0  0.54829  0.94824  0.62449  1.0000
  C   C8122     1.0  0.54114  0.94849  0.61408  1.0000
  H   H6486     1.0  0.54880  0.97615  0.48985  1.0000
  H   H6487     1.0  0.94486  0.77084  0.53776  1.0000
  C   C8123     1.0  0.76549  0.81400  0.58509  1.0000
  Fe  Fe556     1.0  0.66601  0.92748  0.71186  1.0000
  C   C8124     1.0  0.61445  0.94990  0.66833  1.0000
  C   C8125     1.0  0.60172  0.95615  0.67696  1.0000
  C   C8126     1.0  0.60047  0.95362  0.69168  1.0000
  C   C8127     1.0  0.61223  0.94539  0.69766  1.0000
  C   C8128     1.0  0.62504  0.93922  0.68906  1.0000
  C   C8129     1.0  0.62606  0.94129  0.67443  1.0000
  H   H6488     1.0  0.59298  0.96320  0.67230  1.0000
  H   H6489     1.0  0.59065  0.95858  0.69832  1.0000
  H   H6490     1.0  0.63417  0.93285  0.69365  1.0000
  H   H6491     1.0  0.63593  0.93642  0.66779  1.0000
  C   C8130     1.0  0.93654  0.80971  0.52015  1.0000
  C   C8131     1.0  0.76945  0.83316  0.63926  1.0000
  C   C8132     1.0  0.91131  0.81305  0.51957  1.0000
  C   C8133     1.0  0.90915  0.80339  0.53278  1.0000
  C   C8134     1.0  0.93405  0.80094  0.53384  1.0000
  C   C8135     1.0  0.89610  0.94953  0.49317  1.0000
  C   C8136     1.0  0.80054  0.78042  0.53027  1.0000
  H   H6492     1.0  0.94284  0.79627  0.53938  1.0000
  H   H6493     1.0  0.54661  0.95033  0.60293  1.0000
  C   C8137     1.0  0.83122  0.87235  0.48786  1.0000
  H   H6494     1.0  0.57248  0.90649  0.73080  1.0000
  C   C8138     1.0  0.99933  0.76910  0.50608  1.0000
  C   C8139     1.0  0.84276  0.76221  0.55585  1.0000
  C   C8140     1.0  0.82502  0.89292  0.49857  1.0000
  C   C8141     1.0  0.81938  0.88463  0.51174  1.0000
  C   C8142     1.0  0.81988  0.87012  0.51299  1.0000
  C   C8143     1.0  0.82606  0.86393  0.50109  1.0000
  C   C8144     1.0  0.66851  0.97425  0.48727  1.0000
  C   C8145     1.0  0.55259  0.95369  0.52658  1.0000
  H   H6495     1.0  0.81496  0.88930  0.52101  1.0000
  H   H6496     1.0  0.81576  0.86369  0.52322  1.0000
  C   C8146     1.0  0.97842  0.88237  0.51137  1.0000
  C   C8147     1.0  0.76954  0.97453  0.64045  1.0000
  H   H6497     1.0  0.59856  0.94411  0.53246  1.0000
  H   H6498     1.0  0.70977  0.98383  0.59073  1.0000
  H   H6499     1.0  0.73166  0.83472  0.64208  1.0000
  H   H6500     1.0  0.70714  0.98763  0.70139  1.0000
  H   H6501     1.0  0.82762  0.95227  0.61367  1.0000
  C   C8148     1.0  0.62441  0.98082  0.68710  1.0000
  C   C8149     1.0  0.82671  0.80082  0.58493  1.0000
  C   C8150     1.0  0.83597  0.78723  0.58583  1.0000
  C   C8151     1.0  0.85092  0.78590  0.58052  1.0000
  C   C8152     1.0  0.85664  0.79814  0.57434  1.0000
  C   C8153     1.0  0.84741  0.81186  0.57354  1.0000
  C   C8154     1.0  0.83236  0.81309  0.57871  1.0000
  P   P270      1.0  0.85475  0.82761  0.56466  1.0000
  C   C8155     1.0  0.84272  0.84287  0.57139  1.0000
  C   C8156     1.0  0.87267  0.82423  0.56802  1.0000
  C   C8157     1.0  0.88448  0.82739  0.55682  1.0000
  C   C8158     1.0  0.89850  0.82374  0.55933  1.0000
  C   C8159     1.0  0.90084  0.81695  0.57299  1.0000
  C   C8160     1.0  0.88915  0.81384  0.58421  1.0000
  C   C8161     1.0  0.87512  0.81744  0.58174  1.0000
  C   C8162     1.0  0.83075  0.85069  0.56535  1.0000
  C   C8163     1.0  0.82136  0.86245  0.57049  1.0000
  C   C8164     1.0  0.82349  0.86623  0.58203  1.0000
  C   C8165     1.0  0.83525  0.85842  0.58823  1.0000
  C   C8166     1.0  0.84490  0.84683  0.58289  1.0000
  C   C8167     1.0  0.85615  0.83070  0.54573  1.0000
  C   C8168     1.0  0.85540  0.84460  0.53706  1.0000
  C   C8169     1.0  0.85620  0.84689  0.52245  1.0000
  C   C8170     1.0  0.85826  0.83528  0.51638  1.0000
  C   C8171     1.0  0.85967  0.82140  0.52483  1.0000
  C   C8172     1.0  0.85845  0.81912  0.53945  1.0000
  H   H6502     1.0  0.81506  0.80179  0.58855  1.0000
  H   H6503     1.0  0.83150  0.77773  0.59012  1.0000
  H   H6504     1.0  0.85802  0.77534  0.58078  1.0000
  H   H6505     1.0  0.86822  0.79685  0.56979  1.0000
  H   H6506     1.0  0.82491  0.82346  0.57772  1.0000
  H   H6507     1.0  0.88306  0.83210  0.54601  1.0000
  H   H6508     1.0  0.90764  0.82568  0.55054  1.0000
  H   H6509     1.0  0.91177  0.81379  0.57479  1.0000
  H   H6510     1.0  0.89102  0.80831  0.59474  1.0000
  H   H6511     1.0  0.86624  0.81456  0.59044  1.0000
  H   H6512     1.0  0.82858  0.84768  0.55670  1.0000
  H   H6513     1.0  0.81225  0.86852  0.56565  1.0000
  H   H6514     1.0  0.81589  0.87509  0.58627  1.0000
  H   H6515     1.0  0.83681  0.86132  0.59724  1.0000
  H   H6516     1.0  0.85390  0.84096  0.58786  1.0000
  H   H6517     1.0  0.85406  0.85368  0.54157  1.0000
  H   H6518     1.0  0.85510  0.85764  0.51581  1.0000
  H   H6519     1.0  0.85858  0.83705  0.50517  1.0000
  H   H6520     1.0  0.86171  0.81231  0.52018  1.0000
  H   H6521     1.0  0.85958  0.80823  0.54569  1.0000
  H   H6522     1.0  0.68150  0.93674  0.51026  1.0000
  H   H6523     1.0  0.50416  0.85981  0.57903  1.0000
  H   H6524     1.0  0.83260  0.76649  0.51009  1.0000
  C   C8173     1.0  0.75088  0.97644  0.62822  1.0000
  C   C8174     1.0  0.75994  0.98879  0.49678  1.0000
  C   C8175     1.0  0.67780  0.94717  0.50388  1.0000
  H   H6525     1.0  0.55929  0.94982  0.62134  1.0000
  H   H6526     1.0  0.68636  0.95835  0.51417  1.0000
  C   C8176     1.0  0.61286  0.98527  0.68020  1.0000
  H   H6527     1.0  0.69445  0.91682  0.49722  1.0000
  H   H6528     1.0  0.85506  0.77869  0.54657  1.0000
  C   C8177     1.0  0.75125  0.87094  0.50199  1.0000
  C   C8178     1.0  0.73866  0.98036  0.49787  1.0000
  C   C8179     1.0  0.55889  0.95856  0.53467  1.0000
  S   S1105     1.0  0.85743  0.74764  0.55276  1.0000
  C   C8180     1.0  0.72945  0.84317  0.54022  1.0000
  C   C8181     1.0  0.73625  0.83943  0.55166  1.0000
  C   C8182     1.0  0.74137  0.84966  0.55477  1.0000
  C   C8183     1.0  0.74002  0.86352  0.54622  1.0000
  C   C8184     1.0  0.73319  0.86740  0.53470  1.0000
  C   C8185     1.0  0.72779  0.85713  0.53185  1.0000
  P   P271      1.0  0.73201  0.88506  0.52304  1.0000
  C   C8186     1.0  0.71365  0.89208  0.52039  1.0000
  C   C8187     1.0  0.73594  0.89723  0.53113  1.0000
  C   C8188     1.0  0.72476  0.90775  0.53699  1.0000
  C   C8189     1.0  0.72788  0.91677  0.54362  1.0000
  C   C8190     1.0  0.74209  0.91524  0.54473  1.0000
  C   C8191     1.0  0.75325  0.90484  0.53895  1.0000
  C   C8192     1.0  0.75024  0.89598  0.53202  1.0000
  C   C8193     1.0  0.71082  0.90245  0.50808  1.0000
  C   C8194     1.0  0.69653  0.90876  0.50671  1.0000
  C   C8195     1.0  0.68491  0.90477  0.51750  1.0000
  C   C8196     1.0  0.68758  0.89448  0.52979  1.0000
  C   C8197     1.0  0.70188  0.88820  0.53127  1.0000
  C   C8198     1.0  0.74477  0.88411  0.50608  1.0000
  H   H6529     1.0  0.85714  0.98994  0.52642  1.0000
  P   P272      1.0  0.71039  0.97928  0.67451  1.0000
  Fe  Fe557     1.0  0.68080  0.98627  0.52213  1.0000
  H   H6530     1.0  0.95516  0.90198  0.48992  1.0000
  H   H6531     1.0  0.79040  0.96905  0.52483  1.0000
  H   H6532     1.0  0.72591  0.83511  0.53753  1.0000
  H   H6533     1.0  0.74692  0.84670  0.56345  1.0000
  H   H6534     1.0  0.74463  0.87099  0.54852  1.0000
  H   H6535     1.0  0.72280  0.85976  0.52281  1.0000
  H   H6536     1.0  0.71358  0.90904  0.53660  1.0000
  H   H6537     1.0  0.71920  0.92484  0.54806  1.0000
  H   H6538     1.0  0.74440  0.92201  0.55023  1.0000
  H   H6539     1.0  0.76424  0.90343  0.54007  1.0000
  H   H6540     1.0  0.75899  0.88778  0.52782  1.0000
  C   C8199     1.0  0.79082  0.98220  0.49667  1.0000
  H   H6541     1.0  0.82769  0.74843  0.56594  1.0000
  H   H6542     1.0  0.67386  0.90980  0.51633  1.0000
  H   H6543     1.0  0.67856  0.89152  0.53824  1.0000
  H   H6544     1.0  0.70373  0.88056  0.54105  1.0000
  H   H6545     1.0  0.74963  0.86086  0.50915  1.0000
  H   H6546     1.0  0.85040  0.77727  0.49411  1.0000
  H   H6547     1.0  0.56739  0.94837  0.70336  1.0000
  S   S1106     1.0  0.91219  0.96529  0.49825  1.0000
  C   C8200     1.0  0.72498  0.94518  0.49083  1.0000
  P   P273      1.0  0.77299  0.93339  0.49439  1.0000
  C   C8201     1.0  0.59110  0.94288  0.48609  1.0000
  H   H6548     1.0  0.50414  0.95550  0.57796  1.0000
  H   H6549     1.0  0.75394  0.96078  0.59946  1.0000
  H   H6550     1.0  0.50296  0.83549  0.72650  1.0000
  H   H6551     1.0  0.54287  0.94951  0.53159  1.0000
  P   P274      1.0  0.93003  0.89157  0.51008  1.0000
  C   C8202     1.0  0.92280  0.87556  0.51637  1.0000
  C   C8203     1.0  0.94904  0.88783  0.51038  1.0000
  C   C8204     1.0  0.95401  0.87883  0.52243  1.0000
  C   C8205     1.0  0.96869  0.87593  0.52281  1.0000
  H   H6552     1.0  0.60286  0.98170  0.68538  1.0000
  C   C8206     1.0  0.54779  0.94029  0.71244  1.0000
  H   H6553     1.0  0.55542  0.98262  0.70612  1.0000
  C   C8207     1.0  0.90775  0.87681  0.51895  1.0000
  C   C8208     1.0  0.90204  0.86457  0.52264  1.0000
  C   C8209     1.0  0.91131  0.85098  0.52377  1.0000
  C   C8210     1.0  0.92630  0.84962  0.52125  1.0000
  C   C8211     1.0  0.93205  0.86184  0.51743  1.0000
  C   C8212     1.0  0.92112  0.90434  0.52125  1.0000
  C   C8213     1.0  0.92313  0.91846  0.51646  1.0000
  C   C8214     1.0  0.91647  0.92840  0.52509  1.0000
  C   C8215     1.0  0.90800  0.92426  0.53869  1.0000
  C   C8216     1.0  0.90619  0.91016  0.54367  1.0000
  C   C8217     1.0  0.91280  0.90019  0.53503  1.0000
  H   H6554     1.0  0.63947  0.98559  0.59689  1.0000
  H   H6555     1.0  0.72021  0.95436  0.66111  1.0000
  C   C8218     1.0  0.95414  0.77248  0.51529  1.0000
  H   H6556     1.0  0.60165  0.85856  0.67789  1.0000
  Fe  Fe558     1.0  0.95939  0.81161  0.48866  1.0000
  H   H6557     1.0  0.94654  0.87398  0.53151  1.0000
  H   H6558     1.0  0.97252  0.86873  0.53200  1.0000
  S   S1107     1.0  0.59356  0.98531  0.62712  1.0000
  C   C8219     1.0  0.76016  0.87057  0.48839  1.0000
  H   H6559     1.0  0.58266  0.84894  0.73345  1.0000
  H   H6560     1.0  0.90048  0.88727  0.51740  1.0000
  H   H6561     1.0  0.89048  0.86567  0.52397  1.0000
  H   H6562     1.0  0.90693  0.84154  0.52613  1.0000
  H   H6563     1.0  0.93353  0.83909  0.52176  1.0000
  H   H6564     1.0  0.94371  0.86048  0.51488  1.0000
  H   H6565     1.0  0.72088  0.98140  0.64399  1.0000
  C   C8220     1.0  0.67606  0.97291  0.49759  1.0000
  H   H6566     1.0  0.90282  0.93202  0.54531  1.0000
  H   H6567     1.0  0.89967  0.90694  0.55423  1.0000
  H   H6568     1.0  0.91145  0.88927  0.53917  1.0000
  H   H6569     1.0  0.77117  0.80600  0.57879  1.0000
  C   C8221     1.0  0.77331  0.82216  0.58797  1.0000
  C   C8222     1.0  0.52669  0.94704  0.61805  1.0000
  H   H6570     1.0  0.66655  0.93363  0.56673  1.0000
  H   H6571     1.0  0.53734  0.95384  0.68048  1.0000
  H   H6572     1.0  0.64064  0.93564  0.57904  1.0000
  C   C8223     1.0  0.68058  0.95938  0.50608  1.0000
  H   H6573     1.0  0.62239  0.98548  0.64133  1.0000
  C   C8224     1.0  0.69882  0.84702  0.62397  1.0000
  H   H6574     1.0  0.91784  0.93937  0.52115  1.0000
  H   H6575     1.0  0.58299  0.92682  0.71526  1.0000
  H   H6576     1.0  0.83959  0.97278  0.60560  1.0000
  S   S1108     1.0  0.68349  0.98298  0.56048  1.0000
  C   C8225     1.0  0.73102  0.88754  0.68397  1.0000
  C   C8226     1.0  0.77190  0.97132  0.59264  1.0000
  C   C8227     1.0  0.79342  0.78895  0.51949  1.0000
  C   C8228     1.0  0.68583  0.96425  0.72073  1.0000
  H   H6577     1.0  0.62140  0.90797  0.51387  1.0000
  C   C8229     1.0  0.81463  0.77231  0.52671  1.0000
  C   C8230     1.0  0.63713  0.98588  0.68059  1.0000
  H   H6578     1.0  0.61596  0.97094  0.56760  1.0000
  C   C8231     1.0  0.75042  0.81632  0.59014  1.0000
  H   H6579     1.0  0.78251  0.79535  0.52221  1.0000
  S   S1109     1.0  0.64977  0.94832  0.71357  1.0000
  H   H6580     1.0  0.64488  0.91431  0.51106  1.0000
  C   C8232     1.0  0.63478  0.92055  0.51617  1.0000
  C   C8233     1.0  0.69710  0.84031  0.63844  1.0000
  H   H6581     1.0  0.57646  0.96746  0.53461  1.0000
  H   H6582     1.0  0.81226  0.81180  0.49310  1.0000
  C   C8234     1.0  0.75778  0.97039  0.59339  1.0000
  H   H6583     1.0  0.51437  0.93016  0.58783  1.0000
  C   C8235     1.0  0.50550  0.93283  0.58244  1.0000
  H   H6584     1.0  0.95668  0.74543  0.54464  1.0000
  C   C8236     1.0  0.75429  0.93789  0.49267  1.0000
  C   C8237     1.0  0.78663  0.88969  0.50492  1.0000
  C   C8238     1.0  0.78077  0.90398  0.50576  1.0000
  H   H6585     1.0  0.50864  0.94317  0.63565  1.0000
  C   C8239     1.0  0.57147  0.92733  0.71688  1.0000
  C   C8240     1.0  0.97032  0.75096  0.50863  1.0000
  H   H6586     1.0  0.98093  0.89709  0.49096  1.0000
  C   C8241     1.0  0.77397  0.93569  0.51137  1.0000
  C   C8242     1.0  0.76217  0.94384  0.51954  1.0000
  C   C8243     1.0  0.76248  0.94415  0.53333  1.0000
  C   C8244     1.0  0.77462  0.93653  0.53898  1.0000
  C   C8245     1.0  0.78677  0.92918  0.53059  1.0000
  C   C8246     1.0  0.78654  0.92892  0.51676  1.0000
  S   S1110     1.0  0.92439  0.74483  0.50767  1.0000
  C   C8247     1.0  0.60538  0.93999  0.48786  1.0000
  C   C8248     1.0  0.75834  0.98296  0.63370  1.0000
  C   C8249     1.0  0.72899  0.93680  0.50344  1.0000
  C   C8250     1.0  0.74359  0.93302  0.50429  1.0000
  H   H6587     1.0  0.90961  0.91682  0.49689  1.0000
  C   C8251     1.0  0.60855  0.92569  0.52345  1.0000
  H   H6588     1.0  0.78782  0.98432  0.58402  1.0000
  H   H6589     1.0  0.63713  0.97871  0.53044  1.0000
  C   C8252     1.0  0.82179  0.77301  0.51238  1.0000
  H   H6590     1.0  0.54090  0.94981  0.70744  1.0000
  C   C8253     1.0  0.72448  0.84489  0.62228  1.0000
  H   H6591     1.0  0.51685  0.96665  0.66892  1.0000
  H   H6592     1.0  0.78763  0.88155  0.51460  1.0000
  H   H6593     1.0  0.77716  0.90647  0.51616  1.0000
  H   H6594     1.0  0.65944  0.98438  0.71759  1.0000
  H   H6595     1.0  0.75259  0.94973  0.51547  1.0000
  H   H6596     1.0  0.75319  0.95009  0.53979  1.0000
  H   H6597     1.0  0.77459  0.93637  0.54988  1.0000
  H   H6598     1.0  0.79629  0.92338  0.53488  1.0000
  H   H6599     1.0  0.79596  0.92293  0.51050  1.0000
  H   H6600     1.0  0.79520  0.78019  0.54139  1.0000
  H   H6601     1.0  0.99556  0.85503  0.49618  1.0000
  S   S1111     1.0  0.89680  0.88651  0.48840  1.0000
  H   H6602     1.0  0.72075  0.93335  0.51260  1.0000
  H   H6603     1.0  0.74653  0.92643  0.51411  1.0000
  C   C8254     1.0  0.86713  0.80285  0.49519  1.0000
  H   H6604     1.0  0.71949  0.90585  0.49953  1.0000
  H   H6605     1.0  0.63656  0.98300  0.55612  1.0000
  C   C8255     1.0  0.80611  0.96544  0.61352  1.0000
  H   H6606     1.0  0.92696  0.82287  0.50255  1.0000
  C   C8256     1.0  0.64621  0.95873  0.59144  1.0000
  C   C8257     1.0  0.63343  0.95439  0.59947  1.0000
  C   C8258     1.0  0.63245  0.94732  0.61379  1.0000
  C   C8259     1.0  0.64410  0.94489  0.62019  1.0000
  C   C8260     1.0  0.65664  0.94998  0.61245  1.0000
  C   C8261     1.0  0.65780  0.95651  0.59787  1.0000
  P   P275      1.0  0.67196  0.94595  0.62057  1.0000
  C   C8262     1.0  0.66719  0.94955  0.63824  1.0000
  C   C8263     1.0  0.68016  0.92742  0.62013  1.0000
  C   C8264     1.0  0.68165  0.91692  0.63269  1.0000
  C   C8265     1.0  0.68687  0.90245  0.63213  1.0000
  C   C8266     1.0  0.69036  0.89834  0.61913  1.0000
  C   C8267     1.0  0.68871  0.90871  0.60662  1.0000
  C   C8268     1.0  0.68376  0.92320  0.60709  1.0000
  C   C8269     1.0  0.67793  0.94586  0.64619  1.0000
  C   C8270     1.0  0.67450  0.94898  0.65969  1.0000
  C   C8271     1.0  0.66043  0.95596  0.66528  1.0000
  C   C8272     1.0  0.64992  0.96035  0.65712  1.0000
  C   C8273     1.0  0.65327  0.95718  0.64366  1.0000
  C   C8274     1.0  0.68410  0.95761  0.61048  1.0000
  C   C8275     1.0  0.67851  0.97247  0.60763  1.0000
  C   C8276     1.0  0.76325  0.82180  0.49186  1.0000
  H   H6607     1.0  0.62339  0.97368  0.69758  1.0000
  C   C8277     1.0  0.70838  0.96169  0.59937  1.0000
  C   C8278     1.0  0.69913  0.95224  0.60641  1.0000
  H   H6608     1.0  0.64709  0.96403  0.58026  1.0000
  H   H6609     1.0  0.62427  0.95647  0.59461  1.0000
  H   H6610     1.0  0.62255  0.94392  0.62002  1.0000
  H   H6611     1.0  0.64321  0.93922  0.63125  1.0000
  H   H6612     1.0  0.66765  0.95984  0.59138  1.0000
  H   H6613     1.0  0.67878  0.91976  0.64293  1.0000
  H   H6614     1.0  0.68840  0.89445  0.64178  1.0000
  H   H6615     1.0  0.69446  0.88713  0.61875  1.0000
  H   H6616     1.0  0.69139  0.90557  0.59651  1.0000
  H   H6617     1.0  0.68255  0.93113  0.59728  1.0000
  H   H6618     1.0  0.68896  0.94057  0.64197  1.0000
  H   H6619     1.0  0.68278  0.94613  0.66578  1.0000
  H   H6620     1.0  0.65776  0.95816  0.67584  1.0000
  H   H6621     1.0  0.63905  0.96602  0.66130  1.0000
  H   H6622     1.0  0.64494  0.96076  0.63760  1.0000
  H   H6623     1.0  0.66699  0.97684  0.61098  1.0000
  C   C8279     1.0  0.70088  0.97962  0.70352  1.0000
  C   C8280     1.0  0.80054  0.78969  0.50515  1.0000
  H   H6624     1.0  0.71998  0.95757  0.59628  1.0000
  H   H6625     1.0  0.70375  0.94083  0.60876  1.0000
  C   C8281     1.0  0.58363  0.92889  0.67907  1.0000
  C   C8282     1.0  0.57077  0.92444  0.68130  1.0000
  C   C8283     1.0  0.56917  0.91101  0.68992  1.0000
  C   C8284     1.0  0.58063  0.90184  0.69594  1.0000
  C   C8285     1.0  0.59384  0.90599  0.69319  1.0000
  C   C8286     1.0  0.59501  0.91983  0.68524  1.0000
  P   P276      1.0  0.60890  0.89369  0.70018  1.0000
  C   C8287     1.0  0.60941  0.87580  0.69888  1.0000
  C   C8288     1.0  0.62619  0.89744  0.68953  1.0000
  C   C8289     1.0  0.62819  0.90277  0.67469  1.0000
  C   C8290     1.0  0.64145  0.90608  0.66661  1.0000
  C   C8291     1.0  0.65293  0.90373  0.67322  1.0000
  C   C8292     1.0  0.65123  0.89781  0.68786  1.0000
  C   C8293     1.0  0.63796  0.89461  0.69597  1.0000
  C   C8294     1.0  0.60507  0.87380  0.68749  1.0000
  H   H6626     1.0  0.83438  0.79077  0.52416  1.0000
  C   C8295     1.0  0.75218  0.94361  0.67168  1.0000
  C   C8296     1.0  0.61456  0.84999  0.70805  1.0000
  C   C8297     1.0  0.61457  0.86374  0.70886  1.0000
  C   C8298     1.0  0.60632  0.89552  0.71827  1.0000
  H   H6627     1.0  0.79492  0.79666  0.49696  1.0000
  H   H6628     1.0  0.85121  0.82238  0.48962  1.0000
  Fe  Fe559     1.0  0.90867  0.98892  0.49741  1.0000
  C   C8299     1.0  0.76909  0.98315  0.52427  1.0000
  C   C8300     1.0  0.61102  0.90643  0.72078  1.0000
  H   H6629     1.0  0.58487  0.93930  0.67238  1.0000
  H   H6630     1.0  0.56205  0.93143  0.67634  1.0000
  H   H6631     1.0  0.55913  0.90765  0.69176  1.0000
  H   H6632     1.0  0.57928  0.89143  0.70256  1.0000
  H   H6633     1.0  0.60479  0.92358  0.68358  1.0000
  H   H6634     1.0  0.61946  0.90462  0.66934  1.0000
  H   H6635     1.0  0.64273  0.91071  0.65526  1.0000
  H   H6636     1.0  0.66312  0.90651  0.66702  1.0000
  H   H6637     1.0  0.66015  0.89584  0.69299  1.0000
  H   H6638     1.0  0.63688  0.89006  0.70730  1.0000
  H   H6639     1.0  0.70890  0.98365  0.62461  1.0000
  C   C8301     1.0  0.95883  0.89452  0.49906  1.0000
  C   C8302     1.0  0.73497  0.88302  0.69722  1.0000
  H   H6640     1.0  0.61825  0.84082  0.71610  1.0000
  H   H6641     1.0  0.61846  0.86485  0.71743  1.0000
  C   C8303     1.0  0.64360  0.93893  0.56752  1.0000
  C   C8304     1.0  0.72859  0.95460  0.66603  1.0000
  H   H6642     1.0  0.75284  0.87246  0.70784  1.0000
  C   C8305     1.0  0.77960  0.97268  0.53083  1.0000
  H   H6643     1.0  0.61600  0.91395  0.71196  1.0000
  C   C8306     1.0  0.78267  0.83326  0.48957  1.0000
  C   C8307     1.0  0.76251  0.97133  0.55368  1.0000
  C   C8308     1.0  0.82901  0.75938  0.56258  1.0000
  C   C8309     1.0  0.77625  0.96673  0.54547  1.0000
  C   C8310     1.0  0.90159  0.79419  0.49986  1.0000
  H   H6644     1.0  0.80992  0.96594  0.58286  1.0000
  C   C8311     1.0  0.51967  0.88725  0.55785  1.0000
  H   H6645     1.0  0.64540  0.93484  0.51961  1.0000
  H   H6646     1.0  0.72798  0.91261  0.69212  1.0000
  H   H6647     1.0  0.74336  0.90696  0.49952  1.0000
  H   H6648     1.0  0.54943  0.88433  0.71941  1.0000
  C   C8312     1.0  0.63504  0.93226  0.52107  1.0000
  C   C8313     1.0  0.82118  0.96312  0.61161  1.0000
  H   H6649     1.0  0.64586  0.98293  0.68617  1.0000
  C   C8314     1.0  0.62206  0.94060  0.52752  1.0000
  C   C8315     1.0  0.76059  0.83401  0.63018  1.0000
  H   H6650     1.0  0.89348  0.79893  0.50812  1.0000
  C   C8316     1.0  0.60543  0.96241  0.54519  1.0000
  C   C8317     1.0  0.52471  0.98317  0.62175  1.0000
  C   C8318     1.0  0.75553  0.98816  0.53276  1.0000
  C   C8319     1.0  0.82790  0.97478  0.60720  1.0000
  H   H6651     1.0  0.75983  0.96647  0.56494  1.0000
  H   H6652     1.0  0.55218  0.96746  0.68557  1.0000
  H   H6653     1.0  0.57048  0.97732  0.57154  1.0000
  C   C8320     1.0  0.70022  0.97386  0.69247  1.0000
  C   C8321     1.0  0.81497  0.78208  0.50144  1.0000
  H   H6654     1.0  0.65441  0.95142  0.52637  1.0000
  C   C8322     1.0  0.63652  0.94894  0.54468  1.0000
  H   H6655     1.0  0.99920  0.79138  0.50308  1.0000
  H   H6656     1.0  0.90299  0.82126  0.48843  1.0000
  C   C8323     1.0  0.66204  0.94213  0.54574  1.0000
  S   S1112     1.0  0.57308  0.96959  0.65636  1.0000
  H   H6657     1.0  0.90245  0.81784  0.51415  1.0000
  C   C8324     1.0  0.52689  0.94413  0.64292  1.0000
  C   C8325     1.0  0.57153  0.96377  0.52829  1.0000
  C   C8326     1.0  0.61668  0.97979  0.57136  1.0000
  H   H6658     1.0  0.76352  0.87585  0.66260  1.0000
  S   S1113     1.0  0.89250  0.79832  0.53996  1.0000
  C   C8327     1.0  0.88297  0.95864  0.55945  1.0000
  C   C8328     1.0  0.89527  0.96219  0.54944  1.0000
  C   C8329     1.0  0.89574  0.96481  0.53489  1.0000
  C   C8330     1.0  0.88380  0.96429  0.53026  1.0000
  C   C8331     1.0  0.87137  0.96079  0.54022  1.0000
  C   C8332     1.0  0.87113  0.95776  0.55488  1.0000
  P   P277      1.0  0.85630  0.95929  0.53421  1.0000
  C   C8333     1.0  0.85381  0.97329  0.51841  1.0000
  C   C8334     1.0  0.86003  0.94194  0.52995  1.0000
  C   C8335     1.0  0.87438  0.93408  0.52665  1.0000
  C   C8336     1.0  0.87723  0.92071  0.52331  1.0000
  C   C8337     1.0  0.86578  0.91508  0.52322  1.0000
  C   C8338     1.0  0.85149  0.92301  0.52607  1.0000
  C   C8339     1.0  0.84861  0.93643  0.52933  1.0000
  C   C8340     1.0  0.85164  0.97018  0.50639  1.0000
  C   C8341     1.0  0.71523  0.93290  0.71696  1.0000
  C   C8342     1.0  0.62157  0.91708  0.51764  1.0000
  H   H6659     1.0  0.50938  0.90961  0.55546  1.0000
  C   C8343     1.0  0.67966  0.98268  0.65255  1.0000
  C   C8344     1.0  0.84052  0.96151  0.54877  1.0000
  C   C8345     1.0  0.83604  0.94947  0.55849  1.0000
  C   C8346     1.0  0.82488  0.95112  0.57060  1.0000
  H   H6660     1.0  0.92972  0.92188  0.50597  1.0000
  H   H6661     1.0  0.72989  0.97504  0.50402  1.0000
  C   C8347     1.0  0.67842  0.87531  0.71492  1.0000
  H   H6662     1.0  0.84140  0.93874  0.55701  1.0000
  H   H6663     1.0  0.76534  0.86873  0.63672  1.0000
  H   H6664     1.0  0.90540  0.96729  0.52714  1.0000
  H   H6665     1.0  0.88433  0.96653  0.51889  1.0000
  H   H6666     1.0  0.86181  0.95479  0.56284  1.0000
  H   H6667     1.0  0.88343  0.93835  0.52632  1.0000
  H   H6668     1.0  0.88833  0.91486  0.52045  1.0000
  H   H6669     1.0  0.86804  0.90481  0.52040  1.0000
  H   H6670     1.0  0.84269  0.91886  0.52538  1.0000
  H   H6671     1.0  0.83751  0.94259  0.53118  1.0000
  H   H6672     1.0  0.85157  0.95943  0.50618  1.0000
  C   C8348     1.0  0.63279  0.94445  0.55964  1.0000
  S   S1114     1.0  0.64903  0.91460  0.71658  1.0000
  H   H6673     1.0  0.78498  0.82048  0.58381  1.0000
  C   C8349     1.0  0.62776  0.96937  0.51903  1.0000
  H   H6674     1.0  0.62161  0.94527  0.56537  1.0000
  C   C8350     1.0  0.72906  0.87735  0.60573  1.0000
  H   H6675     1.0  0.67339  0.94148  0.54041  1.0000
  C   C8351     1.0  0.54110  0.94621  0.63890  1.0000
  S   S1115     1.0  0.88838  0.76630  0.52880  1.0000
  C   C8352     1.0  0.85470  0.98731  0.51771  1.0000
  S   S1116     1.0  0.59245  0.97462  0.59183  1.0000
  C   C8353     1.0  0.70268  0.97648  0.59631  1.0000
  H   H6676     1.0  0.77812  0.84507  0.64853  1.0000
  C   C8354     1.0  0.74316  0.82667  0.59823  1.0000
  C   C8355     1.0  0.75100  0.83472  0.60140  1.0000
  H   H6677     1.0  0.74573  0.88296  0.56511  1.0000
  H   H6678     1.0  0.85862  0.77410  0.52148  1.0000
  H   H6679     1.0  0.73670  0.97346  0.68521  1.0000
  C   C8356     1.0  0.69150  0.88868  0.72167  1.0000
  C   C8357     1.0  0.60979  0.84812  0.69696  1.0000
  H   H6680     1.0  0.90448  0.96292  0.55290  1.0000
  H   H6681     1.0  0.74259  0.93546  0.65966  1.0000
  C   C8358     1.0  0.76378  0.85901  0.63514  1.0000
  C   C8359     1.0  0.75502  0.85992  0.62596  1.0000
  C   C8360     1.0  0.73839  0.86573  0.60009  1.0000
  C   C8361     1.0  0.85235  0.77067  0.48660  1.0000
  H   H6682     1.0  0.76211  0.93537  0.67072  1.0000
  C   C8362     1.0  0.74430  0.86780  0.58534  1.0000
  S   S1117     1.0  0.88618  0.76066  0.56351  1.0000
  H   H6683     1.0  0.77533  0.97952  0.64471  1.0000
  H   H6684     1.0  0.67962  0.94980  0.71246  1.0000
  P   P278      1.0  0.74192  0.84824  0.61173  1.0000
  H   H6685     1.0  0.75172  0.85918  0.58066  1.0000
  C   C8363     1.0  0.70133  0.98060  0.66068  1.0000
  H   H6686     1.0  0.77081  0.86805  0.68586  1.0000
  Fe  Fe560     1.0  0.56590  0.96061  0.64209  1.0000
  S   S1118     1.0  0.54955  0.94679  0.65189  1.0000
  C   C8364     1.0  0.75967  0.87342  0.68537  1.0000
  C   C8365     1.0  0.77105  0.84567  0.64173  1.0000
  C   C8366     1.0  0.57784  0.96418  0.51382  1.0000
  C   C8367     1.0  0.62465  0.97054  0.50583  1.0000
  C   C8368     1.0  0.92739  0.89892  0.49207  1.0000
  H   H6687     1.0  0.55402  0.95824  0.54590  1.0000
  H   H6688     1.0  0.68261  0.98429  0.63003  1.0000
  H   H6689     1.0  0.78424  0.95845  0.55048  1.0000
  S   S1119     1.0  0.82606  0.91055  0.49716  1.0000
  C   C8369     1.0  0.74118  0.94370  0.66536  1.0000
  H   H6690     1.0  0.68653  0.83856  0.64470  1.0000
  H   H6691     1.0  0.72000  0.89314  0.68323  1.0000
  C   C8370     1.0  0.72265  0.83815  0.63683  1.0000
  H   H6692     1.0  0.75951  0.82420  0.62835  1.0000
  C   C8371     1.0  0.74941  0.87598  0.69783  1.0000
  C   C8372     1.0  0.85714  0.78470  0.51452  1.0000
  H   H6693     1.0  0.83103  0.81475  0.50783  1.0000
  H   H6694     1.0  0.87922  0.78143  0.50272  1.0000
  C   C8373     1.0  0.74788  0.89675  0.49652  1.0000
  H   H6695     1.0  0.52975  0.88921  0.55053  1.0000
  C   C8374     1.0  0.62836  0.98658  0.56489  1.0000
  C   C8375     1.0  0.75053  0.95436  0.67881  1.0000
  H   H6696     1.0  0.75914  0.95436  0.68355  1.0000
  H   H6697     1.0  0.77521  0.82280  0.64425  1.0000
  H   H6698     1.0  0.68959  0.85047  0.61900  1.0000
  C   C8376     1.0  0.84154  0.80748  0.50683  1.0000
  H   H6699     1.0  0.83724  0.98458  0.54458  1.0000
  C   C8377     1.0  0.92513  0.81589  0.51305  1.0000
  C   C8378     1.0  0.80859  0.96032  0.49252  1.0000
  C   C8379     1.0  0.82291  0.97674  0.56391  1.0000
  S   S1120     1.0  0.95413  0.81224  0.51185  1.0000
  C   C8380     1.0  0.70900  0.83588  0.64486  1.0000
  S   S1121     1.0  0.91781  0.75928  0.54082  1.0000
  C   C8381     1.0  0.60042  0.97726  0.54422  1.0000
  C   C8382     1.0  0.80453  0.99103  0.60615  1.0000
  C   C8383     1.0  0.70267  0.98276  0.63554  1.0000
  H   H6700     1.0  0.63335  0.97098  0.72863  1.0000
  C   C8384     1.0  0.95893  0.75093  0.53350  1.0000
  C   C8385     1.0  0.81836  0.96474  0.57334  1.0000
  C   C8386     1.0  0.73788  0.96523  0.67959  1.0000
  H   H6701     1.0  0.52721  0.86428  0.56226  1.0000
  C   C8387     1.0  0.83387  0.97514  0.55165  1.0000
  C   C8388     1.0  0.62838  0.98151  0.49418  1.0000
  H   H6702     1.0  0.70765  0.83071  0.65610  1.0000
  C   C8389     1.0  0.86886  0.78899  0.50399  1.0000
  P   P279      1.0  0.77294  0.99086  0.50529  1.0000
  C   C8390     1.0  0.51825  0.87322  0.56445  1.0000
  C   C8391     1.0  0.50812  0.89879  0.56070  1.0000
  H   H6703     1.0  0.88263  0.95656  0.57075  1.0000
  C   C8392     1.0  0.72692  0.96555  0.67302  1.0000
  S   S1122     1.0  0.86412  0.91864  0.48971  1.0000
  C   C8393     1.0  0.60516  0.86002  0.68661  1.0000
  H   H6704     1.0  0.74149  0.98560  0.55376  1.0000
  H   H6705     1.0  0.69116  0.86206  0.70012  1.0000
  H   H6706     1.0  0.69395  0.97954  0.72600  1.0000
  H   H6707     1.0  0.57901  0.95118  0.57339  1.0000
  H   H6708     1.0  0.92106  0.86294  0.49281  1.0000
  H   H6709     1.0  0.71419  0.86804  0.69881  1.0000
  C   C8394     1.0  0.70429  0.87311  0.70525  1.0000
  H   H6710     1.0  0.50409  0.91100  0.58605  1.0000
  C   C8395     1.0  0.69126  0.86954  0.70609  1.0000
  H   H6711     1.0  0.80083  0.95645  0.61721  1.0000
  H   H6712     1.0  0.78614  0.98127  0.61206  1.0000
  C   C8396     1.0  0.70939  0.98151  0.64654  1.0000
  C   C8397     1.0  0.63062  0.98411  0.61944  1.0000
  H   H6713     1.0  0.53003  0.97992  0.64188  1.0000
  H   H6714     1.0  0.62728  0.97421  0.62110  1.0000
  H   H6715     1.0  0.59827  0.92327  0.52413  1.0000
  H   H6716     1.0  0.59558  0.87792  0.72831  1.0000
  C   C8398     1.0  0.52286  0.97274  0.67159  1.0000
  S   S1123     1.0  0.67932  0.98839  0.49983  1.0000
  Fe  Fe561     1.0  0.87985  0.75142  0.54878  1.0000
  C   C8399     1.0  0.60877  0.93749  0.52825  1.0000
  H   H6717     1.0  0.77885  0.96250  0.59845  1.0000
  H   H6718     1.0  0.56652  0.86140  0.71648  1.0000
  S   S1124     1.0  0.51730  0.94884  0.60489  1.0000
  C   C8400     1.0  0.95211  0.76534  0.52963  1.0000
  C   C8401     1.0  0.56265  0.93954  0.71024  1.0000
  H   H6719     1.0  0.61952  0.96292  0.50442  1.0000
  H   H6720     1.0  0.74227  0.98293  0.62289  1.0000
  C   C8402     1.0  0.58479  0.95843  0.56495  1.0000
  H   H6721     1.0  0.74780  0.97677  0.51585  1.0000
  H   H6722     1.0  0.98980  0.88014  0.51167  1.0000
  P   P280      1.0  0.62271  0.95540  0.53424  1.0000
  H   H6723     1.0  0.57473  0.98922  0.49155  1.0000
  H   H6724     1.0  0.66838  0.87228  0.71591  1.0000
  C   C8403     1.0  0.57520  0.85910  0.73464  1.0000
  C   C8404     1.0  0.58771  0.98259  0.55353  1.0000
  C   C8405     1.0  0.69360  0.97492  0.71756  1.0000
  H   H6725     1.0  0.53126  0.97691  0.71052  1.0000
  C   C8406     1.0  0.70449  0.88284  0.71296  1.0000
  C   C8407     1.0  0.96446  0.85513  0.48795  1.0000
  H   H6726     1.0  0.69254  0.95785  0.68763  1.0000
  H   H6727     1.0  0.63436  0.86849  0.72721  1.0000
  C   C8408     1.0  0.79782  0.97941  0.61064  1.0000
  C   C8409     1.0  0.57991  0.97319  0.56388  1.0000
  C   C8410     1.0  0.69266  0.96293  0.69582  1.0000
  C   C8411     1.0  0.72279  0.86192  0.73540  1.0000
  H   H6728     1.0  0.87377  0.75959  0.49014  1.0000
  C   C8412     1.0  0.83061  0.88683  0.48661  1.0000
  H   H6729     1.0  0.58785  0.96791  0.50918  1.0000
  H   H6730     1.0  0.72459  0.93726  0.69445  1.0000
  C   C8413     1.0  0.79335  0.99116  0.54964  1.0000
  H   H6731     1.0  0.60159  0.88288  0.67929  1.0000
  C   C8414     1.0  0.51966  0.94463  0.63250  1.0000
  P   P281      1.0  0.72148  0.88635  0.71317  1.0000
  H   H6732     1.0  0.60979  0.83744  0.69636  1.0000
  C   C8415     1.0  0.68539  0.95827  0.70988  1.0000
  H   H6733     1.0  0.67969  0.98160  0.67424  1.0000
  C   C8416     1.0  0.60969  0.90749  0.73476  1.0000
  C   C8417     1.0  0.57127  0.95978  0.50550  1.0000
  C   C8418     1.0  0.62778  0.99063  0.63090  1.0000
  H   H6734     1.0  0.80682  0.97644  0.53644  1.0000
  H   H6735     1.0  0.60146  0.94154  0.55710  1.0000
  H   H6736     1.0  0.94853  0.78353  0.51223  1.0000
  P   P282      1.0  0.57938  0.96034  0.48681  1.0000
  C   C8419     1.0  0.61483  0.92684  0.48626  1.0000
  C   C8420     1.0  0.98767  0.85744  0.48976  1.0000
  H   H6737     1.0  0.60651  0.98478  0.53669  1.0000
  C   C8421     1.0  0.54278  0.97309  0.68107  1.0000
  H   H6738     1.0  0.86208  0.98251  0.63137  1.0000
  H   H6739     1.0  0.90012  0.94109  0.50152  1.0000
  Fe  Fe562     1.0  0.57057  0.99003  0.63981  1.0000
  C   C8422     1.0  0.78010  0.91481  0.49333  1.0000
  Fe  Fe563     1.0  0.90921  0.74971  0.52809  1.0000
  H   H6740     1.0  0.51651  0.98773  0.60279  1.0000
  C   C8423     1.0  0.85016  0.98094  0.49408  1.0000
  C   C8424     1.0  0.53946  0.98805  0.67745  1.0000
  H   H6741     1.0  0.53014  0.92984  0.72331  1.0000
  C   C8425     1.0  0.91666  0.91130  0.48875  1.0000
  C   C8426     1.0  0.72145  0.92918  0.70377  1.0000
  C   C8427     1.0  0.80123  0.99020  0.48845  1.0000
  H   H6742     1.0  0.53498  0.97668  0.61740  1.0000
  H   H6743     1.0  0.55389  0.95022  0.50598  1.0000
  C   C8428     1.0  0.54176  0.92880  0.72123  1.0000
  H   H6744     1.0  0.81149  0.94872  0.49405  1.0000
  C   C8429     1.0  0.52326  0.90450  0.72359  1.0000
  H   H6745     1.0  0.97325  0.84604  0.50674  1.0000
  H   H6746     1.0  0.66816  0.98315  0.65479  1.0000
  H   H6747     1.0  0.53077  0.90930  0.71456  1.0000
  C   C8430     1.0  0.97345  0.89181  0.49961  1.0000
  C   C8431     1.0  0.63461  0.97937  0.52038  1.0000
  C   C8432     1.0  0.74883  0.98150  0.50457  1.0000
  C   C8433     1.0  0.53443  0.96544  0.67824  1.0000
  H   H6748     1.0  0.73756  0.98121  0.58703  1.0000
  H   H6749     1.0  0.97729  0.74590  0.50018  1.0000
  C   C8434     1.0  0.51093  0.90195  0.72126  1.0000
  H   H6750     1.0  0.62612  0.92504  0.48664  1.0000
  H   H6751     1.0  0.96460  0.77078  0.49368  1.0000
  C   C8435     1.0  0.89900  0.79673  0.48615  1.0000
  H   H6752     1.0  0.83876  0.98653  0.62451  1.0000
  H   H6753     1.0  0.88272  0.93760  0.48965  1.0000
  S   S1125     1.0  0.56160  0.98146  0.62639  1.0000
  C   C8436     1.0  0.52185  0.98511  0.63566  1.0000
  C   C8437     1.0  0.81952  0.98885  0.60489  1.0000
  H   H6754     1.0  0.50871  0.83351  0.70119  1.0000
  C   C8438     1.0  0.79168  0.88600  0.49165  1.0000
  C   C8439     1.0  0.56551  0.91576  0.72553  1.0000
  C   C8440     1.0  0.80459  0.98709  0.53835  1.0000
  H   H6755     1.0  0.93546  0.77263  0.49493  1.0000
  C   C8441     1.0  0.92534  0.77947  0.49249  1.0000
  C   C8442     1.0  0.51437  0.98958  0.61342  1.0000
  C   C8443     1.0  0.71260  0.90853  0.72775  1.0000
  C   C8444     1.0  0.67860  0.88480  0.72275  1.0000
  C   C8445     1.0  0.89335  0.84345  0.48673  1.0000
  C   C8446     1.0  0.51950  0.98778  0.66783  1.0000
  C   C8447     1.0  0.54553  0.99021  0.70952  1.0000
  C   C8448     1.0  0.63834  0.99030  0.50869  1.0000
  H   H6756     1.0  0.60939  0.94805  0.48999  1.0000
  H   H6757     1.0  0.79652  0.87492  0.49099  1.0000
  C   C8449     1.0  0.71897  0.90464  0.71452  1.0000
  S   S1126     1.0  0.66711  0.93359  0.48980  1.0000
  C   C8450     1.0  0.88625  0.94757  0.48647  1.0000
  C   C8451     1.0  0.86044  0.98933  0.62115  1.0000
  S   S1127     1.0  0.66823  0.92233  0.73459  1.0000
  H   H6758     1.0  0.90177  0.84535  0.49050  1.0000
  H   H6759     1.0  0.69837  0.88192  0.49148  1.0000
  H   H6760     1.0  0.50884  0.90508  0.71062  1.0000
  C   C8452     1.0  0.96809  0.74358  0.52302  1.0000
  C   C8453     1.0  0.55641  0.87914  0.72687  1.0000
  H   H6761     1.0  0.64525  0.88606  0.73108  1.0000
  C   C8454     1.0  0.56614  0.86614  0.72510  1.0000
  C   C8455     1.0  0.53195  0.98705  0.71192  1.0000
  C   C8456     1.0  0.55065  0.91630  0.72760  1.0000
  C   C8457     1.0  0.59954  0.88622  0.72995  1.0000
  H   H6762     1.0  0.69127  0.89597  0.72794  1.0000
  C   C8458     1.0  0.71070  0.92262  0.72893  1.0000
  C   C8459     1.0  0.72770  0.87463  0.72870  1.0000
  H   H6763     1.0  0.74147  0.88793  0.72919  1.0000
  H   H6764     1.0  0.68019  0.96056  0.73161  1.0000
  H   H6765     1.0  0.71524  0.85889  0.73137  1.0000
  H   H6766     1.0  0.66880  0.88899  0.72993  1.0000
  C   C8460     1.0  0.73749  0.87821  0.73424  1.0000
  C   C8461     1.0  0.53130  0.83020  0.76516  1.0000
  C   C8462     1.0  0.51841  0.82741  0.88523  1.0000
  S   S1128     1.0  0.53949  0.78782  0.93339  1.0000
  Fe  Fe564     1.0  0.55765  0.75779  0.87045  1.0000
  H   H6767     1.0  0.57956  0.81215  0.84009  1.0000
  H   H6768     1.0  0.55035  0.83549  0.88537  1.0000
  Fe  Fe565     1.0  0.59328  0.83478  0.79911  1.0000
  S   S1129     1.0  0.58757  0.85227  0.78064  1.0000
  S   S1130     1.0  0.59495  0.84189  0.81785  1.0000
  Fe  Fe566     1.0  0.59371  0.81166  0.78509  1.0000
  S   S1131     1.0  0.58770  0.82722  0.76538  1.0000
  S   S1132     1.0  0.59843  0.78811  0.78576  1.0000
  Fe  Fe567     1.0  0.60390  0.83831  0.76690  1.0000
  S   S1133     1.0  0.61784  0.84843  0.74664  1.0000
  Fe  Fe568     1.0  0.57182  0.83993  0.78064  1.0000
  C   C8463     1.0  0.53993  0.77176  0.90048  1.0000
  S   S1134     1.0  0.61133  0.82176  0.78539  1.0000
  S   S1135     1.0  0.57620  0.82335  0.80036  1.0000
  C   C8464     1.0  0.51877  0.80736  0.85900  1.0000
  H   H6769     1.0  0.56282  0.98100  0.76196  1.0000
  H   H6770     1.0  0.65919  0.98617  0.74184  1.0000
  H   H6771     1.0  0.60306  0.89820  0.75716  1.0000
  C   C8465     1.0  0.61434  0.78930  0.83311  1.0000
  C   C8466     1.0  0.52250  0.94513  0.92438  1.0000
  C   C8467     1.0  0.50889  0.80379  0.84104  1.0000
  C   C8468     1.0  0.51536  0.90040  0.94638  1.0000
  H   H6772     1.0  0.59968  0.97313  0.78010  1.0000
  C   C8469     1.0  0.55669  0.95350  0.76002  1.0000
  S   S1136     1.0  0.65184  0.95742  0.74887  1.0000
  C   C8470     1.0  0.50933  0.75381  0.92835  1.0000
  H   H6773     1.0  0.57355  0.76528  0.92218  1.0000
  C   C8471     1.0  0.62971  0.97651  0.73728  1.0000
  C   C8472     1.0  0.56017  0.78832  0.80082  1.0000
  H   H6774     1.0  0.70903  0.90070  0.73716  1.0000
  C   C8473     1.0  0.63204  0.97930  0.75972  1.0000
  C   C8474     1.0  0.63687  0.97205  0.74855  1.0000
  H   H6775     1.0  0.55903  0.74278  0.93501  1.0000
  H   H6776     1.0  0.54674  0.96167  0.75980  1.0000
  C   C8475     1.0  0.52617  0.84140  0.94634  1.0000
  H   H6777     1.0  0.63753  0.97586  0.76847  1.0000
  S   S1137     1.0  0.53671  0.96294  0.87709  1.0000
  H   H6778     1.0  0.58957  0.77838  0.92598  1.0000
  C   C8476     1.0  0.62674  0.85996  0.74959  1.0000
  C   C8477     1.0  0.62654  0.86045  0.76347  1.0000
  C   C8478     1.0  0.63349  0.86992  0.76563  1.0000
  C   C8479     1.0  0.64011  0.87932  0.75397  1.0000
  H   H6779     1.0  0.61768  0.78568  0.82318  1.0000
  C   C8480     1.0  0.50522  0.93791  0.91079  1.0000
  H   H6780     1.0  0.62123  0.85339  0.77253  1.0000
  H   H6781     1.0  0.63365  0.87002  0.77635  1.0000
  H   H6782     1.0  0.65282  0.79671  0.87071  1.0000
  H   H6783     1.0  0.57105  0.98916  0.85462  1.0000
  C   C8481     1.0  0.53775  0.84807  0.77292  1.0000
  C   C8482     1.0  0.54178  0.83525  0.76826  1.0000
  H   H6784     1.0  0.53548  0.93325  0.77358  1.0000
  H   H6785     1.0  0.52032  0.86608  0.77733  1.0000
  C   C8483     1.0  0.52450  0.83441  0.96073  1.0000
  H   H6786     1.0  0.52674  0.81077  0.86207  1.0000
  H   H6787     1.0  0.55292  0.82928  0.76706  1.0000
  C   C8484     1.0  0.72751  0.85301  0.74753  1.0000
  H   H6788     1.0  0.53204  0.92265  0.92934  1.0000
  C   C8485     1.0  0.61222  0.76373  0.80152  1.0000
  C   C8486     1.0  0.60150  0.77639  0.80195  1.0000
  C   C8487     1.0  0.59300  0.77908  0.81515  1.0000
  C   C8488     1.0  0.59495  0.76884  0.82783  1.0000
  H   H6789     1.0  0.61877  0.76160  0.79135  1.0000
  H   H6790     1.0  0.58468  0.78884  0.81555  1.0000
  H   H6791     1.0  0.58823  0.77085  0.83798  1.0000
  C   C8489     1.0  0.55728  0.88067  0.82090  1.0000
  C   C8490     1.0  0.55647  0.86961  0.81539  1.0000
  C   C8491     1.0  0.56785  0.85747  0.81496  1.0000
  C   C8492     1.0  0.57999  0.85624  0.82022  1.0000
  C   C8493     1.0  0.58047  0.86696  0.82646  1.0000
  C   C8494     1.0  0.56915  0.87927  0.82669  1.0000
  C   C8495     1.0  0.57899  0.77239  0.91322  1.0000
  H   H6792     1.0  0.56725  0.84915  0.81038  1.0000
  H   H6793     1.0  0.58989  0.86608  0.83044  1.0000
  H   H6794     1.0  0.56979  0.88784  0.83094  1.0000
  H   H6795     1.0  0.60304  0.82005  0.84512  1.0000
  H   H6796     1.0  0.56977  0.76853  0.89802  1.0000
  H   H6797     1.0  0.54198  0.93594  0.86943  1.0000
  H   H6798     1.0  0.60128  0.79519  0.90585  1.0000
  C   C8496     1.0  0.54035  0.78612  0.91624  1.0000
  C   C8497     1.0  0.53838  0.77352  0.91429  1.0000
  C   C8498     1.0  0.54319  0.78276  0.88865  1.0000
  C   C8499     1.0  0.54493  0.79545  0.89061  1.0000
  C   C8500     1.0  0.54366  0.79709  0.90440  1.0000
  H   H6799     1.0  0.53595  0.76503  0.92345  1.0000
  H   H6800     1.0  0.54772  0.80380  0.88140  1.0000
  H   H6801     1.0  0.54527  0.80679  0.90592  1.0000
  H   H6802     1.0  0.52919  0.84133  0.84410  1.0000
  C   C8501     1.0  0.54552  0.88965  0.88480  1.0000
  C   C8502     1.0  0.55604  0.89787  0.87928  1.0000
  C   C8503     1.0  0.55494  0.90945  0.88503  1.0000
  C   C8504     1.0  0.54328  0.91289  0.89624  1.0000
  C   C8505     1.0  0.53256  0.90477  0.90174  1.0000
  C   C8506     1.0  0.53378  0.89309  0.89593  1.0000
  C   C8507     1.0  0.55561  0.88518  0.73826  1.0000
  S   S1138     1.0  0.56667  0.75135  0.84940  1.0000
  C   C8508     1.0  0.61799  0.98844  0.73699  1.0000
  C   C8509     1.0  0.51670  0.89301  0.74855  1.0000
  C   C8510     1.0  0.64017  0.87891  0.74012  1.0000
  C   C8511     1.0  0.52802  0.76515  0.85337  1.0000
  C   C8512     1.0  0.57745  0.93820  0.74785  1.0000
  H   H6803     1.0  0.55858  0.80703  0.78375  1.0000
  H   H6804     1.0  0.51792  0.94926  0.83239  1.0000
  C   C8513     1.0  0.53505  0.91152  0.78480  1.0000
  C   C8514     1.0  0.74221  0.86926  0.74636  1.0000
  C   C8515     1.0  0.53608  0.87463  0.94560  1.0000
  C   C8516     1.0  0.53302  0.88384  0.93288  1.0000
  C   C8517     1.0  0.73720  0.85667  0.75302  1.0000
  H   H6805     1.0  0.58870  0.96983  0.76219  1.0000
  C   C8518     1.0  0.61371  0.77933  0.84614  1.0000
  C   C8519     1.0  0.51389  0.85644  0.90144  1.0000
  H   H6806     1.0  0.54634  0.88068  0.88034  1.0000
  H   H6807     1.0  0.56497  0.89530  0.87049  1.0000
  H   H6808     1.0  0.56301  0.91594  0.88069  1.0000
  H   H6809     1.0  0.54261  0.92204  0.90036  1.0000
  H   H6810     1.0  0.52572  0.88657  0.90002  1.0000
  H   H6811     1.0  0.52939  0.94802  0.92935  1.0000
  Fe  Fe569     1.0  0.51720  0.87921  0.86892  1.0000
  C   C8520     1.0  0.53620  0.92252  0.77259  1.0000
  C   C8521     1.0  0.57994  0.98597  0.79018  1.0000
  S   S1139     1.0  0.60843  0.74319  0.84300  1.0000
  H   H6812     1.0  0.50914  0.80459  0.82999  1.0000
  C   C8522     1.0  0.59091  0.83439  0.86679  1.0000
  H   H6813     1.0  0.53920  0.88385  0.76950  1.0000
  H   H6814     1.0  0.54396  0.86454  0.94532  1.0000
  H   H6815     1.0  0.53866  0.88066  0.92290  1.0000
  S   S1140     1.0  0.54599  0.78040  0.87136  1.0000
  H   H6816     1.0  0.54727  0.87057  0.81106  1.0000
  C   C8523     1.0  0.52133  0.93389  0.86766  1.0000
  C   C8524     1.0  0.52199  0.83496  0.82114  1.0000
  C   C8525     1.0  0.54412  0.82239  0.83787  1.0000
  S   S1141     1.0  0.57853  0.74932  0.87789  1.0000
  H   H6817     1.0  0.54223  0.82307  0.79924  1.0000
  H   H6818     1.0  0.53567  0.76597  0.83093  1.0000
  S   S1142     1.0  0.55020  0.85438  0.77778  1.0000
  H   H6819     1.0  0.63112  0.79283  0.86607  1.0000
  H   H6820     1.0  0.58069  0.78575  0.87776  1.0000
  H   H6821     1.0  0.52984  0.82559  0.88501  1.0000
  H   H6822     1.0  0.54399  0.78758  0.83575  1.0000
  C   C8526     1.0  0.53055  0.94082  0.87035  1.0000
  C   C8527     1.0  0.50599  0.76541  0.91722  1.0000
  H   H6823     1.0  0.72357  0.84328  0.75273  1.0000
  C   C8528     1.0  0.58795  0.77986  0.91535  1.0000
  H   H6824     1.0  0.53435  0.82019  0.76173  1.0000
  H   H6825     1.0  0.51133  0.83416  0.98193  1.0000
  Fe  Fe570     1.0  0.52543  0.89436  0.83808  1.0000
  H   H6826     1.0  0.60386  0.82225  0.89241  1.0000
  S   S1143     1.0  0.52666  0.86224  0.88612  1.0000
  H   H6827     1.0  0.53491  0.83683  0.93839  1.0000
  P   P283      1.0  0.53144  0.81818  0.83058  1.0000
  H   H6828     1.0  0.52409  0.81103  0.79115  1.0000
  C   C8529     1.0  0.51200  0.83923  0.87594  1.0000
  H   H6829     1.0  0.50719  0.91027  0.94684  1.0000
  C   C8530     1.0  0.56460  0.94871  0.74759  1.0000
  C   C8531     1.0  0.55036  0.83904  0.84756  1.0000
  H   H6830     1.0  0.60217  0.83432  0.86148  1.0000
  C   C8532     1.0  0.56508  0.87824  0.74752  1.0000
  C   C8533     1.0  0.58824  0.97762  0.78032  1.0000
  C   C8534     1.0  0.61585  0.80734  0.87882  1.0000
  S   S1144     1.0  0.54405  0.89665  0.81943  1.0000
  C   C8535     1.0  0.57180  0.82202  0.88092  1.0000
  H   H6831     1.0  0.57282  0.83466  0.84855  1.0000
  H   H6832     1.0  0.53110  0.87098  0.96851  1.0000
  H   H6833     1.0  0.51089  0.75586  0.93783  1.0000
  C   C8536     1.0  0.50698  0.83786  0.82189  1.0000
  H   H6834     1.0  0.53933  0.92840  0.74992  1.0000
  C   C8537     1.0  0.62976  0.80011  0.87282  1.0000
  C   C8538     1.0  0.61331  0.94160  0.79961  1.0000
  C   C8539     1.0  0.62201  0.94627  0.78631  1.0000
  C   C8540     1.0  0.61829  0.94624  0.77388  1.0000
  C   C8541     1.0  0.60593  0.94164  0.77460  1.0000
  C   C8542     1.0  0.59705  0.93703  0.78788  1.0000
  C   C8543     1.0  0.60095  0.93686  0.80041  1.0000
  P   P284      1.0  0.58162  0.93000  0.78909  1.0000
  C   C8544     1.0  0.56813  0.93473  0.80456  1.0000
  C   C8545     1.0  0.57471  0.93741  0.77298  1.0000
  C   C8546     1.0  0.56171  0.94787  0.77268  1.0000
  C   C8547     1.0  0.53069  0.75931  0.79579  1.0000
  C   C8548     1.0  0.53835  0.89471  0.77018  1.0000
  H   H6835     1.0  0.51155  0.96703  0.91734  1.0000
  C   C8549     1.0  0.58240  0.93246  0.76051  1.0000
  C   C8550     1.0  0.56189  0.92428  0.81523  1.0000
  C   C8551     1.0  0.55226  0.92786  0.82763  1.0000
  C   C8552     1.0  0.54904  0.94184  0.82961  1.0000
  C   C8553     1.0  0.55523  0.95233  0.81905  1.0000
  C   C8554     1.0  0.56472  0.94881  0.80656  1.0000
  C   C8555     1.0  0.58730  0.91085  0.79052  1.0000
  C   C8556     1.0  0.60143  0.90346  0.79207  1.0000
  C   C8557     1.0  0.60586  0.88875  0.79255  1.0000
  C   C8558     1.0  0.59633  0.88133  0.79138  1.0000
  C   C8559     1.0  0.58232  0.88861  0.78967  1.0000
  C   C8560     1.0  0.57778  0.90331  0.78929  1.0000
  H   H6836     1.0  0.61627  0.94145  0.80929  1.0000
  H   H6837     1.0  0.63172  0.94980  0.78557  1.0000
  H   H6838     1.0  0.62510  0.94965  0.76360  1.0000
  H   H6839     1.0  0.60351  0.94165  0.76473  1.0000
  H   H6840     1.0  0.59455  0.93291  0.81082  1.0000
  H   H6841     1.0  0.55544  0.95174  0.78215  1.0000
  C   C8561     1.0  0.56745  0.98209  0.77010  1.0000
  C   C8562     1.0  0.55911  0.99044  0.77994  1.0000
  H   H6842     1.0  0.52950  0.78515  0.80180  1.0000
  H   H6843     1.0  0.59243  0.92435  0.76048  1.0000
  H   H6844     1.0  0.56460  0.91329  0.81416  1.0000
  H   H6845     1.0  0.54744  0.91969  0.83577  1.0000
  H   H6846     1.0  0.54185  0.94449  0.83939  1.0000
  H   H6847     1.0  0.55287  0.96312  0.82069  1.0000
  H   H6848     1.0  0.56967  0.95697  0.79860  1.0000
  H   H6849     1.0  0.60913  0.90894  0.79282  1.0000
  H   H6850     1.0  0.61673  0.88308  0.79384  1.0000
  H   H6851     1.0  0.59976  0.86987  0.79201  1.0000
  H   H6852     1.0  0.57485  0.88277  0.78900  1.0000
  H   H6853     1.0  0.56680  0.90873  0.78820  1.0000
  P   P285      1.0  0.59982  0.80468  0.87544  1.0000
  H   H6854     1.0  0.52859  0.86711  0.80081  1.0000
  C   C8563     1.0  0.54659  0.79180  0.82432  1.0000
  C   C8564     1.0  0.56463  0.83096  0.84621  1.0000
  Fe  Fe571     1.0  0.65087  0.94219  0.73658  1.0000
  H   H6855     1.0  0.52838  0.83621  0.90756  1.0000
  C   C8565     1.0  0.60913  0.78397  0.85896  1.0000
  C   C8566     1.0  0.58652  0.82152  0.87420  1.0000
  C   C8567     1.0  0.64212  0.80226  0.87545  1.0000
  H   H6856     1.0  0.65028  0.81326  0.88614  1.0000
  C   C8568     1.0  0.61055  0.80393  0.83289  1.0000
  H   H6857     1.0  0.51731  0.85926  0.93095  1.0000
  H   H6858     1.0  0.62576  0.82598  0.89695  1.0000
  H   H6859     1.0  0.58411  0.85732  0.85997  1.0000
  C   C8569     1.0  0.53963  0.90566  0.75779  1.0000
  H   H6860     1.0  0.60895  0.77602  0.86890  1.0000
  C   C8570     1.0  0.56170  0.83515  0.88022  1.0000
  C   C8571     1.0  0.60487  0.79870  0.85887  1.0000
  H   H6861     1.0  0.53808  0.76632  0.85469  1.0000
  C   C8572     1.0  0.50462  0.74921  0.90391  1.0000
  S   S1145     1.0  0.51789  0.87393  0.84836  1.0000
  H   H6862     1.0  0.54133  0.84368  0.81240  1.0000
  H   H6863     1.0  0.56182  0.80440  0.83307  1.0000
  S   S1146     1.0  0.64860  0.89121  0.75687  1.0000
  H   H6864     1.0  0.61666  0.76797  0.84627  1.0000
  C   C8573     1.0  0.57680  0.77428  0.89959  1.0000
  H   H6865     1.0  0.61101  0.81168  0.82276  1.0000
  H   H6866     1.0  0.54288  0.98975  0.82875  1.0000
  H   H6867     1.0  0.56803  0.81236  0.88671  1.0000
  H   H6868     1.0  0.51497  0.80903  0.90224  1.0000
  C   C8574     1.0  0.55832  0.81403  0.83717  1.0000
  H   H6869     1.0  0.56050  0.77177  0.81997  1.0000
  C   C8575     1.0  0.54142  0.80637  0.81862  1.0000
  C   C8576     1.0  0.51844  0.79127  0.80412  1.0000
  C   C8577     1.0  0.52341  0.85604  0.77398  1.0000
  C   C8578     1.0  0.59457  0.78939  0.90386  1.0000
  H   H6870     1.0  0.55818  0.85794  0.87193  1.0000
  C   C8579     1.0  0.56613  0.84785  0.87271  1.0000
  H   H6871     1.0  0.74079  0.84978  0.76246  1.0000
  H   H6872     1.0  0.50515  0.77621  0.91810  1.0000
  C   C8580     1.0  0.56852  0.81836  0.84127  1.0000
  C   C8581     1.0  0.51768  0.84292  0.91020  1.0000
  C   C8582     1.0  0.60594  0.80864  0.84569  1.0000
  C   C8583     1.0  0.58314  0.78399  0.88811  1.0000
  C   C8584     1.0  0.62005  0.99095  0.75964  1.0000
  C   C8585     1.0  0.54010  0.83475  0.84345  1.0000
  P   P286      1.0  0.54289  0.90200  0.74025  1.0000
  H   H6873     1.0  0.53864  0.76191  0.89900  1.0000
  C   C8586     1.0  0.62688  0.81877  0.89020  1.0000
  C   C8587     1.0  0.58073  0.84749  0.86600  1.0000
  C   C8588     1.0  0.60578  0.75620  0.82734  1.0000
  C   C8589     1.0  0.59218  0.79157  0.89013  1.0000
  H   H6874     1.0  0.54740  0.84889  0.85130  1.0000
  S   S1147     1.0  0.63286  0.93054  0.74372  1.0000
  C   C8590     1.0  0.64069  0.81159  0.88412  1.0000
  C   C8591     1.0  0.52971  0.84565  0.81341  1.0000
  C   C8592     1.0  0.61450  0.81666  0.88757  1.0000
  S   S1148     1.0  0.50958  0.80926  0.95850  1.0000
  C   C8593     1.0  0.58205  0.97577  0.77022  1.0000
  C   C8594     1.0  0.55599  0.78284  0.81545  1.0000
  C   C8595     1.0  0.52507  0.95421  0.87393  1.0000
  H   H6875     1.0  0.52389  0.76824  0.78992  1.0000
  H   H6876     1.0  0.56787  0.78150  0.79402  1.0000
  P   P287      1.0  0.51800  0.90847  0.91685  1.0000
  H   H6877     1.0  0.52571  0.92364  0.86486  1.0000
  C   C8596     1.0  0.52876  0.87823  0.95869  1.0000
  H   H6878     1.0  0.51869  0.96928  0.84221  1.0000
  S   S1149     1.0  0.52694  0.89835  0.85837  1.0000
  H   H6879     1.0  0.63963  0.74397  0.89435  1.0000
  C   C8597     1.0  0.51528  0.92702  0.91758  1.0000
  C   C8598     1.0  0.51033  0.96067  0.87472  1.0000
  C   C8599     1.0  0.51278  0.83991  0.97089  1.0000
  C   C8600     1.0  0.55496  0.80276  0.79504  1.0000
  C   C8601     1.0  0.54569  0.81181  0.80390  1.0000
  C   C8602     1.0  0.51245  0.95586  0.91762  1.0000
  H   H6880     1.0  0.59667  0.74400  0.92044  1.0000
  C   C8603     1.0  0.59829  0.88726  0.74392  1.0000
  C   C8604     1.0  0.51878  0.80920  0.84458  1.0000
  C   C8605     1.0  0.63384  0.86900  0.73794  1.0000
  C   C8606     1.0  0.52250  0.85904  0.80685  1.0000
  Fe  Fe572     1.0  0.52539  0.98605  0.87626  1.0000
  H   H6881     1.0  0.51268  0.89383  0.96928  1.0000
  H   H6882     1.0  0.53553  0.88911  0.79310  1.0000
  H   H6883     1.0  0.54978  0.98247  0.85191  1.0000
  H   H6884     1.0  0.50415  0.91655  0.89253  1.0000
  C   C8607     1.0  0.54332  0.75157  0.78829  1.0000
  Fe  Fe573     1.0  0.51631  0.79284  0.94523  1.0000
  H   H6885     1.0  0.51778  0.76413  0.87543  1.0000
  C   C8608     1.0  0.52267  0.89684  0.93316  1.0000
  C   C8609     1.0  0.53844  0.91965  0.75916  1.0000
  S   S1150     1.0  0.50569  0.77656  0.96218  1.0000
  H   H6886     1.0  0.56507  0.88270  0.75619  1.0000
  C   C8610     1.0  0.51326  0.76422  0.83811  1.0000
  C   C8611     1.0  0.61456  0.75381  0.81418  1.0000
  H   H6887     1.0  0.59386  0.87949  0.75291  1.0000
  C   C8612     1.0  0.51840  0.89110  0.95909  1.0000
  C   C8613     1.0  0.53618  0.89763  0.78359  1.0000
  H   H6888     1.0  0.51888  0.88901  0.75911  1.0000
  C   C8614     1.0  0.51623  0.85401  0.94215  1.0000
  H   H6889     1.0  0.53198  0.82443  0.96398  1.0000
  C   C8615     1.0  0.52653  0.76514  0.83992  1.0000
  C   C8616     1.0  0.52392  0.93077  0.92437  1.0000
  C   C8617     1.0  0.57465  0.86515  0.74579  1.0000
  H   H6890     1.0  0.51053  0.82733  0.92880  1.0000
  H   H6891     1.0  0.61380  0.91564  0.73662  1.0000
  H   H6892     1.0  0.58377  0.93463  0.73819  1.0000
  H   H6893     1.0  0.51852  0.84649  0.86863  1.0000
  C   C8618     1.0  0.51642  0.76398  0.86513  1.0000
  H   H6894     1.0  0.53671  0.98609  0.80538  1.0000
  H   H6895     1.0  0.58179  0.85969  0.75305  1.0000
  P   P288      1.0  0.51088  0.76566  0.82056  1.0000
  C   C8619     1.0  0.50870  0.80059  0.86969  1.0000
  H   H6896     1.0  0.55029  0.75352  0.98551  1.0000
  H   H6897     1.0  0.51002  0.98936  0.81093  1.0000
  C   C8620     1.0  0.50460  0.85960  0.95231  1.0000
  Fe  Fe574     1.0  0.50402  0.91076  0.85903  1.0000
  H   H6898     1.0  0.74971  0.87211  0.75063  1.0000
  C   C8621     1.0  0.50718  0.78466  0.81289  1.0000
  Fe  Fe575     1.0  0.65003  0.91114  0.73952  1.0000
  C   C8622     1.0  0.60350  0.89780  0.74633  1.0000
  H   H6899     1.0  0.58519  0.98786  0.79741  1.0000
  H   H6900     1.0  0.52555  0.79576  0.98470  1.0000
  H   H6901     1.0  0.70556  0.92559  0.73910  1.0000
  C   C8623     1.0  0.51003  0.81818  0.89498  1.0000
  C   C8624     1.0  0.51678  0.83786  0.76692  1.0000
  C   C8625     1.0  0.51551  0.80599  0.79828  1.0000
  C   C8626     1.0  0.52614  0.90027  0.73735  1.0000
  H   H6902     1.0  0.56089  0.95321  0.73771  1.0000
  H   H6903     1.0  0.50596  0.97106  0.87727  1.0000
  S   S1151     1.0  0.50321  0.90832  0.83770  1.0000
  C   C8627     1.0  0.50905  0.96938  0.83895  1.0000
  C   C8628     1.0  0.53556  0.74350  0.81805  1.0000
  C   C8629     1.0  0.50286  0.85265  0.96680  1.0000
  H   H6904     1.0  0.51255  0.74671  0.97646  1.0000
  H   H6905     1.0  0.53338  0.91371  0.79522  1.0000
  C   C8630     1.0  0.50377  0.95224  0.91090  1.0000
  C   C8631     1.0  0.55634  0.98831  0.84272  1.0000
  H   H6906     1.0  0.50919  0.79855  0.88075  1.0000
  H   H6907     1.0  0.63052  0.74170  0.92055  1.0000
  C   C8632     1.0  0.52694  0.75556  0.81075  1.0000
  H   H6908     1.0  0.54631  0.75465  0.77675  1.0000
  H   H6909     1.0  0.62290  0.74408  0.81373  1.0000
  C   C8633     1.0  0.50863  0.95814  0.83340  1.0000
  C   C8634     1.0  0.50656  0.94032  0.86858  1.0000
  C   C8635     1.0  0.51290  0.85087  0.77120  1.0000
  C   C8636     1.0  0.50752  0.83785  0.92222  1.0000
  C   C8637     1.0  0.50763  0.86180  0.80759  1.0000
  C   C8638     1.0  0.50445  0.89039  0.74616  1.0000
  Fe  Fe576     1.0  0.58682  0.74131  0.85771  1.0000
  S   S1152     1.0  0.50345  0.83095  0.76422  1.0000
  C   C8639     1.0  0.50359  0.76312  0.90503  1.0000
  H   H6910     1.0  0.50277  0.92678  0.77107  1.0000
  C   C8640     1.0  0.50308  0.76322  0.86339  1.0000
  H   H6911     1.0  0.50262  0.74744  0.89451  1.0000
  H   H6912     1.0  0.50216  0.87206  0.80219  1.0000
