data_image0
_chemical_formula_structural       H3S2FeC2SH2C2HSHCFeH2C2HC2FeC2FeC2HC2H2CHFe2S4C2HFeS2FeS2FeSFeS6C6H4C6H4C4H6CHC6H4C2HC4FeCH2CHC2HC3HC3HCHCFeC4HCHC2H2C5HC8H4SHSHCSHCH5SC4SHCH3C6PC8H3C5HC2H12SCH2C5H2FeSH2C2H2FeCHCH3CHCS2C3HCH2CH2CHC2HC7PC2H2CPC12H5CSC2H9CHC3FeC2HCH3CH3CH4CSH2CHC4HSCHC2HSCH2C2H3FeC2HCFeSHSHC3H2C5HPFeCPFeHCHCH3PH2CSH2C2H8C2HC5HCH2CFeH6C2S2FeS2FeCHFeCS2CHC2H2CH2CH4C8H3CH2CH2C2HCHCHSHC2H2CHC3PC4HSC4H2CHCHCH3CHSH2C3HFeCHCPCHCH3C2SC4HC4SCSHC2HCHC2SH3CHCHCHC3FeCFeH2SCHC2HC2HS2H2C3H2CHC2HCSFeC3HC2HCFeCHCSCFeHC2HC2H3SCH2C3SH2CH3C2H3CH2FeC2HC2H3CH3FeCHC2H2CHCH2C6PC18H20CHC4HC5HSCSH2CPC2H3SCHC2PCH2C2SCHCHC2HCFeCH2FeSCHSFeS3H2C2FeS2FeS2FeCFeS3C2H2C2SC2HC2FeS2FeS2FeSFeS3C6H5C3HCHC6HC6H4C3HCH4CH2C3H4C2HFeC4H2C7H4C6H6CHCHC6H4C4PC9HSH11C3HCH2PSC2HC3H2CH3C2H3SH2CH3C6SC3HCH2C2S2H2CH2C5HC2SC2HFeSHC2H2C4PC12H14FeHSCSC2HCHC5HSC3HPHC6FeH9CHC2HCHC5HC2HFeC2HC2SPH4C2H3CH2C2H2CSCHCHC2HC2SHCHC5H2CHC4H5PC3HCHC4H2CH2C2HC2PHC2HC2FeH2CHCHFeH3C3HC4HCHCHCHC4H2FeC6HCHC2H2C4HCH3C2H5C4HCH2CH2FeCS2HCPHC5SCH6C2HCHSC5H3C3H3C2H5CH3C2SH2CH3CH2C2H3C2FeC3SFeCHC2HCSHC4SHCH3SCSC2HCHFeSHFeS2FeHFeSCHCH2PSCFeS3FeCSH2C2H2CHSC3HCHC7H5C3H2CH4CH2CHCH4C6H3C4HSC2H2CHCS2CHC3H2CFeC3H2C2HC3H4C7H2C7H2C2HCHCHC3H2C2PC3HC3H3SC4H4C2HC3HCH3FeHFeCHC3HC5H3CHCHCH2CHCH4SCH4C2H2C5SHCH4C3PC2H2CH2C3HSCH2CHC2HCHCHCHC2HCHPC7H8C6PC9SHC3H2C2H2SCHCHC2FeCHPC2H7C3HPH2C2H4FeCH3FeSHFeSHFeSC2SFeCH5CH3S2FeSHCSFeS2HSCSCSC2HC3HC2SHCFe2S2C3FeHFeS2HC4SHC3H2CSH2CH2C5H4C6H4C2PCH4CHSCHFeC4H3C2PHC2SHC5H2CHCHC2H2C4H2C4HCS2HC2H2CPC2HCH2C2SH4CHC6PC14H2C3HCH13C2H2C6PC9H14C2HFeHC2H3CSHC2FeHC5H2C2H2C2HCHC3HCH3C6PC18H18CHC2HCHC4H5CH3SHCHCFeCHCHCHC2HCHC2H2SHC2HSHC8H2CH2C3HCH3C2H2C2FeHC2HCHFeC3HCH2CHCFeH2SH2CPSHCHCH2CH3C2HC3HC6SC4FeCH2C2HPC5HCSH2C3H2C3H2C2HC2SCH5C2HC2SHCHC2H2CHC3H2C6HCHSH2CH2CHC2HC2SCHCH2C2HCSC2HC2HC2HC2HSH2SCHSC2FeH3CSC2H2C5HC4PC2PHCHCH2FeC8H3CHSCFeH2CH11C2SCHC4HC2H4CH2C3HC2H2CH2CHC4HC2PC2HC2H2C2H2C3HCHC2PHC2SCH2CHC3H4C5HSHCFeC2HCHC3HS2C5SCHC4HC2FeCH2SH2PH2C3SCHC6HC4H3C3HSC2H2C2H2C2HCH3C3FeH5CFeHSCHSH2C4H5C3H3CS2H3CH3C2HC4H2C2HCFeHCH3C4H3FeHC2SHS2C2SHFeS2FeS2FeSFeS3FeS2FeS2FeSFeS3C2HC6H4CHC3H2C6H2C7H4CHC6H4C6H3PSC2H4S2C3H2CFeHCH2C4FeHSCHCH2SHCSHCH2CH3C6PC18HCH15CH3Fe2SFeC6PC4HSC12H7C2H4PH6SHCHC2HCHCHCHC2H2C2HC4H5CH2FeCH3C3HPSH2PHSPCH6SCH2CHCH4C3SH2CFeHPCHC4PC10HC7H4CH5C2H8C4H2SC2H3FeH4C17HCS2C2HC2HSH2C4HCH3CHSCSCHC5H4C7PC3FeHC13H6C3H11CHSHC2HCHC6SFeHCHCSHC2H2C5H3C3FeC4H3CH2C3H2C2H3CHFeC4HCH3C2HCH2CH2CHC3HCH2CFeC2HC3H2C2HCH4CHC3HC2HC2Fe2SH3C4HFe2S2C2FeSFeSHSCSHFeSCSHC6H4SHSCHCSH2FeC3SCHCH2CHCHC6H6CHCHC2HCH2CH2C2H3CSC2FeSC4HCH3SH2CHPC2H3PCFeCS2CHC2HCHSCH3CH6CH4CHC2HCHC2HC2FeCSC2FeS2FeS2FeSFeS3FeSCFeS2FeSFeS2FeSC2SHFeSFeHC3FeSHFeSHFeSFeSHSFeSFeS2FeS3C6H4C6H2C2H2SHC9H4CSHC4HC5H2C6H4C6H5C3HC2H2C7H6SHC2H2C2H2C5H2C2H2SCHCSCHPCHCSCHC4SC4H2FeH2CH4C7HCHCH5CSH2CH2CH2CHC2SHC2H2C3HC2HC2FeC9PC2HFeHCHC5HCH2CHCH4CHCH6C2H2PC8HC5H10C3HCH2C2H4C6PC18H12CH9C4PC5HC6HPFeCH2CH2CH7CHCHC4PC15H17C3HC2PHCHCH2SC2FeCSHSHCHCHCHC3HCH2C6H2CH3C3HCH2CSCHCSC3HCH2CHCH2C4HCHC2H2CHCHSPH2CSHCFeCH2C2HCH2C2HCH2CHCH2CH2CH2CHC4HCPC3H4CH2CSHSFeSFeSCFeSC2H2FeSFeHS2C2HC2S2HC3HCH2CPHC4HC6H4C6H3C3H2C2HC4H2CHC4H2CHCHCFeH3CH4C2HC6HC2HCHCH2C3H2C3PC18PC2H10CH8C3H3C2SH3C3H2C4H3CHCHC4H5C3H2CH2CHC3FeC2SCHSC5HC3PHC2PC2H2CHC2HC2HCPSCFeSC2HCSC3HCSFeH2SC3H2PH5CH3C16H2CHCHCHCH3CS2HC2H5C6HC3HCH3CH4SC7HCH5C3H2CHCHCH2CH3CH2C2H2CH2C4H3CHCHC3HC5FeSC2HCHSHCHC2HCHCHCSFeHC2SC2FeS2HSFeSCFeS2HCH5SCHSHCH3CFeSC4FeS2FeS2FeSFeS2HC2HC2H3C4H3C6H4CH3C5HCPCH5C2FePHSC8H4C6H3CPH2CH2CH4PCH3C3H3C2SCHCH6C3H2C5SCHCHC3HC2H3CH2CHCHC7PC14HCHCH2CH4C2H7CHSCH2SCHCHFeSFe2SHCHCHCSC6H5CH2C4H2CHCSHSHPC5HFeCH7CHC4H2CSHC2HC3PC21H4CH11PCHC2HPC8H2CHC2H3CHCHCHC2H2CHC3HC3H3C2HCH2CH2C3HC2HC2SHC2HC2H2C9HPCHCH3SCH2CH2C3HCHC4H2C3HCHC2HC2HCHCH2CHCH2CHC3H3C3HC2HSC2HC4H4CHC2H2CHCH3CH2C2HCHS3C2FeHSHC2H2CHPC4HCH2C5HCHCH2CHC2SC2HC2H3C6H2C6H4FeCHCHC6PC3HC2HC6H8CHC2HCH6C2H2PH2CHCFeC4H3C2HCHCSHC2HC2HCHC3H3C3H3CSC4HC2HC3FeCH3CH3S2HC8HC3PH3CH2C3H3FeSH2CH2CS2HC4HC4H2FeH4CHC3SHFeS2FeSFeS3FeS2FeS2FeS2FeS2FeSFeS3H4FeHSFeCHFeS2C2H2CFeCH2CHCFeHSCH2CFeC3H3C2FeH2CSFeC2HC2HPHCH2C6H4C6H4C6H4C6H4C3H2CH2PHC6H4C6H4CPC4HC6PC18HCH10CH7CH2CHC2H3C2HCFeHSHCH2C4H3CHCSH2CSCHC2H3C2SC2SHCH2C6H8C5HC2HC3HPH4C6PC2SCH2C4SHC6PH4C2HCH3C3H5CPC16H13C2HC3PC5HC6H3SC2HSH8C6H2CHCHC2H2CH6CH2C3HC2HFeC6H2C2H3C2H2SHC2H2CHC3HCHFeC2SCHC4H3CSHCFe2S2Fe2S3HCH2FeS2FeSFeS3PHC4HC4H2C2HC7H3C6H2C2H2CFeCH2C10H5CHCSC3PC4HC5H9CHC4HC2FeHFeH2CHC2HPC3SH2C6PCH3C2HC11H7CHC3H6CH6CH3CH4CHSHCSC2HCH2C2H2C4SC3HPSC2HC2PH2C3HCHC2H3C9PC18H7CSH11CHCH2SC2SH2FeHSC6H3SC3HCHCHCS2CH2C2H2CH4C8HC3H2CH2C2Fe2CHC2H2C4H3C2H3CHC7HCH7C2HC3H3CH3C2SH2C3H2SC2HCH2CHCSCH3CHC2HC2FeHCH2C3HC2SH2CH2SH2SH2C6HFeSCSC2FeSFeSH2CHCFeS2FeHFeS3FeS2FeSFeSCS2C3SHCHCFeC6H4C2H2SC6H4C6H2SHC2HCH2C7H2SHCH3CPHPCHC6PHCH2C2FeH4C4SHC13H2CHC2SC5H3CHCH5SHC2HC2FeH2C6PC15HC3H10CH6CHC6PC8HCHC2FeH14CHCHC2HCSCHPCH3CHC5H2C4H8C6PHC2HC2HCH12CHC2H2C2HC2H2CH3CPH4SCHSC4SC2HCFeCHSC2H3CSC5H4CHC2HC3H3C2HC3H2C3SH3CH3CHC6H3C2HSHCHC3HCHCHCHC9HC3H2CHCSCH3CHC2HC2SCH2C2SCHSCFeSFeHSCFeS2FeS2FeSFeS3CSHC6H5CHC5HC2SC4H4C3H3FeC8H4C2HC2HC2H2C2SHCH3CH2CH2CHSCFeCH5C2HC5HC2H2C4H3CHCFeCHCPHC5H2C2H2CSH3C4H2C4HC4SC2PH2FeH8CH3C3HCPCHC4SC11HC2HCHC2HSH7PHC7PC15HC2H18CH2C6PC9HSC7H11C2H8SCH2SC3HCHC4SH2C4H6SC2HFeC2H4C8FeCHFeCFeHCHCH2C2H5C2HSCH2C3SH4C2SCHCH2FeC3FeC4HC2H2C2FeH3C2HCHC4HCH3C4H2CPC4HC3H2CH3CPCH2SCHSHCH2C3H4C2HS2H3CHCHC2HC2SCH3C2HC3H2C2H2C2HC2HCHCHC4SHCHSC4SCH2C3HC2H2C2SC2HC2H3CHCHC3H3C2HCHCH2C2HC2H4C6P2CSC4HCH6C2HCH2CHCH4C4HC4H2C4H2CSH2C2H3CHCH7CHCHFeHCH2CHC2H2FeS2FeS2FeSFeS3FeS2FeS2Fe2S3C2SHCH2C4SHC2H2CHPH5C2HCHSCH2CHC2HCH3CHCHC3HCHC4HCHCHCH2CH7C5H2C6HCH2CPC2HC6H2CHC6H4C6H2C4HC2PC2H5C2H3C2HC2H4C3HC4HCSCHC2H5FeHC2HC2HC6H7C3HC5H4C3PCH3C8PC18H23PC3HPCHCH3C2HC4HCH2CHC4HC2HCH2CH2C2HC2HCH2C3H2CHCPHC2HC4HCH2C2H4C2HCH2C5SC7H5C2HC2HC2HC3H3C2H2C3H4CHC3H4C2H2CHCSCFeC2H3C3HFeCFeCSH2C2S2FeS2FeSHFeSFeS5C6H2CHSH3C4HC4HCH2C6H6CH3CH3CHC2SC4H3C2H2C2HC3H3C4HC2HCPHCH2CH5C4HCHCFeCHCHC3SC5H2C3HCHCH2CH4CHC2H3C3HC6PH6C3HC2H2C2HC3H3CHCHCHC3HCFeC3H3CSH2CHC3HC5PC3HCHCHC2HC2H2C2PC2H2CHCH3SCHC2HCH2C4H2PC2HCHPCHCHC2H3C3H3CH2CFeHCPC2HFeCPH4FeS2FeS2FeSFeS3HSCSHCH2CH2SFeSFeS2FeSFeS5FeSHC9HCH2C6H2CH3C3H7C6H4CHCH2C3FeHC6H4C3H5CH2C2HC2H2CH3C6HCHCSCFeCHSH2PC4H2C3HCSH3C4HCH2SC2SC2H2C2HCHPHCH3CHC2HCH2C9HFeCHSFeC4H2CH2C2H6CHSCH2CH2CH3CPC7PC3HC5HC4HC3H5CH2C3HCH3PCFeC2H2C2FeC8PC18H20C3H5C6PC18H13C2HC4H4SC2HSHC2H2C4H6C3H6CH2CHC2HC4HC3SCFeC2HSH2C8FeS2FeSFeSFeS3HCH3C4FeHC3H2C2H2C3HC2PHCSCHC7H2C2H2PH2CHC6H3C3H3C8HCH2C3H2C2HCHFeC2H6C2H3CHC2H4C3SC2HC3H3CH2CSCH2CHCHC6H2FeCSC9H7CH2C5HSFeHCPHC2H5C2SHCH2CH2CHSCHCSCHC3HCHC5HC3HC2HSHC3H2C2H2CHC2H2PC2H5C2HCH2C3HCHCH2C2HCPHCHC2H2C2HCHC2HC2H2CH4CH4C3FeSH3CHCHC3
_chemical_formula_sum              "H3456 S576 Fe288 C4320 P144"
_cell_length_a       72.5488
_cell_length_b       73.2818
_cell_length_c       73.8786
_cell_angle_alpha    77.8355
_cell_angle_beta     77.7475
_cell_angle_gamma    77.7306

_space_group_name_H-M_alt    "P 1"
_space_group_IT_number       1

loop_
  _space_group_symop_operation_xyz
  'x, y, z'

loop_
  _atom_site_type_symbol
  _atom_site_label
  _atom_site_symmetry_multiplicity
  _atom_site_fract_x
  _atom_site_fract_y
  _atom_site_fract_z
  _atom_site_occupancy
  H   H1        1.0  0.42193  0.98406  0.25113  1.0000
  H   H2        1.0  0.42811  0.01219  0.28936  1.0000
  H   H3        1.0  0.39635  0.16279  0.28317  1.0000
  S   S1        1.0  0.46532  0.18138  0.25770  1.0000
  S   S2        1.0  0.47552  0.01279  0.25498  1.0000
  Fe  Fe1       1.0  0.48036  0.22063  0.29808  1.0000
  C   C1        1.0  0.47492  0.15690  0.26154  1.0000
  C   C2        1.0  0.41347  0.21584  0.27541  1.0000
  S   S3        1.0  0.45901  0.06201  0.27173  1.0000
  H   H4        1.0  0.40007  0.13514  0.26774  1.0000
  H   H5        1.0  0.41923  0.10428  0.27979  1.0000
  C   C3        1.0  0.46127  0.99491  0.26194  1.0000
  C   C4        1.0  0.44465  0.99721  0.25435  1.0000
  H   H6        1.0  0.44887  0.14870  0.25899  1.0000
  S   S4        1.0  0.46170  0.22803  0.27604  1.0000
  H   H7        1.0  0.43985  0.01050  0.24564  1.0000
  C   C5        1.0  0.46356  0.14375  0.26106  1.0000
  Fe  Fe2       1.0  0.47495  0.03192  0.27542  1.0000
  H   H8        1.0  0.46242  0.11428  0.26212  1.0000
  H   H9        1.0  0.43386  0.19361  0.28757  1.0000
  C   C6        1.0  0.47116  0.12424  0.26293  1.0000
  C   C7        1.0  0.40674  0.13380  0.27987  1.0000
  H   H10       1.0  0.45011  0.15567  0.29630  1.0000
  C   C8        1.0  0.40462  0.14944  0.28871  1.0000
  C   C9        1.0  0.41759  0.11644  0.28657  1.0000
  Fe  Fe3       1.0  0.48019  0.20251  0.26487  1.0000
  C   C10       1.0  0.41877  0.19912  0.28771  1.0000
  C   C11       1.0  0.42635  0.11471  0.30209  1.0000
  Fe  Fe4       1.0  0.48508  0.06988  0.27793  1.0000
  C   C12       1.0  0.38003  0.21407  0.28720  1.0000
  C   C13       1.0  0.39413  0.22337  0.27520  1.0000
  H   H11       1.0  0.36502  0.21989  0.28702  1.0000
  C   C14       1.0  0.43455  0.98218  0.25739  1.0000
  C   C15       1.0  0.40470  0.18972  0.29986  1.0000
  H   H12       1.0  0.48336  0.16586  0.21795  1.0000
  H   H13       1.0  0.42446  0.22291  0.26599  1.0000
  C   C16       1.0  0.38527  0.19725  0.29942  1.0000
  H   H14       1.0  0.48194  0.15677  0.30186  1.0000
  Fe  Fe5       1.0  0.45036  0.05532  0.30312  1.0000
  Fe  Fe6       1.0  0.38197  0.04961  0.56458  1.0000
  S   S5        1.0  0.35063  0.05643  0.57667  1.0000
  S   S6        1.0  0.39500  0.05366  0.53381  1.0000
  S   S7        1.0  0.39132  0.06536  0.58304  1.0000
  S   S8        1.0  0.38689  0.02096  0.58293  1.0000
  C   C17       1.0  0.44196  0.14158  0.59892  1.0000
  C   C18       1.0  0.36990  0.98361  0.37909  1.0000
  H   H15       1.0  0.40422  0.98868  0.43467  1.0000
  Fe  Fe7       1.0  0.35070  0.03233  0.45611  1.0000
  S   S9        1.0  0.32377  0.04702  0.44544  1.0000
  S   S10       1.0  0.34672  0.02525  0.48747  1.0000
  Fe  Fe8       1.0  0.37357  0.03086  0.41698  1.0000
  S   S11       1.0  0.34805  0.04522  0.40338  1.0000
  S   S12       1.0  0.40362  0.02153  0.40188  1.0000
  Fe  Fe9       1.0  0.34275  0.06482  0.42434  1.0000
  S   S13       1.0  0.33367  0.09653  0.41588  1.0000
  Fe  Fe10      1.0  0.33189  0.02588  0.42593  1.0000
  S   S14       1.0  0.30878  0.01210  0.42104  1.0000
  S   S15       1.0  0.36922  0.05162  0.43659  1.0000
  S   S16       1.0  0.35770  0.00997  0.43793  1.0000
  S   S17       1.0  0.47471  0.06601  0.30902  1.0000
  S   S18       1.0  0.42046  0.06413  0.31775  1.0000
  S   S19       1.0  0.37452  0.15448  0.43897  1.0000
  C   C19       1.0  0.34536  0.11250  0.42214  1.0000
  C   C20       1.0  0.35978  0.10610  0.43304  1.0000
  C   C21       1.0  0.36846  0.11917  0.43822  1.0000
  C   C22       1.0  0.36302  0.13869  0.43233  1.0000
  C   C23       1.0  0.34877  0.14514  0.42123  1.0000
  C   C24       1.0  0.33994  0.13207  0.41618  1.0000
  H   H16       1.0  0.36407  0.09112  0.43773  1.0000
  H   H17       1.0  0.37933  0.11416  0.44697  1.0000
  H   H18       1.0  0.42421  0.13345  0.58323  1.0000
  H   H19       1.0  0.32876  0.13712  0.40778  1.0000
  C   C25       1.0  0.40843  0.03289  0.37830  1.0000
  C   C26       1.0  0.42717  0.03057  0.36810  1.0000
  C   C27       1.0  0.43102  0.03978  0.34932  1.0000
  C   C28       1.0  0.41616  0.05146  0.34078  1.0000
  C   C29       1.0  0.39747  0.05334  0.35084  1.0000
  C   C30       1.0  0.39366  0.04422  0.36952  1.0000
  H   H20       1.0  0.43875  0.02188  0.37475  1.0000
  H   H21       1.0  0.44553  0.03817  0.34163  1.0000
  H   H22       1.0  0.38585  0.06174  0.34409  1.0000
  H   H23       1.0  0.37923  0.04600  0.37700  1.0000
  C   C31       1.0  0.31859  0.02638  0.33862  1.0000
  C   C32       1.0  0.41331  0.14777  0.30438  1.0000
  C   C33       1.0  0.40804  0.22459  0.35701  1.0000
  C   C34       1.0  0.30744  0.98809  0.43036  1.0000
  H   H24       1.0  0.30440  0.99165  0.63009  1.0000
  H   H25       1.0  0.46899  0.10521  0.31315  1.0000
  H   H26       1.0  0.46726  0.98147  0.32775  1.0000
  H   H27       1.0  0.27866  0.99515  0.44509  1.0000
  H   H28       1.0  0.41832  0.21922  0.38323  1.0000
  H   H29       1.0  0.33117  0.00164  0.38734  1.0000
  C   C35       1.0  0.45634  0.20236  0.58251  1.0000
  H   H30       1.0  0.31092  0.18848  0.45815  1.0000
  C   C36       1.0  0.38135  0.04684  0.52028  1.0000
  C   C37       1.0  0.36302  0.04316  0.52824  1.0000
  C   C38       1.0  0.35210  0.03769  0.51754  1.0000
  C   C39       1.0  0.35957  0.03542  0.49898  1.0000
  C   C40       1.0  0.37767  0.03970  0.49065  1.0000
  C   C41       1.0  0.38864  0.04534  0.50137  1.0000
  H   H31       1.0  0.35724  0.04426  0.54270  1.0000
  H   H32       1.0  0.33802  0.03464  0.52386  1.0000
  H   H33       1.0  0.38339  0.03795  0.47627  1.0000
  H   H34       1.0  0.40288  0.04810  0.49518  1.0000
  C   C42       1.0  0.33109  0.98710  0.61086  1.0000
  C   C43       1.0  0.44170  0.21950  0.35953  1.0000
  H   H35       1.0  0.43720  0.98844  0.39958  1.0000
  C   C44       1.0  0.42947  0.16525  0.47030  1.0000
  C   C45       1.0  0.33197  0.99811  0.35883  1.0000
  C   C46       1.0  0.31782  0.15805  0.46065  1.0000
  C   C47       1.0  0.43014  0.13012  0.59600  1.0000
  Fe  Fe11      1.0  0.48988  0.03603  0.30950  1.0000
  C   C48       1.0  0.37161  0.11579  0.59060  1.0000
  H   H36       1.0  0.38639  0.12763  0.52321  1.0000
  H   H37       1.0  0.39493  0.13076  0.57890  1.0000
  C   C49       1.0  0.40188  0.98358  0.44973  1.0000
  H   H38       1.0  0.30878  0.22904  0.38628  1.0000
  C   C50       1.0  0.40604  0.16472  0.49924  1.0000
  C   C51       1.0  0.42574  0.12962  0.54056  1.0000
  H   H39       1.0  0.39847  0.01139  0.45660  1.0000
  C   C52       1.0  0.48869  0.17392  0.38014  1.0000
  C   C53       1.0  0.32433  0.17552  0.48228  1.0000
  C   C54       1.0  0.31467  0.03652  0.35344  1.0000
  H   H40       1.0  0.39021  0.02218  0.34082  1.0000
  C   C55       1.0  0.42739  0.20544  0.52523  1.0000
  C   C56       1.0  0.40911  0.13623  0.53251  1.0000
  C   C57       1.0  0.40422  0.10365  0.53678  1.0000
  H   H41       1.0  0.44218  0.18966  0.60917  1.0000
  C   C58       1.0  0.41884  0.19287  0.51928  1.0000
  H   H42       1.0  0.37589  0.19794  0.51923  1.0000
  C   C59       1.0  0.38199  0.98083  0.39223  1.0000
  Fe  Fe12      1.0  0.37466  0.22162  0.43897  1.0000
  C   C60       1.0  0.40834  0.01927  0.31411  1.0000
  C   C61       1.0  0.31927  0.02751  0.37094  1.0000
  C   C62       1.0  0.44979  0.13745  0.61548  1.0000
  C   C63       1.0  0.40533  0.18421  0.63538  1.0000
  H   H43       1.0  0.47561  0.99610  0.62828  1.0000
  C   C64       1.0  0.48444  0.06665  0.36465  1.0000
  H   H44       1.0  0.44369  0.10526  0.55384  1.0000
  C   C65       1.0  0.39363  0.16668  0.33688  1.0000
  C   C66       1.0  0.39358  0.09953  0.34490  1.0000
  H   H45       1.0  0.44716  0.15808  0.37686  1.0000
  H   H46       1.0  0.41084  0.98857  0.62187  1.0000
  C   C67       1.0  0.37100  0.14842  0.59311  1.0000
  C   C68       1.0  0.48957  0.15469  0.38783  1.0000
  C   C69       1.0  0.48602  0.12389  0.34340  1.0000
  C   C70       1.0  0.42413  0.13026  0.31103  1.0000
  C   C71       1.0  0.46934  0.16175  0.31155  1.0000
  H   H47       1.0  0.32393  0.18892  0.48648  1.0000
  C   C72       1.0  0.44703  0.22175  0.33986  1.0000
  C   C73       1.0  0.41338  0.22672  0.33737  1.0000
  C   C74       1.0  0.31798  0.00368  0.54516  1.0000
  C   C75       1.0  0.30552  0.01594  0.53387  1.0000
  C   C76       1.0  0.29769  0.03425  0.53744  1.0000
  C   C77       1.0  0.30236  0.04059  0.55217  1.0000
  C   C78       1.0  0.31479  0.02857  0.56339  1.0000
  C   C79       1.0  0.32256  0.01020  0.55994  1.0000
  H   H48       1.0  0.30597  0.98021  0.38717  1.0000
  H   H49       1.0  0.39192  0.00012  0.49108  1.0000
  H   H50       1.0  0.41321  0.16109  0.55998  1.0000
  H   H51       1.0  0.35350  0.16496  0.38124  1.0000
  S   S20       1.0  0.34963  0.20229  0.40750  1.0000
  H   H52       1.0  0.43098  0.12870  0.32304  1.0000
  S   S21       1.0  0.46450  0.02479  0.30637  1.0000
  H   H53       1.0  0.48332  0.11198  0.61740  1.0000
  C   C80       1.0  0.43111  0.11026  0.54726  1.0000
  S   S22       1.0  0.39162  0.22915  0.45786  1.0000
  H   H54       1.0  0.35702  0.98146  0.50632  1.0000
  C   C81       1.0  0.42309  0.00764  0.30421  1.0000
  H   H55       1.0  0.45770  0.12113  0.34094  1.0000
  H   H56       1.0  0.30201  0.01168  0.52208  1.0000
  H   H57       1.0  0.28819  0.04358  0.52860  1.0000
  H   H58       1.0  0.29647  0.05483  0.55486  1.0000
  H   H59       1.0  0.31845  0.03349  0.57479  1.0000
  S   S23       1.0  0.38693  0.21768  0.57076  1.0000
  C   C82       1.0  0.43147  0.99017  0.31348  1.0000
  C   C83       1.0  0.39865  0.99643  0.46209  1.0000
  C   C84       1.0  0.48178  0.07856  0.37782  1.0000
  C   C85       1.0  0.32550  0.98067  0.47877  1.0000
  S   S24       1.0  0.35124  0.20475  0.45094  1.0000
  H   H60       1.0  0.40538  0.99175  0.35736  1.0000
  C   C86       1.0  0.42025  0.09731  0.54550  1.0000
  H   H61       1.0  0.39599  0.09349  0.53528  1.0000
  H   H62       1.0  0.37923  0.10299  0.58570  1.0000
  H   H63       1.0  0.35912  0.00158  0.53160  1.0000
  C   C87       1.0  0.38308  0.98390  0.54281  1.0000
  C   C88       1.0  0.37552  0.09664  0.35491  1.0000
  C   C89       1.0  0.37236  0.09293  0.37452  1.0000
  C   C90       1.0  0.38712  0.09241  0.38419  1.0000
  C   C91       1.0  0.40532  0.09543  0.37422  1.0000
  C   C92       1.0  0.40835  0.09923  0.35450  1.0000
  P   P1        1.0  0.42364  0.09717  0.38664  1.0000
  C   C93       1.0  0.42136  0.12218  0.38711  1.0000
  C   C94       1.0  0.41901  0.08355  0.40994  1.0000
  C   C95       1.0  0.41441  0.09211  0.42601  1.0000
  C   C96       1.0  0.41113  0.08102  0.44388  1.0000
  C   C97       1.0  0.41273  0.06140  0.44584  1.0000
  C   C98       1.0  0.41732  0.05282  0.42989  1.0000
  C   C99       1.0  0.42031  0.06386  0.41201  1.0000
  C   C100      1.0  0.43707  0.13166  0.38075  1.0000
  H   H64       1.0  0.33213  0.00110  0.56887  1.0000
  H   H65       1.0  0.41681  0.10552  0.60721  1.0000
  H   H66       1.0  0.41178  0.19643  0.62828  1.0000
  C   C101      1.0  0.40333  0.13257  0.39341  1.0000
  C   C102      1.0  0.44753  0.08602  0.37712  1.0000
  C   C103      1.0  0.45030  0.07356  0.36434  1.0000
  C   C104      1.0  0.46865  0.06387  0.35825  1.0000
  C   C105      1.0  0.37218  0.14919  0.36086  1.0000
  H   H67       1.0  0.38255  0.08931  0.62112  1.0000
  C   C106      1.0  0.46336  0.08785  0.38435  1.0000
  C   C107      1.0  0.39882  0.12297  0.53004  1.0000
  H   H68       1.0  0.35844  0.09034  0.38225  1.0000
  H   H69       1.0  0.38412  0.08982  0.39942  1.0000
  H   H70       1.0  0.42216  0.10176  0.34653  1.0000
  H   H71       1.0  0.41314  0.10727  0.42489  1.0000
  H   H72       1.0  0.40713  0.08768  0.45622  1.0000
  H   H73       1.0  0.41022  0.05287  0.45969  1.0000
  H   H74       1.0  0.41817  0.03765  0.43128  1.0000
  H   H75       1.0  0.42353  0.05699  0.39977  1.0000
  H   H76       1.0  0.45094  0.12438  0.37518  1.0000
  H   H77       1.0  0.33855  0.15905  0.50464  1.0000
  H   H78       1.0  0.39088  0.12573  0.39825  1.0000
  H   H79       1.0  0.43830  0.07073  0.35954  1.0000
  S   S25       1.0  0.47266  0.07452  0.63395  1.0000
  C   C108      1.0  0.42591  0.11445  0.60954  1.0000
  H   H80       1.0  0.43470  0.10120  0.30724  1.0000
  H   H81       1.0  0.46141  0.09620  0.39531  1.0000
  C   C109      1.0  0.43492  0.15096  0.38138  1.0000
  C   C110      1.0  0.38567  0.09173  0.63403  1.0000
  C   C111      1.0  0.34373  0.98020  0.50282  1.0000
  C   C112      1.0  0.48521  0.18335  0.56838  1.0000
  C   C113      1.0  0.42511  0.16122  0.48994  1.0000
  H   H82       1.0  0.39192  0.99482  0.53839  1.0000
  H   H83       1.0  0.30797  0.05133  0.35144  1.0000
  Fe  Fe13      1.0  0.39370  0.03745  0.60237  1.0000
  S   S26       1.0  0.38344  0.22707  0.36705  1.0000
  H   H84       1.0  0.47219  0.18623  0.62980  1.0000
  H   H85       1.0  0.41516  0.17620  0.38787  1.0000
  C   C114      1.0  0.43102  0.20187  0.54359  1.0000
  C   C115      1.0  0.46797  0.17094  0.59894  1.0000
  H   H86       1.0  0.41214  0.17071  0.61104  1.0000
  H   H87       1.0  0.43663  0.15581  0.49792  1.0000
  Fe  Fe14      1.0  0.36954  0.19741  0.59051  1.0000
  C   C116      1.0  0.41478  0.17261  0.45986  1.0000
  H   H88       1.0  0.41547  0.19635  0.50523  1.0000
  C   C117      1.0  0.48330  0.16874  0.58391  1.0000
  H   H89       1.0  0.41803  0.17585  0.44465  1.0000
  H   H90       1.0  0.44488  0.15361  0.58818  1.0000
  H   H91       1.0  0.43742  0.98985  0.36598  1.0000
  C   C118      1.0  0.29015  0.98379  0.44128  1.0000
  H   H92       1.0  0.42422  0.18119  0.34535  1.0000
  C   C119      1.0  0.36539  0.15668  0.54691  1.0000
  S   S27       1.0  0.39086  0.20180  0.41926  1.0000
  S   S28       1.0  0.34253  0.09606  0.60735  1.0000
  C   C120      1.0  0.34283  0.98091  0.48397  1.0000
  C   C121      1.0  0.39503  0.99006  0.48150  1.0000
  C   C122      1.0  0.38059  0.13158  0.58690  1.0000
  H   H93       1.0  0.32867  0.13429  0.61440  1.0000
  C   C123      1.0  0.33257  0.15856  0.49254  1.0000
  H   H94       1.0  0.44250  0.98114  0.30553  1.0000
  H   H95       1.0  0.36678  0.13613  0.36701  1.0000
  C   C124      1.0  0.41402  0.17649  0.53163  1.0000
  H   H96       1.0  0.42809  0.18336  0.57049  1.0000
  H   H97       1.0  0.38446  0.18101  0.46089  1.0000
  C   C125      1.0  0.32785  0.00840  0.37364  1.0000
  H   H98       1.0  0.48509  0.17100  0.32838  1.0000
  C   C126      1.0  0.47286  0.11819  0.33535  1.0000
  C   C127      1.0  0.36469  0.16542  0.36891  1.0000
  H   H99       1.0  0.39617  0.10168  0.32968  1.0000
  C   C128      1.0  0.40567  0.16963  0.62575  1.0000
  C   C129      1.0  0.39925  0.09301  0.49467  1.0000
  C   C130      1.0  0.40897  0.10743  0.48433  1.0000
  C   C131      1.0  0.39865  0.12532  0.47850  1.0000
  C   C132      1.0  0.37870  0.12905  0.48360  1.0000
  C   C133      1.0  0.36882  0.11463  0.49399  1.0000
  C   C134      1.0  0.37925  0.09650  0.49924  1.0000
  P   P2        1.0  0.34307  0.11923  0.50093  1.0000
  C   C135      1.0  0.33653  0.12056  0.52568  1.0000
  C   C136      1.0  0.33307  0.14114  0.48717  1.0000
  H   H100      1.0  0.31495  0.03335  0.32506  1.0000
  H   H101      1.0  0.38943  0.99201  0.39273  1.0000
  C   C137      1.0  0.32715  0.00722  0.34129  1.0000
  P   P3        1.0  0.46538  0.15219  0.61911  1.0000
  C   C138      1.0  0.32584  0.14103  0.47100  1.0000
  C   C139      1.0  0.31907  0.13156  0.53257  1.0000
  C   C140      1.0  0.31346  0.13173  0.55186  1.0000
  C   C141      1.0  0.32511  0.12077  0.56442  1.0000
  C   C142      1.0  0.34242  0.10976  0.55767  1.0000
  C   C143      1.0  0.34808  0.10957  0.53845  1.0000
  C   C144      1.0  0.33336  0.10005  0.49681  1.0000
  C   C145      1.0  0.34230  0.09054  0.48180  1.0000
  C   C146      1.0  0.33460  0.07596  0.47832  1.0000
  C   C147      1.0  0.31806  0.07061  0.48990  1.0000
  C   C148      1.0  0.30904  0.08002  0.50487  1.0000
  C   C149      1.0  0.31661  0.09474  0.50831  1.0000
  H   H102      1.0  0.40721  0.07911  0.49925  1.0000
  H   H103      1.0  0.42444  0.10468  0.48066  1.0000
  H   H104      1.0  0.40607  0.13629  0.46986  1.0000
  H   H105      1.0  0.37108  0.14310  0.47907  1.0000
  H   H106      1.0  0.37189  0.08511  0.50709  1.0000
  C   C150      1.0  0.43168  0.04012  0.62312  1.0000
  S   S29       1.0  0.34157  0.21372  0.58301  1.0000
  C   C151      1.0  0.40186  0.01332  0.33322  1.0000
  C   C152      1.0  0.41758  0.17314  0.55005  1.0000
  H   H107      1.0  0.32657  0.12791  0.46613  1.0000
  H   H108      1.0  0.30956  0.13968  0.52312  1.0000
  H   H109      1.0  0.29998  0.14016  0.55713  1.0000
  H   H110      1.0  0.32070  0.12068  0.57941  1.0000
  H   H111      1.0  0.35136  0.10106  0.56738  1.0000
  H   H112      1.0  0.36125  0.10045  0.53382  1.0000
  H   H113      1.0  0.35517  0.09438  0.47272  1.0000
  H   H114      1.0  0.34158  0.06864  0.46676  1.0000
  H   H115      1.0  0.31240  0.05903  0.48730  1.0000
  C   C153      1.0  0.42615  0.18569  0.55599  1.0000
  H   H116      1.0  0.30934  0.10188  0.51992  1.0000
  C   C154      1.0  0.45486  0.17605  0.33897  1.0000
  C   C155      1.0  0.47114  0.16950  0.32664  1.0000
  C   C156      1.0  0.42228  0.22078  0.36810  1.0000
  Fe  Fe15      1.0  0.33653  0.22258  0.42769  1.0000
  C   C157      1.0  0.43470  0.16761  0.32082  1.0000
  C   C158      1.0  0.43664  0.17529  0.33604  1.0000
  H   H117      1.0  0.45410  0.07759  0.60198  1.0000
  C   C159      1.0  0.37171  0.18222  0.36112  1.0000
  H   H118      1.0  0.45637  0.18249  0.35036  1.0000
  H   H119      1.0  0.48147  0.15047  0.40167  1.0000
  H   H120      1.0  0.43141  0.05891  0.59644  1.0000
  C   C160      1.0  0.43367  0.11016  0.62600  1.0000
  H   H121      1.0  0.36818  0.99705  0.36956  1.0000
  H   H122      1.0  0.36596  0.19482  0.36737  1.0000
  H   H123      1.0  0.39128  0.19610  0.33933  1.0000
  C   C161      1.0  0.38614  0.18287  0.34520  1.0000
  H   H124      1.0  0.31603  0.03526  0.38257  1.0000
  H   H125      1.0  0.31249  0.15788  0.44806  1.0000
  H   H126      1.0  0.42430  0.08230  0.55076  1.0000
  H   H127      1.0  0.29618  0.07593  0.51379  1.0000
  C   C162      1.0  0.42552  0.98440  0.33281  1.0000
  S   S30       1.0  0.36731  0.21094  0.61558  1.0000
  H   H128      1.0  0.47066  0.05380  0.34886  1.0000
  H   H129      1.0  0.44421  0.16289  0.46318  1.0000
  C   C163      1.0  0.44978  0.06594  0.61259  1.0000
  H   H130      1.0  0.38726  0.15986  0.39858  1.0000
  C   C164      1.0  0.48896  0.13864  0.62158  1.0000
  C   C165      1.0  0.39133  0.17179  0.48866  1.0000
  C   C166      1.0  0.38653  0.14984  0.34486  1.0000
  C   C167      1.0  0.47920  0.10913  0.31975  1.0000
  H   H131      1.0  0.44584  0.21538  0.58209  1.0000
  S   S31       1.0  0.36351  0.04287  0.61767  1.0000
  C   C168      1.0  0.40119  0.15195  0.39364  1.0000
  H   H132      1.0  0.39182  0.13730  0.33862  1.0000
  C   C169      1.0  0.44577  0.12141  0.62886  1.0000
  C   C170      1.0  0.31511  0.98136  0.62329  1.0000
  H   H133      1.0  0.32475  0.98169  0.46407  1.0000
  S   S32       1.0  0.41688  0.02555  0.61954  1.0000
  C   C171      1.0  0.35210  0.14959  0.60272  1.0000
  H   H134      1.0  0.34459  0.16263  0.60744  1.0000
  H   H135      1.0  0.35550  0.98221  0.47334  1.0000
  C   C172      1.0  0.34890  0.19462  0.53707  1.0000
  C   C173      1.0  0.36776  0.18804  0.52895  1.0000
  H   H136      1.0  0.34261  0.20943  0.53372  1.0000
  H   H137      1.0  0.43467  0.13926  0.54166  1.0000
  H   H138      1.0  0.32392  0.18756  0.55678  1.0000
  Fe  Fe16      1.0  0.35627  0.02881  0.59654  1.0000
  C   C174      1.0  0.45690  0.06143  0.62953  1.0000
  C   C175      1.0  0.31697  0.17528  0.46632  1.0000
  H   H139      1.0  0.48070  0.13129  0.35513  1.0000
  C   C176      1.0  0.33832  0.18229  0.55010  1.0000
  Fe  Fe17      1.0  0.36033  0.06977  0.59683  1.0000
  S   S33       1.0  0.38367  0.16716  0.58908  1.0000
  H   H140      1.0  0.43691  0.21200  0.54842  1.0000
  S   S34       1.0  0.33255  0.01143  0.60735  1.0000
  H   H141      1.0  0.32995  0.99961  0.32966  1.0000
  C   C177      1.0  0.45432  0.18773  0.59795  1.0000
  C   C178      1.0  0.41695  0.16115  0.38766  1.0000
  C   C179      1.0  0.34657  0.16334  0.55499  1.0000
  H   H142      1.0  0.34435  0.16018  0.41679  1.0000
  H   H143      1.0  0.33865  0.15393  0.56563  1.0000
  C   C180      1.0  0.37619  0.16896  0.53375  1.0000
  C   C181      1.0  0.36441  0.98781  0.53909  1.0000
  C   C182      1.0  0.39577  0.17567  0.46905  1.0000
  C   C183      1.0  0.35309  0.11652  0.60096  1.0000
  C   C184      1.0  0.34315  0.13357  0.60667  1.0000
  H   H144      1.0  0.36412  0.09675  0.34748  1.0000
  P   P4        1.0  0.41142  0.16795  0.31560  1.0000
  Fe  Fe18      1.0  0.37316  0.21969  0.39848  1.0000
  C   C185      1.0  0.41055  0.99607  0.34259  1.0000
  P   P5        1.0  0.40122  0.16128  0.52455  1.0000
  Fe  Fe19      1.0  0.36627  0.18607  0.42986  1.0000
  H   H145      1.0  0.37647  0.17445  0.49536  1.0000
  C   C186      1.0  0.43688  0.05547  0.60950  1.0000
  H   H146      1.0  0.37151  0.14215  0.55161  1.0000
  C   C187      1.0  0.47180  0.20020  0.56774  1.0000
  H   H147      1.0  0.43059  0.21827  0.51578  1.0000
  H   H148      1.0  0.09345  0.22636  0.57145  1.0000
  H   H149      1.0  0.39645  0.14346  0.62676  1.0000
  P   P6        1.0  0.32813  0.97984  0.54085  1.0000
  H   H150      1.0  0.47989  0.18466  0.38791  1.0000
  H   H151      1.0  0.37953  0.98217  0.33996  1.0000
  C   C188      1.0  0.45122  0.16097  0.30855  1.0000
  S   S35       1.0  0.47161  0.21941  0.32966  1.0000
  H   H152      1.0  0.12512  0.22634  0.57919  1.0000
  H   H153      1.0  0.45263  0.21679  0.36817  1.0000
  C   C189      1.0  0.39678  0.15414  0.63475  1.0000
  C   C190      1.0  0.43279  0.22518  0.32883  1.0000
  H   H154      1.0  0.40204  0.03296  0.30701  1.0000
  H   H155      1.0  0.43669  0.22676  0.31371  1.0000
  H   H156      1.0  0.37416  0.19013  0.30850  1.0000
  H   H157      1.0  0.47336  0.21157  0.55579  1.0000
  H   H158      1.0  0.37205  0.12095  0.63035  1.0000
  H   H159      1.0  0.30491  0.98032  0.57886  1.0000
  H   H160      1.0  0.43079  0.09775  0.63635  1.0000
  H   H161      1.0  0.44110  0.99557  0.63645  1.0000
  C   C191      1.0  0.39934  0.07979  0.66223  1.0000
  C   C192      1.0  0.40321  0.01741  0.67972  1.0000
  H   H162      1.0  0.39577  0.19471  0.66148  1.0000
  C   C193      1.0  0.38007  0.01746  0.66050  1.0000
  C   C194      1.0  0.38679  0.02627  0.67221  1.0000
  C   C195      1.0  0.32585  0.04330  0.66035  1.0000
  C   C196      1.0  0.44066  0.18166  0.67080  1.0000
  C   C197      1.0  0.34965  0.14353  0.65770  1.0000
  H   H163      1.0  0.40102  0.13109  0.68880  1.0000
  C   C198      1.0  0.31935  0.13709  0.65371  1.0000
  H   H164      1.0  0.31015  0.12704  0.65427  1.0000
  H   H165      1.0  0.48429  0.98014  0.68057  1.0000
  C   C199      1.0  0.38984  0.99990  0.65608  1.0000
  Fe  Fe20      1.0  0.47633  0.20262  0.71824  1.0000
  H   H166      1.0  0.43682  0.14343  0.65400  1.0000
  H   H167      1.0  0.34025  0.13166  0.69559  1.0000
  H   H168      1.0  0.42975  0.98709  0.73322  1.0000
  H   H169      1.0  0.40860  0.02424  0.68871  1.0000
  H   H170      1.0  0.36735  0.02428  0.65471  1.0000
  H   H171      1.0  0.42425  0.15912  0.68096  1.0000
  C   C200      1.0  0.40651  0.99106  0.66330  1.0000
  C   C201      1.0  0.35302  0.13062  0.70134  1.0000
  S   S36       1.0  0.48093  0.04370  0.68322  1.0000
  S   S37       1.0  0.47610  0.20659  0.68746  1.0000
  Fe  Fe21      1.0  0.45303  0.09111  0.69873  1.0000
  S   S38       1.0  0.48010  0.17261  0.73427  1.0000
  S   S39       1.0  0.43751  0.11994  0.70504  1.0000
  Fe  Fe22      1.0  0.45222  0.04859  0.70177  1.0000
  C   C202      1.0  0.43896  0.03566  0.63990  1.0000
  H   H172      1.0  0.38447  0.99338  0.64696  1.0000
  Fe  Fe23      1.0  0.47000  0.07092  0.66534  1.0000
  C   C203      1.0  0.33091  0.00442  0.67567  1.0000
  S   S40       1.0  0.46154  0.06519  0.71961  1.0000
  S   S41       1.0  0.44070  0.07494  0.68284  1.0000
  C   C204      1.0  0.33095  0.03703  0.67813  1.0000
  H   H173      1.0  0.45232  0.11724  0.64135  1.0000
  C   C205      1.0  0.33744  0.13065  0.65878  1.0000
  C   C206      1.0  0.31330  0.15641  0.64750  1.0000
  H   H174      1.0  0.40701  0.06817  0.67102  1.0000
  H   H175      1.0  0.37938  0.04002  0.67534  1.0000
  C   C207      1.0  0.41301  0.99985  0.67534  1.0000
  H   H176      1.0  0.39816  0.12671  0.72321  1.0000
  H   H177      1.0  0.43507  0.02387  0.65047  1.0000
  C   C208      1.0  0.44705  0.00179  0.70954  1.0000
  H   H178      1.0  0.32430  0.05824  0.65417  1.0000
  H   H179      1.0  0.33313  0.04717  0.68589  1.0000
  H   H180      1.0  0.33679  0.01329  0.69983  1.0000
  H   H181      1.0  0.39640  0.09938  0.68082  1.0000
  C   C209      1.0  0.39545  0.07684  0.64547  1.0000
  C   C210      1.0  0.35154  0.12810  0.72087  1.0000
  C   C211      1.0  0.46820  0.15771  0.72661  1.0000
  C   C212      1.0  0.45047  0.16480  0.72096  1.0000
  C   C213      1.0  0.44094  0.15283  0.71514  1.0000
  C   C214      1.0  0.44954  0.13399  0.71379  1.0000
  C   C215      1.0  0.46735  0.12687  0.71939  1.0000
  C   C216      1.0  0.47643  0.13860  0.72621  1.0000
  H   H182      1.0  0.44386  0.17941  0.72152  1.0000
  H   H183      1.0  0.42686  0.15828  0.71165  1.0000
  H   H184      1.0  0.47406  0.11232  0.71860  1.0000
  C   C217      1.0  0.39613  0.18333  0.65407  1.0000
  H   H185      1.0  0.35545  0.98538  0.64685  1.0000
  H   H186      1.0  0.46591  0.01188  0.68452  1.0000
  C   C218      1.0  0.43476  0.16503  0.66980  1.0000
  H   H187      1.0  0.36669  0.12470  0.74387  1.0000
  H   H188      1.0  0.34195  0.11562  0.66342  1.0000
  C   C219      1.0  0.46209  0.99963  0.69440  1.0000
  C   C220      1.0  0.44148  0.98554  0.72154  1.0000
  H   H189      1.0  0.37962  0.16786  0.67741  1.0000
  C   C221      1.0  0.45123  0.04645  0.64324  1.0000
  H   H190      1.0  0.45655  0.04287  0.65636  1.0000
  C   C222      1.0  0.37970  0.10960  0.63935  1.0000
  H   H191      1.0  0.47825  0.14202  0.66675  1.0000
  S   S42       1.0  0.48142  0.08918  0.67952  1.0000
  H   H192      1.0  0.42584  0.99333  0.68115  1.0000
  C   C223      1.0  0.48428  0.22406  0.76424  1.0000
  C   C224      1.0  0.33328  0.01770  0.68587  1.0000
  H   H193      1.0  0.33778  0.12719  0.72992  1.0000
  H   H194      1.0  0.32227  0.00116  0.65040  1.0000
  C   C225      1.0  0.32502  0.01097  0.65818  1.0000
  H   H195      1.0  0.43482  0.18876  0.68281  1.0000
  C   C226      1.0  0.39327  0.09760  0.66769  1.0000
  C   C227      1.0  0.38305  0.11261  0.65644  1.0000
  C   C228      1.0  0.44210  0.15600  0.65427  1.0000
  P   P7        1.0  0.37308  0.13511  0.66424  1.0000
  C   C229      1.0  0.37083  0.13178  0.68953  1.0000
  C   C230      1.0  0.38750  0.15313  0.65353  1.0000
  C   C231      1.0  0.38724  0.16788  0.66313  1.0000
  C   C232      1.0  0.32532  0.16933  0.64640  1.0000
  H   H196      1.0  0.36826  0.98957  0.69098  1.0000
  S   S43       1.0  0.43534  0.02461  0.71385  1.0000
  C   C233      1.0  0.32269  0.03028  0.65049  1.0000
  C   C234      1.0  0.38708  0.13038  0.69759  1.0000
  C   C235      1.0  0.38552  0.12788  0.71711  1.0000
  C   C236      1.0  0.36778  0.12672  0.72875  1.0000
  H   H197      1.0  0.29939  0.16138  0.64335  1.0000
  H   H198      1.0  0.30341  0.98935  0.71726  1.0000
  C   C237      1.0  0.47229  0.98155  0.69196  1.0000
  H   H199      1.0  0.35245  0.17328  0.65032  1.0000
  C   C238      1.0  0.34341  0.16295  0.65148  1.0000
  H   H200      1.0  0.45867  0.20209  0.65701  1.0000
  C   C239      1.0  0.45414  0.18916  0.65628  1.0000
  H   H201      1.0  0.39999  0.06299  0.64134  1.0000
  H   H202      1.0  0.49007  0.13304  0.73071  1.0000
  H   H203      1.0  0.48050  0.16759  0.68286  1.0000
  C   C240      1.0  0.45094  0.98364  0.64225  1.0000
  H   H204      1.0  0.31858  0.03513  0.63675  1.0000
  S   S44       1.0  0.45273  0.22726  0.72378  1.0000
  H   H205      1.0  0.32073  0.18432  0.64142  1.0000
  H   H206      1.0  0.38571  0.98210  0.71753  1.0000
  C   C241      1.0  0.45571  0.16342  0.63957  1.0000
  C   C242      1.0  0.29746  0.98220  0.70901  1.0000
  C   C243      1.0  0.46177  0.18005  0.64084  1.0000
  H   H207      1.0  0.26970  0.98473  0.72687  1.0000
  Fe  Fe24      1.0  0.48934  0.06234  0.69931  1.0000
  C   C244      1.0  0.47056  0.98383  0.63737  1.0000
  H   H208      1.0  0.47829  0.22882  0.84747  1.0000
  C   C245      1.0  0.36278  0.98071  0.70378  1.0000
  P   P8        1.0  0.33320  0.97946  0.68571  1.0000
  C   C246      1.0  0.27835  0.97970  0.71443  1.0000
  H   H209      1.0  0.34182  0.30507  0.01195  1.0000
  C   C247      1.0  0.31703  0.33169  0.97832  1.0000
  H   H210      1.0  0.42860  0.34586  0.12200  1.0000
  H   H211      1.0  0.47471  0.27934  0.17757  1.0000
  H   H212      1.0  0.27800  0.45542  0.25305  1.0000
  C   C248      1.0  0.33727  0.47411  0.23065  1.0000
  C   C249      1.0  0.32360  0.46225  0.23489  1.0000
  S   S45       1.0  0.48886  0.37941  0.98301  1.0000
  C   C250      1.0  0.39085  0.47271  0.07899  1.0000
  C   C251      1.0  0.28382  0.44306  0.26235  1.0000
  C   C252      1.0  0.40748  0.47052  0.04160  1.0000
  C   C253      1.0  0.47787  0.31426  0.07661  1.0000
  H   H213      1.0  0.40261  0.33307  0.97047  1.0000
  C   C254      1.0  0.47375  0.31671  0.19840  1.0000
  C   C255      1.0  0.34119  0.44530  0.20990  1.0000
  C   C256      1.0  0.28905  0.44237  0.21705  1.0000
  C   C257      1.0  0.38643  0.44873  0.15796  1.0000
  S   S46       1.0  0.44037  0.41937  0.15801  1.0000
  C   C258      1.0  0.34807  0.34094  0.97462  1.0000
  S   S47       1.0  0.45483  0.35793  0.03102  1.0000
  H   H214      1.0  0.46961  0.42116  0.97148  1.0000
  C   C259      1.0  0.41563  0.42491  0.15727  1.0000
  C   C260      1.0  0.40612  0.44353  0.15845  1.0000
  H   H215      1.0  0.30363  0.39901  0.29662  1.0000
  C   C261      1.0  0.40528  0.41141  0.15569  1.0000
  H   H216      1.0  0.41406  0.45399  0.15974  1.0000
  C   C262      1.0  0.27833  0.46051  0.18851  1.0000
  C   C263      1.0  0.46187  0.30792  0.03756  1.0000
  S   S48       1.0  0.47511  0.36982  0.17115  1.0000
  H   H217      1.0  0.41353  0.46906  0.02720  1.0000
  H   H218      1.0  0.42276  0.33530  0.99240  1.0000
  H   H219      1.0  0.47853  0.26179  0.20974  1.0000
  C   C264      1.0  0.28332  0.42510  0.29390  1.0000
  H   H220      1.0  0.37735  0.40593  0.15497  1.0000
  C   C265      1.0  0.47728  0.27705  0.20664  1.0000
  H   H221      1.0  0.36703  0.45503  0.19458  1.0000
  C   C266      1.0  0.33864  0.31572  0.99989  1.0000
  H   H222      1.0  0.48175  0.45312  0.11098  1.0000
  C   C267      1.0  0.48410  0.37130  0.03950  1.0000
  C   C268      1.0  0.45335  0.47738  0.07929  1.0000
  C   C269      1.0  0.33797  0.37459  0.21258  1.0000
  Fe  Fe25      1.0  0.48611  0.37828  0.11679  1.0000
  C   C270      1.0  0.31024  0.39971  0.21477  1.0000
  Fe  Fe26      1.0  0.48421  0.24425  0.25792  1.0000
  H   H223      1.0  0.45157  0.40448  0.03385  1.0000
  H   H224      1.0  0.11390  0.43065  0.28605  1.0000
  S   S49       1.0  0.33147  0.46236  0.03443  1.0000
  C   C271      1.0  0.40933  0.34508  0.99174  1.0000
  H   H225      1.0  0.30749  0.45509  0.19264  1.0000
  C   C272      1.0  0.47748  0.28693  0.22088  1.0000
  C   C273      1.0  0.45474  0.45031  0.03344  1.0000
  H   H226      1.0  0.32357  0.45568  0.07494  1.0000
  C   C274      1.0  0.45309  0.30183  0.00981  1.0000
  C   C275      1.0  0.31944  0.38245  0.20921  1.0000
  H   H227      1.0  0.99780  0.44623  0.30056  1.0000
  S   S50       1.0  0.47027  0.31915  0.16119  1.0000
  S   S51       1.0  0.36828  0.45273  0.98926  1.0000
  H   H228      1.0  0.48358  0.26607  0.08837  1.0000
  H   H229      1.0  0.29598  0.40564  0.21181  1.0000
  C   C276      1.0  0.35215  0.32702  0.99019  1.0000
  C   C277      1.0  0.29811  0.41131  0.28702  1.0000
  C   C278      1.0  0.41929  0.46995  0.05461  1.0000
  H   H230      1.0  0.40830  0.44553  0.11942  1.0000
  H   H231      1.0  0.36224  0.38128  0.98831  1.0000
  C   C279      1.0  0.40370  0.35892  0.00321  1.0000
  H   H232      1.0  0.05802  0.42381  0.29537  1.0000
  C   C280      1.0  0.41074  0.47073  0.07345  1.0000
  C   C281      1.0  0.30574  0.41335  0.26779  1.0000
  H   H233      1.0  0.36576  0.32482  0.99485  1.0000
  C   C282      1.0  0.48247  0.28453  0.02006  1.0000
  S   S52       1.0  0.48728  0.33329  0.99075  1.0000
  Fe  Fe27      1.0  0.47453  0.34997  0.15198  1.0000
  C   C283      1.0  0.38081  0.35710  0.97750  1.0000
  C   C284      1.0  0.47984  0.44395  0.08572  1.0000
  C   C285      1.0  0.48328  0.29523  0.07416  1.0000
  H   H234      1.0  0.44347  0.30493  0.99974  1.0000
  C   C286      1.0  0.38665  0.37186  0.00190  1.0000
  C   C287      1.0  0.47102  0.44791  0.06990  1.0000
  H   H235      1.0  0.41251  0.39703  0.15480  1.0000
  C   C288      1.0  0.38541  0.41650  0.15572  1.0000
  Fe  Fe28      1.0  0.46051  0.39270  0.15067  1.0000
  C   C289      1.0  0.46855  0.31878  0.09416  1.0000
  H   H236      1.0  0.36388  0.47540  0.07009  1.0000
  C   C290      1.0  0.46492  0.30442  0.10949  1.0000
  S   S53       1.0  0.19282  0.46922  0.28842  1.0000
  C   C291      1.0  0.45848  0.36391  0.06520  1.0000
  Fe  Fe29      1.0  0.34545  0.47273  0.00464  1.0000
  H   H237      1.0  0.44350  0.43473  0.11424  1.0000
  C   C292      1.0  0.47574  0.30677  0.21660  1.0000
  C   C293      1.0  0.34728  0.38391  0.22165  1.0000
  H   H238      1.0  0.44515  0.35865  0.07042  1.0000
  C   C294      1.0  0.02828  0.43625  0.29587  1.0000
  C   C295      1.0  0.47351  0.41898  0.01640  1.0000
  H   H239      1.0  0.45821  0.30799  0.12321  1.0000
  H   H240      1.0  0.47571  0.31457  0.22748  1.0000
  H   H241      1.0  0.41275  0.35981  0.01285  1.0000
  S   S54       1.0  0.35097  0.44115  0.15746  1.0000
  C   C296      1.0  0.29306  0.45278  0.19886  1.0000
  H   H242      1.0  0.03100  0.44629  0.28297  1.0000
  H   H243      1.0  0.43663  0.32267  0.02635  1.0000
  C   C297      1.0  0.45684  0.41774  0.02977  1.0000
  C   C298      1.0  0.35305  0.47137  0.21629  1.0000
  C   C299      1.0  0.27025  0.43913  0.22435  1.0000
  S   S55       1.0  0.45739  0.37248  0.13282  1.0000
  H   H244      1.0  0.37928  0.46314  0.15885  1.0000
  H   H245      1.0  0.46768  0.27434  0.11920  1.0000
  C   C300      1.0  0.32107  0.31809  0.99400  1.0000
  H   H246      1.0  0.26686  0.43058  0.23806  1.0000
  H   H247      1.0  0.48991  0.43081  0.08832  1.0000
  H   H248      1.0  0.34271  0.43469  0.20120  1.0000
  C   C301      1.0  0.46730  0.36999  0.07748  1.0000
  C   C302      1.0  0.44735  0.43338  0.03819  1.0000
  H   H249      1.0  0.38242  0.38278  0.01060  1.0000
  H   H250      1.0  0.46510  0.35583  0.24480  1.0000
  H   H251      1.0  0.46798  0.38755  0.22547  1.0000
  C   C303      1.0  0.29860  0.42923  0.25525  1.0000
  H   H252      1.0  0.46072  0.36956  0.09209  1.0000
  H   H253      1.0  0.31228  0.37527  0.20206  1.0000
  Fe  Fe30      1.0  0.46968  0.35948  0.00078  1.0000
  C   C304      1.0  0.25955  0.45796  0.19619  1.0000
  C   C305      1.0  0.47946  0.28086  0.08966  1.0000
  H   H254      1.0  0.47462  0.43756  0.06062  1.0000
  C   C306      1.0  0.47330  0.30693  0.18420  1.0000
  C   C307      1.0  0.47880  0.35847  0.23651  1.0000
  H   H255      1.0  0.47233  0.33197  0.19547  1.0000
  H   H256      1.0  0.26468  0.45171  0.28678  1.0000
  H   H257      1.0  0.46446  0.33342  0.09606  1.0000
  C   C308      1.0  0.32948  0.47733  0.05088  1.0000
  H   H258      1.0  0.34519  0.36135  0.20805  1.0000
  H   H259      1.0  0.31713  0.40247  0.26282  1.0000
  H   H260      1.0  0.45146  0.44646  0.98936  1.0000
  Fe  Fe31      1.0  0.33862  0.47254  0.15377  1.0000
  C   C309      1.0  0.42804  0.45317  0.97416  1.0000
  H   H261      1.0  0.34559  0.40827  0.23413  1.0000
  C   C310      1.0  0.99522  0.39416  0.28208  1.0000
  C   C311      1.0  0.25552  0.44719  0.21408  1.0000
  H   H262      1.0  0.00684  0.38211  0.28262  1.0000
  H   H263      1.0  0.24094  0.44523  0.22005  1.0000
  C   C312      1.0  0.35502  0.45693  0.20598  1.0000
  H   H264      1.0  0.37851  0.47353  0.03695  1.0000
  C   C313      1.0  0.39793  0.34407  0.97905  1.0000
  H   H265      1.0  0.47927  0.25515  0.05552  1.0000
  H   H266      1.0  0.38433  0.47342  0.09352  1.0000
  C   C314      1.0  0.39633  0.43087  0.02811  1.0000
  C   C315      1.0  0.40860  0.41849  0.01701  1.0000
  C   C316      1.0  0.41732  0.40082  0.02551  1.0000
  C   C317      1.0  0.41389  0.39558  0.04512  1.0000
  C   C318      1.0  0.40116  0.40776  0.05636  1.0000
  C   C319      1.0  0.39269  0.42558  0.04769  1.0000
  P   P9        1.0  0.39716  0.40170  0.08178  1.0000
  C   C320      1.0  0.37215  0.40690  0.09223  1.0000
  C   C321      1.0  0.40455  0.37660  0.08964  1.0000
  C   C322      1.0  0.39975  0.36331  0.08106  1.0000
  C   C323      1.0  0.40582  0.34388  0.08681  1.0000
  C   C324      1.0  0.41635  0.33759  0.10144  1.0000
  C   C325      1.0  0.42063  0.35070  0.11048  1.0000
  C   C326      1.0  0.41465  0.37013  0.10473  1.0000
  C   C327      1.0  0.35768  0.41147  0.08121  1.0000
  C   C328      1.0  0.33850  0.41634  0.08949  1.0000
  C   C329      1.0  0.33361  0.41656  0.10880  1.0000
  C   C330      1.0  0.34783  0.41133  0.11996  1.0000
  C   C331      1.0  0.36697  0.40613  0.11178  1.0000
  C   C332      1.0  0.41158  0.41448  0.08998  1.0000
  C   C333      1.0  0.43159  0.40959  0.08594  1.0000
  C   C334      1.0  0.44307  0.41686  0.09463  1.0000
  C   C335      1.0  0.43468  0.42961  0.10693  1.0000
  C   C336      1.0  0.41483  0.43554  0.11002  1.0000
  C   C337      1.0  0.40330  0.42813  0.10150  1.0000
  H   H267      1.0  0.38980  0.44467  0.02147  1.0000
  H   H268      1.0  0.41160  0.42275  0.00185  1.0000
  H   H269      1.0  0.42727  0.39143  0.01691  1.0000
  H   H270      1.0  0.42154  0.38219  0.05134  1.0000
  H   H271      1.0  0.38321  0.43538  0.05609  1.0000
  H   H272      1.0  0.39150  0.36798  0.06978  1.0000
  H   H273      1.0  0.40240  0.33371  0.07988  1.0000
  H   H274      1.0  0.42109  0.32255  0.10586  1.0000
  H   H275      1.0  0.43465  0.43205  0.04877  1.0000
  H   H276      1.0  0.41795  0.37997  0.11214  1.0000
  H   H277      1.0  0.36103  0.41143  0.06624  1.0000
  H   H278      1.0  0.32746  0.42026  0.08083  1.0000
  H   H279      1.0  0.31881  0.42083  0.11512  1.0000
  H   H280      1.0  0.34410  0.41165  0.13494  1.0000
  H   H281      1.0  0.37780  0.40210  0.12067  1.0000
  H   H282      1.0  0.43823  0.39959  0.07660  1.0000
  H   H283      1.0  0.45846  0.41221  0.09221  1.0000
  H   H284      1.0  0.31061  0.30932  0.00152  1.0000
  H   H285      1.0  0.45867  0.31609  0.04876  1.0000
  H   H286      1.0  0.38798  0.43295  0.10427  1.0000
  C   C338      1.0  0.47859  0.29424  0.03534  1.0000
  H   H287      1.0  0.47297  0.28120  0.99532  1.0000
  C   C339      1.0  0.37594  0.43516  0.15688  1.0000
  C   C340      1.0  0.46678  0.36469  0.04618  1.0000
  C   C341      1.0  0.32540  0.47026  0.07023  1.0000
  C   C342      1.0  0.48084  0.43584  0.01146  1.0000
  H   H288      1.0  0.33305  0.38111  0.97837  1.0000
  C   C343      1.0  0.46976  0.28834  0.00736  1.0000
  C   C344      1.0  0.47038  0.28546  0.10723  1.0000
  C   C345      1.0  0.37525  0.37099  0.98910  1.0000
  C   C346      1.0  0.44919  0.31169  0.02483  1.0000
  C   C347      1.0  0.32556  0.44758  0.22469  1.0000
  H   H289      1.0  0.39011  0.23639  0.26570  1.0000
  S   S56       1.0  0.45031  0.36469  0.97974  1.0000
  C   C348      1.0  0.45751  0.46462  0.06659  1.0000
  S   S57       1.0  0.41534  0.47083  0.98690  1.0000
  H   H290      1.0  0.48090  0.32560  0.06495  1.0000
  H   H291      1.0  0.24813  0.46451  0.18832  1.0000
  C   C349      1.0  0.31955  0.40924  0.22376  1.0000
  P   P10       1.0  0.30814  0.43195  0.23027  1.0000
  C   C350      1.0  0.33810  0.40113  0.22729  1.0000
  C   C351      1.0  0.47155  0.45144  0.01999  1.0000
  H   H292      1.0  0.36173  0.37793  0.22408  1.0000
  H   H293      1.0  0.01374  0.41428  0.26825  1.0000
  H   H294      1.0  0.28136  0.46895  0.17468  1.0000
  S   S58       1.0  0.48833  0.39979  0.13335  1.0000
  C   C352      1.0  0.47524  0.45652  0.09847  1.0000
  H   H295      1.0  0.31150  0.46469  0.24602  1.0000
  C   C353      1.0  0.44575  0.44321  0.97829  1.0000
  C   C354      1.0  0.48421  0.37729  0.07066  1.0000
  P   P11       1.0  0.44492  0.46916  0.04684  1.0000
  C   C355      1.0  0.48041  0.37633  0.22567  1.0000
  H   H296      1.0  0.32056  0.47647  0.09841  1.0000
  H   H297      1.0  0.47780  0.46418  0.01642  1.0000
  C   C356      1.0  0.37927  0.47378  0.06582  1.0000
  C   C357      1.0  0.04349  0.42359  0.30288  1.0000
  S   S59       1.0  0.47939  0.27549  0.24433  1.0000
  C   C358      1.0  0.99912  0.41228  0.27398  1.0000
  H   H298      1.0  0.30347  0.33343  0.97366  1.0000
  C   C359      1.0  0.38757  0.47276  0.04713  1.0000
  H   H299      1.0  0.48085  0.40681  0.00999  1.0000
  C   C360      1.0  0.47509  0.28704  0.18842  1.0000
  C   C361      1.0  0.10883  0.43004  0.30102  1.0000
  H   H300      1.0  0.41923  0.46959  0.08407  1.0000
  C   C362      1.0  0.46203  0.47325  0.09525  1.0000
  Fe  Fe32      1.0  0.38503  0.47634  0.98258  1.0000
  C   C363      1.0  0.27620  0.44098  0.28155  1.0000
  H   H301      1.0  0.08301  0.45042  0.29746  1.0000
  H   H302      1.0  0.41117  0.47902  0.12414  1.0000
  Fe  Fe33      1.0  0.02591  0.34727  0.61249  1.0000
  S   S60       1.0  0.01983  0.37834  0.60121  1.0000
  C   C364      1.0  0.02130  0.41113  0.32999  1.0000
  H   H303      1.0  0.20567  0.32614  0.54074  1.0000
  S   S61       1.0  0.06559  0.37857  0.59883  1.0000
  Fe  Fe34      1.0  0.04709  0.37287  0.58075  1.0000
  S   S62       1.0  0.05275  0.38633  0.55040  1.0000
  S   S63       1.0  0.05161  0.34132  0.59014  1.0000
  S   S64       1.0  0.25194  0.34892  0.53913  1.0000
  H   H304      1.0  0.17900  0.40242  0.63271  1.0000
  H   H305      1.0  0.16407  0.34103  0.50293  1.0000
  C   C365      1.0  0.17960  0.44957  0.62806  1.0000
  C   C366      1.0  0.01992  0.42560  0.55953  1.0000
  Fe  Fe35      1.0  0.03202  0.35130  0.47008  1.0000
  S   S65       1.0  0.04920  0.33508  0.44770  1.0000
  S   S66       1.0  0.02933  0.33804  0.50060  1.0000
  Fe  Fe36      1.0  0.01816  0.38535  0.44188  1.0000
  S   S67       1.0  0.03357  0.37162  0.41715  1.0000
  S   S68       1.0  0.00282  0.41561  0.43830  1.0000
  Fe  Fe37      1.0  0.02304  0.34549  0.43407  1.0000
  C   C367      1.0  0.00299  0.41730  0.48807  1.0000
  Fe  Fe38      1.0  0.05813  0.36280  0.43318  1.0000
  S   S69       1.0  0.08694  0.37103  0.41976  1.0000
  S   S70       1.0  0.00535  0.35996  0.45743  1.0000
  S   S71       1.0  0.04306  0.37814  0.45687  1.0000
  C   C368      1.0  0.12912  0.34947  0.37573  1.0000
  C   C369      1.0  0.32778  0.30189  0.58509  1.0000
  H   H306      1.0  0.02630  0.42341  0.54532  1.0000
  H   H307      1.0  0.15002  0.42082  0.41051  1.0000
  C   C370      1.0  0.11993  0.41854  0.31390  1.0000
  C   C371      1.0  0.12272  0.34169  0.36299  1.0000
  S   S72       1.0  0.35650  0.25207  0.58811  1.0000
  C   C372      1.0  0.37577  0.32765  0.62557  1.0000
  C   C373      1.0  0.00208  0.40175  0.52048  1.0000
  H   H308      1.0  0.38303  0.31221  0.30851  1.0000
  C   C374      1.0  0.35726  0.30088  0.32111  1.0000
  C   C375      1.0  0.13076  0.36862  0.37183  1.0000
  Fe  Fe39      1.0  0.21655  0.36806  0.40984  1.0000
  S   S73       1.0  0.21996  0.33698  0.40904  1.0000
  S   S74       1.0  0.22682  0.38717  0.38271  1.0000
  Fe  Fe40      1.0  0.20602  0.36146  0.45294  1.0000
  S   S75       1.0  0.20906  0.33010  0.45519  1.0000
  S   S76       1.0  0.19612  0.37424  0.47934  1.0000
  Fe  Fe41      1.0  0.23562  0.33226  0.43329  1.0000
  S   S77       1.0  0.26621  0.31759  0.43508  1.0000
  Fe  Fe42      1.0  0.19293  0.33789  0.43090  1.0000
  S   S78       1.0  0.16833  0.32258  0.43235  1.0000
  S   S79       1.0  0.23363  0.36334  0.43293  1.0000
  S   S80       1.0  0.18841  0.36934  0.42991  1.0000
  C   C376      1.0  0.29394  0.25555  0.43285  1.0000
  C   C377      1.0  0.30495  0.26897  0.43309  1.0000
  C   C378      1.0  0.29619  0.28794  0.43362  1.0000
  C   C379      1.0  0.27643  0.29370  0.43370  1.0000
  C   C380      1.0  0.26548  0.28042  0.43293  1.0000
  C   C381      1.0  0.27420  0.26135  0.43269  1.0000
  H   H309      1.0  0.32015  0.26469  0.43315  1.0000
  H   H310      1.0  0.30476  0.29819  0.43405  1.0000
  H   H311      1.0  0.25027  0.28476  0.43291  1.0000
  H   H312      1.0  0.26563  0.25103  0.43244  1.0000
  H   H313      1.0  0.07403  0.34623  0.36040  1.0000
  C   C382      1.0  0.21220  0.40760  0.37263  1.0000
  C   C383      1.0  0.19280  0.41232  0.38015  1.0000
  C   C384      1.0  0.02323  0.43094  0.58980  1.0000
  H   H314      1.0  0.18646  0.40331  0.39242  1.0000
  C   C385      1.0  0.21180  0.31265  0.53628  1.0000
  H   H315      1.0  0.43628  0.37936  0.61185  1.0000
  C   C386      1.0  0.10479  0.39409  0.51375  1.0000
  C   C387      1.0  0.36016  0.23372  0.48602  1.0000
  C   C388      1.0  0.16393  0.29821  0.55607  1.0000
  C   C389      1.0  0.28129  0.28674  0.61276  1.0000
  C   C390      1.0  0.13580  0.32866  0.61233  1.0000
  C   C391      1.0  0.12180  0.41548  0.37081  1.0000
  H   H316      1.0  0.35166  0.23282  0.47597  1.0000
  C   C392      1.0  0.10896  0.35735  0.42483  1.0000
  C   C393      1.0  0.12492  0.36633  0.42131  1.0000
  C   C394      1.0  0.14310  0.35581  0.42357  1.0000
  C   C395      1.0  0.14555  0.33616  0.42941  1.0000
  C   C396      1.0  0.12953  0.32714  0.43308  1.0000
  C   C397      1.0  0.11123  0.33772  0.43094  1.0000
  H   H317      1.0  0.12332  0.38148  0.41656  1.0000
  H   H318      1.0  0.15525  0.36293  0.42046  1.0000
  H   H319      1.0  0.13131  0.31193  0.43756  1.0000
  H   H320      1.0  0.09903  0.33065  0.43354  1.0000
  C   C398      1.0  0.01765  0.42918  0.42123  1.0000
  C   C399      1.0  0.03634  0.42092  0.41434  1.0000
  C   C400      1.0  0.04782  0.43118  0.39982  1.0000
  H   H321      1.0  0.30400  0.34694  0.58791  1.0000
  C   C401      1.0  0.11523  0.40434  0.49811  1.0000
  H   H322      1.0  0.04414  0.36069  0.34806  1.0000
  H   H323      1.0  0.04197  0.40653  0.42007  1.0000
  H   H324      1.0  0.06219  0.42471  0.39444  1.0000
  H   H325      1.0  0.18327  0.41097  0.45437  1.0000
  C   C402      1.0  0.30981  0.33391  0.58243  1.0000
  H   H326      1.0  0.99260  0.47221  0.58510  1.0000
  H   H327      1.0  0.29585  0.45230  0.38651  1.0000
  C   C403      1.0  0.20102  0.43606  0.60225  1.0000
  C   C404      1.0  0.11379  0.41833  0.33330  1.0000
  C   C405      1.0  0.11941  0.37232  0.34248  1.0000
  H   H328      1.0  0.09514  0.39264  0.44784  1.0000
  H   H329      1.0  0.14487  0.47831  0.37957  1.0000
  H   H330      1.0  0.45789  0.26999  0.63309  1.0000
  H   H331      1.0  0.19860  0.38167  0.34634  1.0000
  C   C406      1.0  0.07006  0.41419  0.44782  1.0000
  C   C407      1.0  0.17398  0.28224  0.56636  1.0000
  H   H332      1.0  0.99200  0.42235  0.55688  1.0000
  Fe  Fe43      1.0  0.18398  0.47830  0.31676  1.0000
  C   C408      1.0  0.29622  0.27070  0.61215  1.0000
  C   C409      1.0  0.99044  0.44039  0.38011  1.0000
  C   C410      1.0  0.28453  0.34687  0.46271  1.0000
  C   C411      1.0  0.03837  0.29217  0.58844  1.0000
  H   H333      1.0  0.99032  0.38998  0.57813  1.0000
  H   H334      1.0  0.33585  0.28974  0.59274  1.0000
  C   C412      1.0  0.36187  0.24036  0.51659  1.0000
  C   C413      1.0  0.23593  0.35526  0.52297  1.0000
  C   C414      1.0  0.21815  0.36689  0.52698  1.0000
  C   C415      1.0  0.20606  0.37264  0.51351  1.0000
  C   C416      1.0  0.21140  0.36640  0.49614  1.0000
  C   C417      1.0  0.22893  0.35428  0.49233  1.0000
  C   C418      1.0  0.24119  0.34884  0.50567  1.0000
  H   H335      1.0  0.21391  0.37189  0.54027  1.0000
  H   H336      1.0  0.19265  0.38216  0.51647  1.0000
  H   H337      1.0  0.23320  0.34936  0.47899  1.0000
  H   H338      1.0  0.25476  0.33964  0.50254  1.0000
  C   C419      1.0  0.04614  0.37293  0.53668  1.0000
  C   C420      1.0  0.03391  0.35988  0.54490  1.0000
  C   C421      1.0  0.02858  0.34933  0.53370  1.0000
  C   C422      1.0  0.03558  0.35174  0.51434  1.0000
  C   C423      1.0  0.04793  0.36467  0.50622  1.0000
  C   C424      1.0  0.05302  0.37544  0.51733  1.0000
  H   H339      1.0  0.02831  0.35811  0.55982  1.0000
  H   H340      1.0  0.01892  0.33944  0.54003  1.0000
  H   H341      1.0  0.05388  0.36610  0.49146  1.0000
  H   H342      1.0  0.06241  0.38558  0.51098  1.0000
  H   H343      1.0  0.16474  0.37973  0.35835  1.0000
  H   H344      1.0  0.28017  0.37543  0.46793  1.0000
  C   C425      1.0  0.32003  0.31828  0.59300  1.0000
  H   H345      1.0  0.09776  0.38305  0.51216  1.0000
  C   C426      1.0  0.00111  0.42985  0.36653  1.0000
  H   H346      1.0  0.40631  0.23191  0.49008  1.0000
  C   C427      1.0  0.00274  0.41003  0.36992  1.0000
  C   C428      1.0  0.10494  0.32290  0.52766  1.0000
  C   C429      1.0  0.11308  0.33858  0.52768  1.0000
  C   C430      1.0  0.10994  0.34631  0.54402  1.0000
  C   C431      1.0  0.09894  0.33818  0.56041  1.0000
  C   C432      1.0  0.09100  0.32234  0.56049  1.0000
  H   H347      1.0  0.10774  0.31710  0.51487  1.0000
  H   H348      1.0  0.12185  0.34473  0.51504  1.0000
  H   H349      1.0  0.11643  0.35829  0.54416  1.0000
  H   H350      1.0  0.09667  0.34405  0.57316  1.0000
  C   C433      1.0  0.25592  0.28183  0.48113  1.0000
  C   C434      1.0  0.34795  0.32663  0.61258  1.0000
  C   C435      1.0  0.28597  0.28384  0.48951  1.0000
  C   C436      1.0  0.26722  0.29211  0.48676  1.0000
  P   P12       1.0  0.30040  0.29698  0.49722  1.0000
  C   C437      1.0  0.32554  0.28988  0.48850  1.0000
  C   C438      1.0  0.33929  0.29101  0.49885  1.0000
  C   C439      1.0  0.35879  0.28554  0.49211  1.0000
  C   C440      1.0  0.36469  0.27890  0.47504  1.0000
  C   C441      1.0  0.35108  0.27781  0.46465  1.0000
  C   C442      1.0  0.33160  0.28367  0.47112  1.0000
  C   C443      1.0  0.29532  0.29162  0.52257  1.0000
  C   C444      1.0  0.30430  0.27446  0.53199  1.0000
  C   C445      1.0  0.29975  0.26958  0.55155  1.0000
  H   H351      1.0  0.24179  0.28859  0.47823  1.0000
  S   S81       1.0  0.24632  0.39815  0.60886  1.0000
  H   H352      1.0  0.26134  0.30660  0.48868  1.0000
  H   H353      1.0  0.30100  0.33180  0.51115  1.0000
  H   H354      1.0  0.33498  0.29574  0.51230  1.0000
  H   H355      1.0  0.36930  0.28572  0.50051  1.0000
  H   H356      1.0  0.37975  0.27388  0.47021  1.0000
  H   H357      1.0  0.35564  0.27181  0.45190  1.0000
  H   H358      1.0  0.32129  0.28296  0.46273  1.0000
  H   H359      1.0  0.31474  0.26475  0.52419  1.0000
  H   H360      1.0  0.30700  0.25639  0.55872  1.0000
  H   H361      1.0  0.09011  0.34102  0.48353  1.0000
  H   H362      1.0  0.01059  0.42432  0.47509  1.0000
  C   C446      1.0  0.28854  0.32498  0.38524  1.0000
  C   C447      1.0  0.00348  0.37794  0.35260  1.0000
  C   C448      1.0  0.38186  0.23730  0.51192  1.0000
  H   H363      1.0  0.35615  0.31139  0.43519  1.0000
  C   C449      1.0  0.00377  0.43050  0.59637  1.0000
  H   H364      1.0  0.99639  0.45467  0.41946  1.0000
  H   H365      1.0  0.30791  0.27037  0.60035  1.0000
  P   P13       1.0  0.11634  0.39971  0.47476  1.0000
  S   S82       1.0  0.22020  0.33186  0.58681  1.0000
  C   C450      1.0  0.28486  0.36057  0.47318  1.0000
  C   C451      1.0  0.99424  0.40094  0.38743  1.0000
  H   H366      1.0  0.14932  0.36879  0.46908  1.0000
  C   C452      1.0  0.03138  0.42819  0.57146  1.0000
  C   C453      1.0  0.11749  0.35787  0.59855  1.0000
  C   C454      1.0  0.15098  0.41731  0.42532  1.0000
  H   H367      1.0  0.03655  0.28939  0.60367  1.0000
  H   H368      1.0  0.28975  0.31675  0.39905  1.0000
  C   C455      1.0  0.32762  0.32259  0.40192  1.0000
  H   H369      1.0  0.31677  0.33404  0.39702  1.0000
  H   H370      1.0  0.19565  0.47357  0.36843  1.0000
  H   H371      1.0  0.14099  0.27696  0.60666  1.0000
  C   C456      1.0  0.27237  0.33894  0.38302  1.0000
  C   C457      1.0  0.28145  0.25453  0.48199  1.0000
  H   H372      1.0  0.36841  0.28349  0.41914  1.0000
  H   H373      1.0  0.27732  0.42349  0.30877  1.0000
  H   H374      1.0  0.13260  0.38125  0.58840  1.0000
  S   S83       1.0  0.17470  0.46005  0.34484  1.0000
  H   H375      1.0  0.28334  0.35495  0.33610  1.0000
  H   H376      1.0  0.13598  0.37433  0.38177  1.0000
  C   C458      1.0  0.03948  0.47295  0.57984  1.0000
  H   H377      1.0  0.21162  0.43751  0.58950  1.0000
  H   H378      1.0  0.04661  0.42773  0.56657  1.0000
  H   H379      1.0  0.06781  0.40040  0.62603  1.0000
  C   C459      1.0  0.31463  0.31643  0.55691  1.0000
  C   C460      1.0  0.10303  0.34699  0.48080  1.0000
  C   C461      1.0  0.07452  0.30780  0.48939  1.0000
  C   C462      1.0  0.08294  0.29286  0.51987  1.0000
  C   C463      1.0  0.30120  0.33273  0.35205  1.0000
  C   C464      1.0  0.02452  0.29973  0.56018  1.0000
  S   S84       1.0  0.34992  0.24895  0.53735  1.0000
  C   C465      1.0  0.05663  0.29238  0.57753  1.0000
  C   C466      1.0  0.28487  0.34658  0.34982  1.0000
  C   C467      1.0  0.06303  0.41083  0.63515  1.0000
  H   H380      1.0  0.01200  0.30271  0.55352  1.0000
  C   C468      1.0  0.05967  0.43030  0.45483  1.0000
  H   H381      1.0  0.13075  0.42784  0.48889  1.0000
  H   H382      1.0  0.14104  0.43952  0.59776  1.0000
  C   C469      1.0  0.26304  0.26306  0.47871  1.0000
  C   C470      1.0  0.12169  0.42313  0.51881  1.0000
  S   S85       1.0  0.01147  0.32435  0.42348  1.0000
  S   S86       1.0  0.09770  0.32823  0.61278  1.0000
  H   H383      1.0  0.39026  0.23896  0.52175  1.0000
  H   H384      1.0  0.12228  0.41199  0.43380  1.0000
  C   C471      1.0  0.04046  0.44951  0.39162  1.0000
  H   H385      1.0  0.13860  0.43787  0.35992  1.0000
  H   H386      1.0  0.28160  0.29882  0.60147  1.0000
  C   C472      1.0  0.00494  0.30153  0.49409  1.0000
  C   C473      1.0  0.00054  0.42477  0.56622  1.0000
  C   C474      1.0  0.00083  0.30932  0.47615  1.0000
  C   C475      1.0  0.35685  0.29434  0.41451  1.0000
  C   C476      1.0  0.43732  0.36492  0.61948  1.0000
  H   H387      1.0  0.01900  0.30128  0.49709  1.0000
  C   C477      1.0  0.37172  0.31096  0.32070  1.0000
  C   C478      1.0  0.05775  0.46277  0.57427  1.0000
  S   S87       1.0  0.31398  0.23458  0.62778  1.0000
  C   C479      1.0  0.23129  0.30572  0.53618  1.0000
  C   C480      1.0  0.29681  0.25843  0.38703  1.0000
  H   H388      1.0  0.01422  0.35861  0.37626  1.0000
  Fe  Fe44      1.0  0.23729  0.33147  0.60915  1.0000
  S   S88       1.0  0.21949  0.37825  0.57761  1.0000
  H   H389      1.0  0.12196  0.32081  0.47630  1.0000
  C   C481      1.0  0.12833  0.43201  0.37143  1.0000
  C   C482      1.0  0.34880  0.29251  0.39954  1.0000
  H   H390      1.0  0.02604  0.41376  0.50345  1.0000
  H   H391      1.0  0.08303  0.31602  0.57350  1.0000
  C   C483      1.0  0.22864  0.27780  0.52505  1.0000
  C   C484      1.0  0.23971  0.28831  0.53062  1.0000
  C   C485      1.0  0.20054  0.30210  0.53085  1.0000
  C   C486      1.0  0.20910  0.28459  0.52524  1.0000
  P   P14       1.0  0.17493  0.30945  0.53327  1.0000
  C   C487      1.0  0.16731  0.30266  0.51425  1.0000
  C   C488      1.0  0.17861  0.30450  0.49621  1.0000
  C   C489      1.0  0.17301  0.29907  0.48144  1.0000
  C   C490      1.0  0.15599  0.29201  0.48447  1.0000
  C   C491      1.0  0.14458  0.29027  0.50234  1.0000
  C   C492      1.0  0.15022  0.29560  0.51718  1.0000
  C   C493      1.0  0.16816  0.33484  0.53203  1.0000
  C   C494      1.0  0.16726  0.34294  0.54792  1.0000
  C   C495      1.0  0.16114  0.36243  0.54737  1.0000
  C   C496      1.0  0.15569  0.37397  0.53110  1.0000
  C   C497      1.0  0.15668  0.36607  0.51523  1.0000
  C   C498      1.0  0.16303  0.34663  0.51559  1.0000
  H   H392      1.0  0.23521  0.26432  0.52071  1.0000
  H   H393      1.0  0.25479  0.28288  0.53064  1.0000
  H   H394      1.0  0.20063  0.27601  0.52134  1.0000
  H   H395      1.0  0.18835  0.27591  0.56071  1.0000
  H   H396      1.0  0.19171  0.31026  0.49354  1.0000
  H   H397      1.0  0.18172  0.30063  0.46750  1.0000
  H   H398      1.0  0.15162  0.28812  0.47283  1.0000
  H   H399      1.0  0.13134  0.28487  0.50465  1.0000
  H   H400      1.0  0.14125  0.29428  0.53085  1.0000
  H   H401      1.0  0.17136  0.33425  0.56074  1.0000
  H   H402      1.0  0.16093  0.36863  0.55951  1.0000
  H   H403      1.0  0.15132  0.38911  0.53061  1.0000
  H   H404      1.0  0.15316  0.37509  0.50239  1.0000
  H   H405      1.0  0.10439  0.36591  0.59439  1.0000
  Fe  Fe45      1.0  0.06894  0.34721  0.60946  1.0000
  H   H406      1.0  0.35399  0.28566  0.61779  1.0000
  S   S89       1.0  0.04363  0.35006  0.63297  1.0000
  C   C499      1.0  0.37165  0.31934  0.33606  1.0000
  S   S90       1.0  0.21681  0.35565  0.62107  1.0000
  C   C500      1.0  0.35004  0.31007  0.42346  1.0000
  C   C501      1.0  0.09415  0.41175  0.46697  1.0000
  H   H407      1.0  0.15586  0.40185  0.47782  1.0000
  C   C502      1.0  0.43304  0.23835  0.62650  1.0000
  H   H408      1.0  0.19704  0.46526  0.60504  1.0000
  C   C503      1.0  0.33541  0.32418  0.41718  1.0000
  C   C504      1.0  0.13364  0.36655  0.59508  1.0000
  C   C505      1.0  0.35659  0.33539  0.59496  1.0000
  C   C506      1.0  0.09352  0.31481  0.54401  1.0000
  C   C507      1.0  0.01169  0.41135  0.50400  1.0000
  H   H409      1.0  0.14590  0.40509  0.59750  1.0000
  S   S91       1.0  0.35886  0.24125  0.41715  1.0000
  C   C508      1.0  0.08378  0.42815  0.47381  1.0000
  C   C509      1.0  0.12336  0.41915  0.50075  1.0000
  C   C510      1.0  0.15098  0.35643  0.60023  1.0000
  H   H410      1.0  0.15847  0.47189  0.60228  1.0000
  P   P15       1.0  0.12883  0.40483  0.34997  1.0000
  H   H411      1.0  0.26132  0.34145  0.39511  1.0000
  C   C511      1.0  0.06410  0.38742  0.37756  1.0000
  C   C512      1.0  0.07369  0.36958  0.37398  1.0000
  C   C513      1.0  0.06655  0.36008  0.36317  1.0000
  C   C514      1.0  0.04953  0.36824  0.35636  1.0000
  C   C515      1.0  0.03932  0.38578  0.36074  1.0000
  C   C516      1.0  0.04706  0.39560  0.37087  1.0000
  Fe  Fe46      1.0  0.20173  0.35781  0.59685  1.0000
  H   H412      1.0  0.33092  0.28811  0.56125  1.0000
  H   H413      1.0  0.12597  0.45434  0.38704  1.0000
  H   H414      1.0  0.00827  0.29505  0.58828  1.0000
  H   H415      1.0  0.46689  0.35671  0.60717  1.0000
  H   H416      1.0  0.06953  0.39460  0.38615  1.0000
  H   H417      1.0  0.08650  0.36308  0.37985  1.0000
  H   H418      1.0  0.08887  0.43383  0.48384  1.0000
  H   H419      1.0  0.03976  0.40937  0.37407  1.0000
  H   H420      1.0  0.16545  0.32940  0.61273  1.0000
  C   C517      1.0  0.03389  0.47703  0.59818  1.0000
  H   H421      1.0  0.08478  0.44894  0.58263  1.0000
  C   C518      1.0  0.27248  0.35140  0.63252  1.0000
  C   C519      1.0  0.16824  0.39154  0.34757  1.0000
  H   H422      1.0  0.23975  0.31392  0.54059  1.0000
  C   C520      1.0  0.30689  0.33285  0.56458  1.0000
  H   H423      1.0  0.05212  0.40163  0.32516  1.0000
  C   C521      1.0  0.27713  0.46362  0.36622  1.0000
  C   C522      1.0  0.15917  0.42151  0.32760  1.0000
  C   C523      1.0  0.13625  0.36293  0.47266  1.0000
  C   C524      1.0  0.42629  0.29449  0.62369  1.0000
  C   C525      1.0  0.23731  0.40637  0.63048  1.0000
  H   H424      1.0  0.33173  0.29114  0.33706  1.0000
  C   C526      1.0  0.15215  0.33733  0.60865  1.0000
  C   C527      1.0  0.41313  0.28773  0.61659  1.0000
  H   H425      1.0  0.34178  0.23514  0.37336  1.0000
  Fe  Fe47      1.0  0.23593  0.37406  0.60115  1.0000
  C   C528      1.0  0.29278  0.26478  0.48765  1.0000
  C   C529      1.0  0.22027  0.41925  0.35652  1.0000
  H   H426      1.0  0.23528  0.41563  0.35065  1.0000
  C   C530      1.0  0.12457  0.25613  0.56840  1.0000
  C   C531      1.0  0.45458  0.35217  0.61686  1.0000
  S   S92       1.0  0.00114  0.33169  0.62482  1.0000
  P   P16       1.0  0.01693  0.39612  0.35273  1.0000
  H   H427      1.0  0.06479  0.40871  0.43777  1.0000
  H   H428      1.0  0.09078  0.42949  0.35442  1.0000
  H   H429      1.0  0.44429  0.24049  0.61446  1.0000
  H   H430      1.0  0.46943  0.32384  0.62423  1.0000
  C   C532      1.0  0.34283  0.29901  0.33694  1.0000
  C   C533      1.0  0.31165  0.24339  0.38328  1.0000
  H   H431      1.0  0.11991  0.28585  0.55725  1.0000
  H   H432      1.0  0.06769  0.32154  0.51350  1.0000
  H   H433      1.0  0.28246  0.25568  0.39292  1.0000
  C   C534      1.0  0.09608  0.42930  0.33959  1.0000
  H   H434      1.0  0.08763  0.37478  0.48383  1.0000
  H   H435      1.0  0.13661  0.31404  0.61926  1.0000
  C   C535      1.0  0.28592  0.28168  0.56182  1.0000
  C   C536      1.0  0.28129  0.30356  0.53295  1.0000
  H   H436      1.0  0.06886  0.28915  0.58460  1.0000
  H   H437      1.0  0.99385  0.28890  0.52229  1.0000
  C   C537      1.0  0.18156  0.42860  0.37158  1.0000
  S   S93       1.0  0.17016  0.36889  0.59661  1.0000
  C   C538      1.0  0.11419  0.27294  0.55993  1.0000
  H   H438      1.0  0.09018  0.41276  0.41199  1.0000
  C   C539      1.0  0.08897  0.25612  0.55957  1.0000
  H   H439      1.0  0.31244  0.31563  0.54308  1.0000
  C   C540      1.0  0.13522  0.41233  0.43863  1.0000
  C   C541      1.0  0.29637  0.33578  0.49766  1.0000
  H   H440      1.0  0.34940  0.33851  0.58294  1.0000
  C   C542      1.0  0.27049  0.34973  0.36532  1.0000
  C   C543      1.0  0.09641  0.27303  0.55532  1.0000
  S   S94       1.0  0.25730  0.34980  0.59062  1.0000
  H   H441      1.0  0.04384  0.30333  0.53409  1.0000
  C   C544      1.0  0.10286  0.39833  0.53172  1.0000
  H   H442      1.0  0.25449  0.25527  0.47382  1.0000
  C   C545      1.0  0.35764  0.32288  0.62790  1.0000
  C   C546      1.0  0.31929  0.28046  0.37704  1.0000
  C   C547      1.0  0.13810  0.42974  0.61077  1.0000
  C   C548      1.0  0.00186  0.45897  0.63124  1.0000
  C   C549      1.0  0.30058  0.27687  0.38404  1.0000
  H   H443      1.0  0.09895  0.26297  0.48787  1.0000
  H   H444      1.0  0.25788  0.36055  0.36370  1.0000
  C   C550      1.0  0.13182  0.43644  0.62775  1.0000
  H   H445      1.0  0.33014  0.33641  0.42409  1.0000
  C   C551      1.0  0.01070  0.44806  0.41393  1.0000
  C   C552      1.0  0.15400  0.40671  0.46334  1.0000
  C   C553      1.0  0.29508  0.32193  0.48766  1.0000
  C   C554      1.0  0.27675  0.29871  0.55254  1.0000
  H   H446      1.0  0.27349  0.31638  0.52592  1.0000
  H   H447      1.0  0.35441  0.28027  0.39277  1.0000
  H   H448      1.0  0.38287  0.32715  0.33572  1.0000
  H   H449      1.0  0.15145  0.33491  0.46953  1.0000
  H   H450      1.0  0.07514  0.25595  0.55628  1.0000
  P   P17       1.0  0.32446  0.30426  0.37316  1.0000
  C   C555      1.0  0.33025  0.24681  0.37621  1.0000
  C   C556      1.0  0.34295  0.30698  0.35262  1.0000
  C   C557      1.0  0.11834  0.33900  0.60745  1.0000
  H   H451      1.0  0.13764  0.31861  0.55670  1.0000
  C   C558      1.0  0.33410  0.26522  0.37311  1.0000
  H   H452      1.0  0.00839  0.43729  0.35368  1.0000
  C   C559      1.0  0.31074  0.35155  0.63356  1.0000
  C   C560      1.0  0.19270  0.40771  0.32701  1.0000
  C   C561      1.0  0.24474  0.42103  0.63444  1.0000
  C   C562      1.0  0.14548  0.30616  0.56419  1.0000
  H   H453      1.0  0.28224  0.27779  0.57694  1.0000
  H   H454      1.0  0.17368  0.26252  0.59256  1.0000
  C   C563      1.0  0.13647  0.40727  0.45782  1.0000
  H   H455      1.0  0.16656  0.43215  0.37742  1.0000
  H   H456      1.0  0.30695  0.25788  0.49028  1.0000
  C   C564      1.0  0.99310  0.34794  0.36720  1.0000
  C   C565      1.0  0.19287  0.45164  0.61119  1.0000
  H   H457      1.0  0.29853  0.34476  0.55672  1.0000
  C   C566      1.0  0.35107  0.23842  0.50363  1.0000
  C   C567      1.0  0.12096  0.33563  0.47686  1.0000
  P   P18       1.0  0.08299  0.29446  0.54397  1.0000
  H   H458      1.0  0.03207  0.43289  0.59916  1.0000
  C   C568      1.0  0.16969  0.41182  0.45001  1.0000
  C   C569      1.0  0.07447  0.30861  0.50811  1.0000
  H   H459      1.0  0.06755  0.31994  0.48061  1.0000
  C   C570      1.0  0.35726  0.31747  0.35193  1.0000
  C   C571      1.0  0.10736  0.43462  0.40139  1.0000
  Fe  Fe48      1.0  0.38320  0.23218  0.59554  1.0000
  H   H460      1.0  0.14851  0.43336  0.32295  1.0000
  H   H461      1.0  0.34872  0.26739  0.36777  1.0000
  C   C572      1.0  0.16570  0.27455  0.58452  1.0000
  H   H462      1.0  0.31217  0.33063  0.33988  1.0000
  C   C573      1.0  0.18277  0.41619  0.62675  1.0000
  H   H463      1.0  0.26601  0.30814  0.56050  1.0000
  Fe  Fe49      1.0  0.03879  0.38092  0.62047  1.0000
  H   H464      1.0  0.28885  0.28807  0.38757  1.0000
  H   H465      1.0  0.29109  0.36563  0.49877  1.0000
  H   H466      1.0  0.18051  0.42071  0.42068  1.0000
  C   C574      1.0  0.16817  0.41720  0.43102  1.0000
  C   C575      1.0  0.20899  0.43548  0.34789  1.0000
  C   C576      1.0  0.29101  0.35503  0.49055  1.0000
  H   H467      1.0  0.27969  0.35103  0.44927  1.0000
  C   C577      1.0  0.10168  0.36626  0.48078  1.0000
  C   C578      1.0  0.13755  0.34357  0.47305  1.0000
  C   C579      1.0  0.09143  0.44118  0.30742  1.0000
  C   C580      1.0  0.33396  0.30650  0.39321  1.0000
  H   H468      1.0  0.35747  0.32404  0.36369  1.0000
  C   C581      1.0  0.30320  0.32185  0.36985  1.0000
  H   H469      1.0  0.13870  0.38268  0.62698  1.0000
  C   C582      1.0  0.28990  0.32765  0.46980  1.0000
  H   H470      1.0  0.21526  0.44431  0.33542  1.0000
  C   C583      1.0  0.32505  0.30094  0.56716  1.0000
  H   H471      1.0  0.00400  0.33549  0.58431  1.0000
  C   C584      1.0  0.04274  0.30017  0.54919  1.0000
  C   C585      1.0  0.08335  0.29139  0.48207  1.0000
  C   C586      1.0  0.09210  0.27571  0.49357  1.0000
  C   C587      1.0  0.09191  0.27640  0.51240  1.0000
  H   H472      1.0  0.08331  0.29086  0.46752  1.0000
  H   H473      1.0  0.09886  0.26409  0.52094  1.0000
  Fe  Fe50      1.0  0.23880  0.35223  0.56907  1.0000
  C   C588      1.0  0.11825  0.37449  0.47632  1.0000
  C   C589      1.0  0.02238  0.29553  0.57976  1.0000
  C   C590      1.0  0.14733  0.28266  0.59248  1.0000
  C   C591      1.0  0.13719  0.29837  0.58224  1.0000
  C   C592      1.0  0.37477  0.34008  0.59268  1.0000
  C   C593      1.0  0.18955  0.44009  0.35533  1.0000
  H   H474      1.0  0.28958  0.31723  0.46149  1.0000
  C   C594      1.0  0.02198  0.45812  0.39886  1.0000
  H   H475      1.0  0.12300  0.30476  0.58845  1.0000
  C   C595      1.0  0.05902  0.29638  0.55777  1.0000
  C   C596      1.0  0.15383  0.40584  0.34076  1.0000
  H   H476      1.0  0.07537  0.45689  0.61463  1.0000
  H   H477      1.0  0.99613  0.38566  0.39091  1.0000
  C   C597      1.0  0.41488  0.23672  0.62381  1.0000
  C   C598      1.0  0.12588  0.38024  0.35520  1.0000
  C   C599      1.0  0.39752  0.28105  0.62873  1.0000
  C   C600      1.0  0.11147  0.41271  0.53429  1.0000
  H   H478      1.0  0.04633  0.43731  0.45012  1.0000
  C   C601      1.0  0.30617  0.33736  0.62597  1.0000
  H   H479      1.0  0.20225  0.40629  0.60310  1.0000
  H   H480      1.0  0.39855  0.33960  0.60611  1.0000
  H   H481      1.0  0.41526  0.28715  0.60173  1.0000
  C   C602      1.0  0.08729  0.40504  0.45366  1.0000
  C   C603      1.0  0.09930  0.23935  0.56814  1.0000
  H   H482      1.0  0.28297  0.32648  0.61997  1.0000
  H   H483      1.0  0.09444  0.39060  0.54364  1.0000
  H   H484      1.0  0.40247  0.22965  0.32868  1.0000
  H   H485      1.0  0.13832  0.25616  0.57190  1.0000
  H   H486      1.0  0.01672  0.45238  0.62818  1.0000
  C   C604      1.0  0.29587  0.25506  0.62692  1.0000
  C   C605      1.0  0.18757  0.39250  0.34070  1.0000
  C   C606      1.0  0.14069  0.41034  0.61062  1.0000
  C   C607      1.0  0.26611  0.28704  0.62818  1.0000
  H   H487      1.0  0.11295  0.34705  0.33649  1.0000
  C   C608      1.0  0.28688  0.33729  0.62572  1.0000
  H   H488      1.0  0.10149  0.44216  0.41305  1.0000
  H   H489      1.0  0.99133  0.33169  0.51657  1.0000
  C   C609      1.0  0.11713  0.23934  0.57251  1.0000
  H   H490      1.0  0.01174  0.31488  0.46519  1.0000
  H   H491      1.0  0.13286  0.34068  0.38867  1.0000
  Fe  Fe51      1.0  0.35887  0.23518  0.56525  1.0000
  C   C610      1.0  0.06657  0.43734  0.46779  1.0000
  S   S95       1.0  0.41032  0.23961  0.60069  1.0000
  S   S96       1.0  0.03182  0.46722  0.32778  1.0000
  H   H492      1.0  0.38143  0.34667  0.57899  1.0000
  C   C611      1.0  0.00611  0.42394  0.32282  1.0000
  P   P19       1.0  0.32475  0.31994  0.61565  1.0000
  H   H493      1.0  0.11563  0.38087  0.32954  1.0000
  C   C612      1.0  0.19581  0.41840  0.60993  1.0000
  C   C613      1.0  0.11788  0.35310  0.34637  1.0000
  C   C614      1.0  0.10096  0.41812  0.40085  1.0000
  C   C615      1.0  0.00960  0.43630  0.30579  1.0000
  C   C616      1.0  0.10801  0.40867  0.38561  1.0000
  S   S97       1.0  0.05460  0.46111  0.37215  1.0000
  C   C617      1.0  0.32539  0.29708  0.63094  1.0000
  H   H494      1.0  0.00899  0.39672  0.53270  1.0000
  H   H495      1.0  0.05856  0.44991  0.47317  1.0000
  H   H496      1.0  0.12152  0.32681  0.36605  1.0000
  H   H497      1.0  0.43838  0.29954  0.61409  1.0000
  H   H498      1.0  0.11003  0.41585  0.54827  1.0000
  H   H499      1.0  0.04291  0.47391  0.62492  1.0000
  C   C618      1.0  0.39091  0.23328  0.49402  1.0000
  C   C619      1.0  0.04005  0.41103  0.31984  1.0000
  H   H500      1.0  0.28711  0.24012  0.47968  1.0000
  C   C620      1.0  0.00471  0.36123  0.36612  1.0000
  H   H501      1.0  0.12819  0.43443  0.52077  1.0000
  S   S98       1.0  0.24711  0.30651  0.63084  1.0000
  C   C621      1.0  0.38008  0.23173  0.48095  1.0000
  C   C622      1.0  0.42142  0.35903  0.63189  1.0000
  C   C623      1.0  0.99252  0.42632  0.58500  1.0000
  C   C624      1.0  0.38439  0.33615  0.60795  1.0000
  C   C625      1.0  0.07063  0.45684  0.58685  1.0000
  H   H502      1.0  0.12939  0.45148  0.62798  1.0000
  H   H503      1.0  0.33562  0.24092  0.50706  1.0000
  H   H504      1.0  0.07171  0.44952  0.33173  1.0000
  C   C626      1.0  0.34187  0.28306  0.62877  1.0000
  C   C627      1.0  0.12114  0.44148  0.38672  1.0000
  C   C628      1.0  0.13665  0.39767  0.62740  1.0000
  H   H505      1.0  0.13553  0.47789  0.34927  1.0000
  H   H506      1.0  0.10229  0.39630  0.38526  1.0000
  H   H507      1.0  0.01643  0.47250  0.39295  1.0000
  C   C629      1.0  0.06528  0.46115  0.60497  1.0000
  C   C630      1.0  0.08504  0.44071  0.32669  1.0000
  H   H508      1.0  0.02989  0.47757  0.56976  1.0000
  H   H509      1.0  0.25577  0.42720  0.62418  1.0000
  H   H510      1.0  0.09094  0.41834  0.63150  1.0000
  H   H511      1.0  0.38774  0.27521  0.62325  1.0000
  H   H512      1.0  0.18250  0.43442  0.31056  1.0000
  C   C631      1.0  0.04693  0.47099  0.61070  1.0000
  H   H513      1.0  0.99775  0.43290  0.61051  1.0000
  H   H514      1.0  0.99399  0.33521  0.37780  1.0000
  H   H515      1.0  0.20768  0.40864  0.32195  1.0000
  C   C632      1.0  0.45600  0.33352  0.62668  1.0000
  C   C633      1.0  0.28593  0.46447  0.38104  1.0000
  S   S99       1.0  0.30424  0.23141  0.43310  1.0000
  H   H516      1.0  0.25769  0.35153  0.63184  1.0000
  H   H517      1.0  0.13348  0.41018  0.30870  1.0000
  C   C634      1.0  0.99530  0.47754  0.62268  1.0000
  H   H518      1.0  0.28024  0.45081  0.36018  1.0000
  H   H519      1.0  0.35734  0.29435  0.30922  1.0000
  H   H520      1.0  0.06194  0.45953  0.56017  1.0000
  C   C635      1.0  0.17851  0.42223  0.32054  1.0000
  H   H521      1.0  0.32544  0.35208  0.63386  1.0000
  H   H522      1.0  0.40803  0.36890  0.63388  1.0000
  C   C636      1.0  0.17488  0.43162  0.63596  1.0000
  C   C637      1.0  0.48762  0.26374  0.63511  1.0000
  H   H523      1.0  0.99064  0.40322  0.62362  1.0000
  H   H524      1.0  0.25780  0.47850  0.34749  1.0000
  H   H525      1.0  0.99162  0.42490  0.33069  1.0000
  C   C638      1.0  0.99024  0.33175  0.59114  1.0000
  C   C639      1.0  0.99078  0.29455  0.50826  1.0000
  Fe  Fe52      1.0  0.34080  0.22955  0.60617  1.0000
  C   C640      1.0  0.26433  0.47930  0.35915  1.0000
  C   C641      1.0  0.99052  0.38092  0.34013  1.0000
  C   C642      1.0  0.43287  0.26974  0.82775  1.0000
  S   S100      1.0  0.08628  0.44765  0.65291  1.0000
  Fe  Fe53      1.0  0.07157  0.47322  0.66523  1.0000
  C   C643      1.0  0.18098  0.36674  0.68955  1.0000
  H   H526      1.0  0.37987  0.31114  0.91575  1.0000
  C   C644      1.0  0.42191  0.23562  0.66024  1.0000
  C   C645      1.0  0.09637  0.35581  0.64657  1.0000
  H   H527      1.0  0.19424  0.36518  0.66077  1.0000
  C   C646      1.0  0.99209  0.36022  0.67668  1.0000
  S   S101      1.0  0.48395  0.26747  0.72971  1.0000
  H   H528      1.0  0.11808  0.32066  0.67713  1.0000
  C   C647      1.0  0.42641  0.38284  0.94162  1.0000
  C   C648      1.0  0.43223  0.47178  0.85229  1.0000
  C   C649      1.0  0.46910  0.27438  0.63781  1.0000
  C   C650      1.0  0.34117  0.46295  0.92382  1.0000
  S   S102      1.0  0.47721  0.35714  0.83885  1.0000
  H   H529      1.0  0.38355  0.40943  0.95687  1.0000
  C   C651      1.0  0.43587  0.30264  0.67687  1.0000
  H   H530      1.0  0.27556  0.44237  0.77997  1.0000
  H   H531      1.0  0.33127  0.43362  0.73495  1.0000
  H   H532      1.0  0.99400  0.43414  0.65045  1.0000
  S   S103      1.0  0.05465  0.47357  0.69433  1.0000
  C   C652      1.0  0.28064  0.25556  0.64210  1.0000
  S   S104      1.0  0.34902  0.47809  0.84090  1.0000
  C   C653      1.0  0.40224  0.32739  0.91205  1.0000
  C   C654      1.0  0.43279  0.31742  0.70418  1.0000
  H   H533      1.0  0.37822  0.40905  0.88187  1.0000
  C   C655      1.0  0.40391  0.23353  0.65758  1.0000
  H   H534      1.0  0.41095  0.32099  0.90037  1.0000
  Fe  Fe54      1.0  0.23591  0.46490  0.72722  1.0000
  S   S105      1.0  0.30832  0.46871  0.83532  1.0000
  H   H535      1.0  0.37042  0.38022  0.92437  1.0000
  Fe  Fe55      1.0  0.45572  0.36973  0.81945  1.0000
  S   S106      1.0  0.43827  0.34662  0.82989  1.0000
  S   S107      1.0  0.44307  0.40118  0.81557  1.0000
  Fe  Fe56      1.0  0.46081  0.33301  0.84750  1.0000
  H   H536      1.0  0.46553  0.34346  0.89106  1.0000
  Fe  Fe57      1.0  0.45712  0.33202  0.80697  1.0000
  S   S108      1.0  0.44143  0.31714  0.79243  1.0000
  C   C656      1.0  0.35854  0.38690  0.93369  1.0000
  H   H537      1.0  0.27656  0.42600  0.71581  1.0000
  C   C657      1.0  0.40858  0.34120  0.91845  1.0000
  H   H538      1.0  0.29291  0.33123  0.77302  1.0000
  H   H539      1.0  0.38483  0.41945  0.92281  1.0000
  P   P20       1.0  0.41542  0.41087  0.89047  1.0000
  S   S109      1.0  0.02696  0.40293  0.63898  1.0000
  C   C658      1.0  0.45440  0.31732  0.89843  1.0000
  Fe  Fe58      1.0  0.22024  0.45311  0.69645  1.0000
  S   S110      1.0  0.21506  0.42732  0.68686  1.0000
  S   S111      1.0  0.25459  0.45184  0.74943  1.0000
  S   S112      1.0  0.20978  0.45291  0.72743  1.0000
  Fe  Fe59      1.0  0.33992  0.45952  0.82526  1.0000
  C   C659      1.0  0.33762  0.38755  0.96395  1.0000
  S   S113      1.0  0.35270  0.42833  0.82714  1.0000
  H   H540      1.0  0.43164  0.41113  0.75310  1.0000
  H   H541      1.0  0.47796  0.27872  0.82149  1.0000
  C   C660      1.0  0.42280  0.34041  0.64175  1.0000
  C   C661      1.0  0.34266  0.26534  0.64046  1.0000
  H   H542      1.0  0.37219  0.47122  0.75799  1.0000
  H   H543      1.0  0.48331  0.38039  0.89469  1.0000
  C   C662      1.0  0.39679  0.40959  0.92788  1.0000
  H   H544      1.0  0.38615  0.46087  0.84467  1.0000
  S   S114      1.0  0.48904  0.35755  0.94787  1.0000
  C   C663      1.0  0.43540  0.31870  0.68466  1.0000
  C   C664      1.0  0.26520  0.39468  0.68465  1.0000
  C   C665      1.0  0.43097  0.43512  0.94940  1.0000
  H   H545      1.0  0.06536  0.42868  0.71477  1.0000
  C   C666      1.0  0.45665  0.31848  0.93585  1.0000
  H   H546      1.0  0.01082  0.46044  0.69164  1.0000
  C   C667      1.0  0.45120  0.41920  0.89009  1.0000
  C   C668      1.0  0.41789  0.40858  0.81934  1.0000
  C   C669      1.0  0.40542  0.39551  0.82504  1.0000
  C   C670      1.0  0.38549  0.40178  0.82740  1.0000
  C   C671      1.0  0.37783  0.42118  0.82421  1.0000
  C   C672      1.0  0.39026  0.43433  0.81865  1.0000
  C   C673      1.0  0.41022  0.42802  0.81644  1.0000
  H   H547      1.0  0.41106  0.38054  0.82743  1.0000
  H   H548      1.0  0.37597  0.39152  0.83161  1.0000
  H   H549      1.0  0.38450  0.44933  0.81593  1.0000
  H   H550      1.0  0.41977  0.43821  0.81238  1.0000
  H   H551      1.0  0.32743  0.24753  0.66312  1.0000
  C   C674      1.0  0.45342  0.30308  0.77525  1.0000
  C   C675      1.0  0.44417  0.28984  0.77103  1.0000
  C   C676      1.0  0.45316  0.27885  0.75700  1.0000
  H   H552      1.0  0.40663  0.45632  0.95693  1.0000
  H   H553      1.0  0.43007  0.28799  0.77877  1.0000
  C   C677      1.0  0.23831  0.34791  0.67321  1.0000
  H   H554      1.0  0.27708  0.41415  0.66112  1.0000
  H   H555      1.0  0.42213  0.34549  0.91175  1.0000
  H   H556      1.0  0.31129  0.44002  0.76526  1.0000
  H   H557      1.0  0.40255  0.36023  0.93814  1.0000
  C   C678      1.0  0.37359  0.33009  0.93587  1.0000
  H   H558      1.0  0.44566  0.42208  0.90423  1.0000
  H   H559      1.0  0.33885  0.47452  0.72088  1.0000
  C   C679      1.0  0.44989  0.30365  0.93167  1.0000
  H   H560      1.0  0.40117  0.44479  0.90910  1.0000
  C   C680      1.0  0.07612  0.42086  0.63835  1.0000
  H   H561      1.0  0.42912  0.29908  0.73113  1.0000
  H   H562      1.0  0.44610  0.26845  0.75410  1.0000
  H   H563      1.0  0.28022  0.24362  0.65355  1.0000
  H   H564      1.0  0.28949  0.46171  0.79578  1.0000
  C   C681      1.0  0.26388  0.32529  0.68596  1.0000
  C   C682      1.0  0.23803  0.42774  0.65160  1.0000
  C   C683      1.0  0.22372  0.41990  0.66487  1.0000
  C   C684      1.0  0.21623  0.40533  0.66086  1.0000
  C   C685      1.0  0.99578  0.46484  0.69082  1.0000
  C   C686      1.0  0.27393  0.45756  0.77539  1.0000
  H   H565      1.0  0.24396  0.43889  0.65462  1.0000
  H   H566      1.0  0.20498  0.39938  0.67098  1.0000
  H   H567      1.0  0.43192  0.46257  0.78368  1.0000
  C   C687      1.0  0.46137  0.33227  0.90236  1.0000
  C   C688      1.0  0.41385  0.45342  0.70096  1.0000
  C   C689      1.0  0.27713  0.36556  0.63986  1.0000
  C   C690      1.0  0.14189  0.44953  0.70078  1.0000
  H   H568      1.0  0.43417  0.37373  0.88084  1.0000
  S   S115      1.0  0.46151  0.40769  0.94066  1.0000
  C   C691      1.0  0.41285  0.36250  0.87258  1.0000
  C   C692      1.0  0.42764  0.38915  0.92237  1.0000
  H   H569      1.0  0.13541  0.44549  0.71533  1.0000
  H   H570      1.0  0.05725  0.40825  0.69588  1.0000
  C   C693      1.0  0.40820  0.28777  0.65518  1.0000
  H   H571      1.0  0.44334  0.29153  0.91027  1.0000
  C   C694      1.0  0.07667  0.42063  0.70594  1.0000
  S   S116      1.0  0.35524  0.45084  0.94089  1.0000
  S   S117      1.0  0.24751  0.46286  0.69683  1.0000
  C   C695      1.0  0.13056  0.45481  0.68677  1.0000
  H   H572      1.0  0.44006  0.38329  0.91297  1.0000
  C   C696      1.0  0.31074  0.27543  0.65696  1.0000
  C   C697      1.0  0.16971  0.45611  0.67744  1.0000
  C   C698      1.0  0.26332  0.35700  0.73385  1.0000
  H   H573      1.0  0.43048  0.46520  0.82569  1.0000
  H   H574      1.0  0.01408  0.39233  0.68729  1.0000
  C   C699      1.0  0.05076  0.43821  0.65851  1.0000
  Fe  Fe60      1.0  0.47594  0.24510  0.71703  1.0000
  C   C700      1.0  0.46673  0.27105  0.82172  1.0000
  C   C701      1.0  0.04379  0.41451  0.64361  1.0000
  C   C702      1.0  0.28468  0.33836  0.76210  1.0000
  H   H575      1.0  0.04593  0.44884  0.66746  1.0000
  H   H576      1.0  0.27382  0.31197  0.68587  1.0000
  C   C703      1.0  0.44882  0.30305  0.91316  1.0000
  C   C704      1.0  0.25083  0.35422  0.69888  1.0000
  H   H577      1.0  0.11527  0.45490  0.69037  1.0000
  C   C705      1.0  0.38879  0.45713  0.85895  1.0000
  C   C706      1.0  0.25107  0.33069  0.67329  1.0000
  C   C707      1.0  0.41894  0.46441  0.77796  1.0000
  H   H578      1.0  0.38895  0.35479  0.86480  1.0000
  H   H579      1.0  0.40591  0.28752  0.67015  1.0000
  H   H580      1.0  0.47834  0.42704  0.88932  1.0000
  H   H581      1.0  0.43758  0.33208  0.67577  1.0000
  C   C708      1.0  0.44727  0.40972  0.86183  1.0000
  C   C709      1.0  0.39867  0.43919  0.86503  1.0000
  C   C710      1.0  0.43416  0.28528  0.68890  1.0000
  C   C711      1.0  0.43151  0.28405  0.70840  1.0000
  C   C712      1.0  0.42610  0.47559  0.83498  1.0000
  C   C713      1.0  0.40253  0.43420  0.88339  1.0000
  C   C714      1.0  0.33331  0.46638  0.89264  1.0000
  H   H582      1.0  0.25115  0.32162  0.66339  1.0000
  H   H583      1.0  0.02098  0.36589  0.66944  1.0000
  C   C715      1.0  0.16373  0.37072  0.70187  1.0000
  C   C716      1.0  0.32769  0.40528  0.95689  1.0000
  C   C717      1.0  0.11408  0.33475  0.66936  1.0000
  C   C718      1.0  0.22312  0.39844  0.64385  1.0000
  C   C719      1.0  0.43992  0.41281  0.88028  1.0000
  C   C720      1.0  0.43081  0.30011  0.71604  1.0000
  C   C721      1.0  0.43705  0.25199  0.82225  1.0000
  H   H584      1.0  0.43522  0.27258  0.68318  1.0000
  H   H585      1.0  0.43044  0.27050  0.71755  1.0000
  C   C722      1.0  0.41086  0.39051  0.95414  1.0000
  C   C723      1.0  0.46972  0.42216  0.88160  1.0000
  H   H586      1.0  0.38648  0.23250  0.63758  1.0000
  C   C724      1.0  0.27402  0.41036  0.67630  1.0000
  H   H587      1.0  0.44446  0.29303  0.83177  1.0000
  C   C725      1.0  0.33803  0.43493  0.74625  1.0000
  H   H588      1.0  0.42440  0.43585  0.77302  1.0000
  C   C726      1.0  0.23818  0.35963  0.68595  1.0000
  C   C727      1.0  0.38474  0.32185  0.92075  1.0000
  C   C728      1.0  0.12838  0.42374  0.64458  1.0000
  H   H589      1.0  0.25447  0.27151  0.65477  1.0000
  H   H590      1.0  0.47754  0.24988  0.77535  1.0000
  C   C729      1.0  0.11647  0.36819  0.66178  1.0000
  C   C730      1.0  0.39584  0.40363  0.94726  1.0000
  P   P21       1.0  0.12456  0.38821  0.66627  1.0000
  C   C731      1.0  0.13018  0.40434  0.64452  1.0000
  C   C732      1.0  0.10587  0.40052  0.68224  1.0000
  C   C733      1.0  0.11029  0.41235  0.69282  1.0000
  H   H591      1.0  0.17038  0.44600  0.70687  1.0000
  C   C734      1.0  0.16151  0.45000  0.69607  1.0000
  C   C735      1.0  0.07210  0.40905  0.69538  1.0000
  C   C736      1.0  0.08660  0.39900  0.68363  1.0000
  H   H592      1.0  0.09987  0.38483  0.64094  1.0000
  H   H593      1.0  0.45053  0.23905  0.64666  1.0000
  H   H594      1.0  0.20935  0.45723  0.64238  1.0000
  S   S118      1.0  0.47309  0.35625  0.79500  1.0000
  C   C737      1.0  0.47162  0.30540  0.76520  1.0000
  C   C738      1.0  0.14653  0.37963  0.67557  1.0000
  C   C739      1.0  0.34416  0.45674  0.90655  1.0000
  C   C740      1.0  0.48530  0.23547  0.77681  1.0000
  H   H595      1.0  0.18489  0.45646  0.67411  1.0000
  H   H596      1.0  0.36689  0.38470  0.87077  1.0000
  H   H597      1.0  0.47131  0.41018  0.83907  1.0000
  H   H598      1.0  0.44530  0.29256  0.94288  1.0000
  C   C741      1.0  0.06995  0.43461  0.64992  1.0000
  C   C742      1.0  0.40045  0.23389  0.63947  1.0000
  H   H599      1.0  0.12492  0.41426  0.69159  1.0000
  C   C743      1.0  0.13879  0.46061  0.66810  1.0000
  C   C744      1.0  0.32670  0.43857  0.76335  1.0000
  C   C745      1.0  0.38692  0.46566  0.88927  1.0000
  H   H600      1.0  0.08250  0.39055  0.67530  1.0000
  C   C746      1.0  0.15839  0.46172  0.66336  1.0000
  H   H601      1.0  0.35516  0.44470  0.90374  1.0000
  H   H602      1.0  0.43782  0.37220  0.94660  1.0000
  H   H603      1.0  0.30955  0.34324  0.74114  1.0000
  Fe  Fe61      1.0  0.47126  0.38183  0.96083  1.0000
  H   H604      1.0  0.47883  0.31563  0.76822  1.0000
  Fe  Fe62      1.0  0.35598  0.46724  0.96334  1.0000
  C   C747      1.0  0.39500  0.28116  0.64799  1.0000
  H   H605      1.0  0.40422  0.40469  0.73014  1.0000
  C   C748      1.0  0.47106  0.25344  0.81579  1.0000
  C   C749      1.0  0.47701  0.41893  0.86323  1.0000
  C   C750      1.0  0.40717  0.39337  0.88182  1.0000
  H   H606      1.0  0.42242  0.34942  0.87009  1.0000
  C   C751      1.0  0.39741  0.44784  0.89523  1.0000
  C   C752      1.0  0.48036  0.29478  0.75089  1.0000
  C   C753      1.0  0.32710  0.26152  0.65455  1.0000
  C   C754      1.0  0.28343  0.35444  0.73007  1.0000
  C   C755      1.0  0.41947  0.37636  0.87864  1.0000
  H   H607      1.0  0.09916  0.43133  0.71289  1.0000
  H   H608      1.0  0.42552  0.24470  0.82229  1.0000
  H   H609      1.0  0.27372  0.33239  0.70849  1.0000
  C   C756      1.0  0.33303  0.41372  0.93823  1.0000
  H   H610      1.0  0.29673  0.30334  0.64701  1.0000
  C   C757      1.0  0.30980  0.29311  0.64516  1.0000
  H   H611      1.0  0.16364  0.36897  0.71680  1.0000
  C   C758      1.0  0.03774  0.42798  0.65554  1.0000
  H   H612      1.0  0.02294  0.43069  0.66238  1.0000
  H   H613      1.0  0.43859  0.40533  0.85384  1.0000
  C   C759      1.0  0.09575  0.42218  0.70478  1.0000
  H   H614      1.0  0.41037  0.33597  0.65132  1.0000
  C   C760      1.0  0.39392  0.36545  0.86978  1.0000
  H   H615      1.0  0.26165  0.38654  0.67568  1.0000
  H   H616      1.0  0.44138  0.45842  0.85641  1.0000
  H   H617      1.0  0.40328  0.42916  0.85539  1.0000
  H   H618      1.0  0.35250  0.41116  0.91220  1.0000
  S   S119      1.0  0.47519  0.25189  0.68602  1.0000
  C   C761      1.0  0.38241  0.47017  0.87120  1.0000
  H   H619      1.0  0.09590  0.32592  0.65441  1.0000
  H   H620      1.0  0.32655  0.44299  0.79136  1.0000
  H   H621      1.0  0.26156  0.39810  0.73068  1.0000
  H   H622      1.0  0.16406  0.37582  0.64851  1.0000
  C   C762      1.0  0.16382  0.37488  0.66339  1.0000
  C   C763      1.0  0.39749  0.34947  0.93348  1.0000
  H   H623      1.0  0.36008  0.32561  0.94234  1.0000
  H   H624      1.0  0.33588  0.46154  0.87935  1.0000
  C   C764      1.0  0.46581  0.41264  0.85338  1.0000
  C   C765      1.0  0.38150  0.38224  0.87321  1.0000
  C   C766      1.0  0.34838  0.40451  0.92664  1.0000
  C   C767      1.0  0.12137  0.34998  0.67210  1.0000
  C   C768      1.0  0.26468  0.34093  0.76601  1.0000
  S   S120      1.0  0.47838  0.31661  0.82538  1.0000
  H   H625      1.0  0.42523  0.43197  0.93827  1.0000
  C   C769      1.0  0.00673  0.36969  0.67730  1.0000
  H   H626      1.0  0.19431  0.36200  0.69491  1.0000
  H   H627      1.0  0.36165  0.43966  0.78707  1.0000
  H   H628      1.0  0.16510  0.42944  0.64916  1.0000
  H   H629      1.0  0.13329  0.37945  0.70481  1.0000
  C   C770      1.0  0.10154  0.33768  0.65664  1.0000
  C   C771      1.0  0.44772  0.27915  0.82769  1.0000
  C   C772      1.0  0.38526  0.46903  0.76361  1.0000
  P   P22       1.0  0.44125  0.30348  0.65171  1.0000
  C   C773      1.0  0.37996  0.34394  0.94239  1.0000
  C   C774      1.0  0.45608  0.24375  0.81648  1.0000
  H   H630      1.0  0.22867  0.35222  0.66312  1.0000
  H   H631      1.0  0.36644  0.43003  0.73044  1.0000
  C   C775      1.0  0.44866  0.42510  0.95359  1.0000
  H   H632      1.0  0.29090  0.35971  0.71624  1.0000
  H   H633      1.0  0.29844  0.27220  0.66747  1.0000
  C   C776      1.0  0.14653  0.37692  0.69497  1.0000
  C   C777      1.0  0.46252  0.33285  0.92114  1.0000
  C   C778      1.0  0.28187  0.46847  0.78434  1.0000
  H   H634      1.0  0.41814  0.27635  0.83189  1.0000
  S   S121      1.0  0.45684  0.31831  0.95977  1.0000
  C   C779      1.0  0.42414  0.29426  0.64310  1.0000
  H   H635      1.0  0.13077  0.34748  0.68227  1.0000
  H   H636      1.0  0.47728  0.30640  0.66136  1.0000
  C   C780      1.0  0.18098  0.36863  0.67034  1.0000
  H   H637      1.0  0.42449  0.43847  0.67762  1.0000
  C   C781      1.0  0.47132  0.28133  0.74686  1.0000
  C   C782      1.0  0.26380  0.33698  0.69873  1.0000
  H   H638      1.0  0.12377  0.42928  0.65755  1.0000
  C   C783      1.0  0.38806  0.39613  0.87930  1.0000
  H   H639      1.0  0.41829  0.40736  0.69642  1.0000
  C   C784      1.0  0.26388  0.46617  0.76059  1.0000
  H   H640      1.0  0.43275  0.32970  0.71019  1.0000
  C   C785      1.0  0.27828  0.42154  0.68750  1.0000
  H   H641      1.0  0.28464  0.43398  0.68103  1.0000
  C   C786      1.0  0.44014  0.32758  0.63933  1.0000
  C   C787      1.0  0.29405  0.34512  0.74413  1.0000
  H   H642      1.0  0.44546  0.37924  0.76818  1.0000
  C   C788      1.0  0.10396  0.37095  0.64895  1.0000
  H   H643      1.0  0.37577  0.40287  0.78474  1.0000
  P   P23       1.0  0.24995  0.36944  0.71551  1.0000
  C   C789      1.0  0.22502  0.37625  0.72546  1.0000
  C   C790      1.0  0.21726  0.39511  0.72749  1.0000
  C   C791      1.0  0.19787  0.40016  0.73494  1.0000
  C   C792      1.0  0.18613  0.38641  0.74065  1.0000
  C   C793      1.0  0.19376  0.36758  0.73878  1.0000
  C   C794      1.0  0.21308  0.36253  0.73105  1.0000
  C   C795      1.0  0.25401  0.35024  0.75198  1.0000
  H   H644      1.0  0.22825  0.37295  0.68575  1.0000
  H   H645      1.0  0.22592  0.40612  0.72303  1.0000
  H   H646      1.0  0.19197  0.41485  0.73612  1.0000
  H   H647      1.0  0.17113  0.39042  0.74649  1.0000
  H   H648      1.0  0.18469  0.35689  0.74329  1.0000
  H   H649      1.0  0.21877  0.34791  0.72955  1.0000
  H   H650      1.0  0.25742  0.33583  0.78000  1.0000
  H   H651      1.0  0.23856  0.35226  0.75548  1.0000
  C   C796      1.0  0.39886  0.37972  0.78884  1.0000
  C   C797      1.0  0.41847  0.37296  0.78425  1.0000
  C   C798      1.0  0.43021  0.38441  0.77147  1.0000
  C   C799      1.0  0.42232  0.40252  0.76307  1.0000
  C   C800      1.0  0.40257  0.40939  0.76746  1.0000
  C   C801      1.0  0.39093  0.39792  0.78064  1.0000
  P   P24       1.0  0.39242  0.43240  0.75560  1.0000
  C   C802      1.0  0.39770  0.45143  0.76465  1.0000
  C   C803      1.0  0.40258  0.43441  0.73087  1.0000
  C   C804      1.0  0.40598  0.45199  0.72011  1.0000
  C   C805      1.0  0.42046  0.44888  0.95998  1.0000
  C   C806      1.0  0.41830  0.43735  0.69243  1.0000
  C   C807      1.0  0.41481  0.41983  0.70301  1.0000
  C   C808      1.0  0.40692  0.41836  0.72215  1.0000
  C   C809      1.0  0.27378  0.41702  0.70709  1.0000
  C   C810      1.0  0.35327  0.37828  0.95247  1.0000
  S   S122      1.0  0.42493  0.23700  0.68301  1.0000
  H   H652      1.0  0.40266  0.46461  0.72643  1.0000
  C   C811      1.0  0.41462  0.44925  0.77184  1.0000
  C   C812      1.0  0.36671  0.43463  0.75846  1.0000
  C   C813      1.0  0.35798  0.43292  0.74378  1.0000
  H   H653      1.0  0.41656  0.46700  0.69277  1.0000
  H   H654      1.0  0.46766  0.34445  0.92423  1.0000
  C   C814      1.0  0.33528  0.44026  0.77801  1.0000
  C   C815      1.0  0.35519  0.43833  0.77557  1.0000
  H   H655      1.0  0.38987  0.37096  0.79908  1.0000
  H   H656      1.0  0.42462  0.35891  0.79075  1.0000
  S   S123      1.0  0.45101  0.31587  0.87585  1.0000
  C   C816      1.0  0.41322  0.40312  0.91541  1.0000
  H   H657      1.0  0.32543  0.42755  0.93283  1.0000
  C   C817      1.0  0.26074  0.38998  0.70431  1.0000
  H   H658      1.0  0.12970  0.46440  0.65753  1.0000
  C   C818      1.0  0.26513  0.40126  0.71547  1.0000
  C   C819      1.0  0.46519  0.29003  0.64707  1.0000
  Fe  Fe63      1.0  0.45376  0.23219  0.69234  1.0000
  C   C820      1.0  0.43659  0.23764  0.64468  1.0000
  H   H659      1.0  0.29977  0.37668  0.64608  1.0000
  P   P25       1.0  0.16901  0.46988  0.63936  1.0000
  C   C821      1.0  0.48007  0.29477  0.65366  1.0000
  C   C822      1.0  0.26603  0.27143  0.64280  1.0000
  H   H660      1.0  0.38315  0.27547  0.65745  1.0000
  H   H661      1.0  0.39251  0.23192  0.66958  1.0000
  H   H662      1.0  0.38184  0.47576  0.89881  1.0000
  H   H663      1.0  0.99532  0.34888  0.66852  1.0000
  H   H664      1.0  0.26590  0.37667  0.64473  1.0000
  H   H665      1.0  0.32726  0.35330  0.95630  1.0000
  H   H666      1.0  0.35122  0.31613  0.64162  1.0000
  C   C823      1.0  0.00286  0.38458  0.68743  1.0000
  C   C824      1.0  0.20642  0.47254  0.64064  1.0000
  C   C825      1.0  0.29622  0.36557  0.64052  1.0000
  H   H667      1.0  0.23546  0.47426  0.64170  1.0000
  P   P26       1.0  0.36570  0.35512  0.96162  1.0000
  H   H668      1.0  0.31589  0.41260  0.96587  1.0000
  H   H669      1.0  0.21725  0.38724  0.64094  1.0000
  C   C826      1.0  0.32676  0.47842  0.92738  1.0000
  C   C827      1.0  0.33052  0.34301  0.96859  1.0000
  H   H670      1.0  0.45903  0.22994  0.81236  1.0000
  H   H671      1.0  0.38328  0.32445  0.63738  1.0000
  H   H672      1.0  0.99405  0.29542  0.71413  1.0000
  H   H673      1.0  0.41052  0.38629  0.96910  1.0000
  Fe  Fe64      1.0  0.46945  0.34018  0.96802  1.0000
  C   C828      1.0  0.45594  0.42892  0.96822  1.0000
  H   H674      1.0  0.35509  0.25434  0.63828  1.0000
  H   H675      1.0  0.47609  0.22986  0.75303  1.0000
  H   H676      1.0  0.08664  0.35809  0.63670  1.0000
  Fe  Fe65      1.0  0.38116  0.60750  0.99445  1.0000
  S   S124      1.0  0.34953  0.61612  0.00385  1.0000
  H   H677      1.0  0.23590  0.50647  0.20103  1.0000
  Fe  Fe66      1.0  0.38946  0.64637  0.99316  1.0000
  S   S125      1.0  0.35857  0.65875  0.00236  1.0000
  H   H678      1.0  0.08121  0.57716  0.26691  1.0000
  Fe  Fe67      1.0  0.35799  0.63161  0.02322  1.0000
  S   S126      1.0  0.34244  0.62813  0.05338  1.0000
  C   C829      1.0  0.48213  0.66047  0.98524  1.0000
  C   C830      1.0  0.12368  0.66964  0.29397  1.0000
  S   S127      1.0  0.38936  0.62053  0.01567  1.0000
  Fe  Fe68      1.0  0.35131  0.50589  0.97316  1.0000
  C   C831      1.0  0.29596  0.51162  0.01197  1.0000
  H   H679      1.0  0.07617  0.53076  0.29089  1.0000
  H   H680      1.0  0.44157  0.67861  0.14808  1.0000
  H   H681      1.0  0.07035  0.55338  0.20537  1.0000
  H   H682      1.0  0.43230  0.56805  0.05301  1.0000
  H   H683      1.0  0.46792  0.53082  0.02662  1.0000
  C   C832      1.0  0.35120  0.71534  0.22254  1.0000
  H   H684      1.0  0.42454  0.65297  0.14729  1.0000
  H   H685      1.0  0.46457  0.64263  0.97978  1.0000
  H   H686      1.0  0.03622  0.62119  0.28037  1.0000
  S   S128      1.0  0.05148  0.65719  0.28644  1.0000
  S   S129      1.0  0.33125  0.49064  0.17637  1.0000
  Fe  Fe69      1.0  0.35598  0.66338  0.14190  1.0000
  S   S130      1.0  0.37732  0.64151  0.15647  1.0000
  H   H687      1.0  0.06761  0.61839  0.21494  1.0000
  C   C833      1.0  0.43182  0.69674  0.12368  1.0000
  S   S131      1.0  0.35095  0.65155  0.19614  1.0000
  Fe  Fe70      1.0  0.35153  0.63210  0.17619  1.0000
  S   S132      1.0  0.34200  0.60416  0.18962  1.0000
  S   S133      1.0  0.33047  0.65235  0.16011  1.0000
  H   H688      1.0  0.48388  0.51861  0.07716  1.0000
  S   S134      1.0  0.18067  0.66724  0.27103  1.0000
  C   C834      1.0  0.99393  0.65589  0.27855  1.0000
  S   S135      1.0  0.22721  0.63907  0.28530  1.0000
  C   C835      1.0  0.18630  0.71593  0.25979  1.0000
  S   S136      1.0  0.36334  0.49523  0.99971  1.0000
  C   C836      1.0  0.41316  0.66747  0.12239  1.0000
  C   C837      1.0  0.14391  0.66559  0.29215  1.0000
  H   H689      1.0  0.11086  0.62108  0.26901  1.0000
  C   C838      1.0  0.25408  0.66113  0.17299  1.0000
  C   C839      1.0  0.46032  0.52112  0.02328  1.0000
  C   C840      1.0  0.08464  0.49078  0.27706  1.0000
  H   H690      1.0  0.08650  0.49213  0.24737  1.0000
  C   C841      1.0  0.47258  0.52928  0.07180  1.0000
  C   C842      1.0  0.20548  0.70725  0.25610  1.0000
  S   S137      1.0  0.33126  0.48501  0.97930  1.0000
  H   H691      1.0  0.46618  0.56986  0.03971  1.0000
  C   C843      1.0  0.41323  0.53188  0.12233  1.0000
  Fe  Fe71      1.0  0.21160  0.49159  0.28101  1.0000
  Fe  Fe72      1.0  0.34424  0.51238  0.15368  1.0000
  S   S138      1.0  0.31663  0.52581  0.14374  1.0000
  S   S139      1.0  0.36667  0.52910  0.15455  1.0000
  C   C844      1.0  0.03927  0.61573  0.23080  1.0000
  C   C845      1.0  0.39452  0.71364  0.23028  1.0000
  C   C846      1.0  0.31361  0.60567  0.23600  1.0000
  Fe  Fe73      1.0  0.32506  0.50499  0.12382  1.0000
  H   H692      1.0  0.34044  0.69304  0.98030  1.0000
  Fe  Fe74      1.0  0.30407  0.50257  0.16465  1.0000
  S   S140      1.0  0.27327  0.50976  0.17973  1.0000
  S   S141      1.0  0.35370  0.49328  0.13210  1.0000
  H   H693      1.0  0.36357  0.48066  0.21288  1.0000
  C   C847      1.0  0.26545  0.50253  0.20410  1.0000
  C   C848      1.0  0.27812  0.49758  0.21691  1.0000
  C   C849      1.0  0.15020  0.58491  0.27213  1.0000
  C   C850      1.0  0.24580  0.50269  0.21085  1.0000
  S   S142      1.0  0.05957  0.49145  0.28112  1.0000
  H   H694      1.0  0.16674  0.62172  0.24080  1.0000
  C   C851      1.0  0.38131  0.71836  0.08995  1.0000
  C   C852      1.0  0.41166  0.68402  0.10896  1.0000
  C   C853      1.0  0.27108  0.49316  0.23632  1.0000
  H   H695      1.0  0.08607  0.64527  0.25519  1.0000
  H   H696      1.0  0.14973  0.56996  0.27381  1.0000
  C   C854      1.0  0.31390  0.72450  0.27983  1.0000
  S   S143      1.0  0.09000  0.68774  0.28032  1.0000
  H   H697      1.0  0.27696  0.63043  0.97947  1.0000
  H   H698      1.0  0.45831  0.48281  0.10534  1.0000
  C   C855      1.0  0.41411  0.72038  0.24997  1.0000
  H   H699      1.0  0.25166  0.67971  0.24857  1.0000
  H   H700      1.0  0.10614  0.53287  0.26766  1.0000
  C   C856      1.0  0.42986  0.68838  0.99300  1.0000
  C   C857      1.0  0.11406  0.49145  0.25410  1.0000
  C   C858      1.0  0.32562  0.50105  0.07748  1.0000
  C   C859      1.0  0.32957  0.50812  0.05817  1.0000
  C   C860      1.0  0.33164  0.49630  0.04495  1.0000
  H   H701      1.0  0.25157  0.57026  0.22779  1.0000
  H   H702      1.0  0.29558  0.49879  0.00707  1.0000
  H   H703      1.0  0.33096  0.52284  0.05339  1.0000
  H   H704      1.0  0.33412  0.50213  0.03015  1.0000
  C   C861      1.0  0.34894  0.58378  0.17911  1.0000
  C   C862      1.0  0.33710  0.57002  0.18414  1.0000
  C   C863      1.0  0.34213  0.55342  0.17627  1.0000
  C   C864      1.0  0.35956  0.55007  0.16406  1.0000
  C   C865      1.0  0.37178  0.56351  0.15955  1.0000
  C   C866      1.0  0.36625  0.58059  0.16666  1.0000
  H   H705      1.0  0.32406  0.57217  0.19428  1.0000
  H   H706      1.0  0.33282  0.54297  0.18006  1.0000
  H   H707      1.0  0.38535  0.56088  0.15022  1.0000
  H   H708      1.0  0.37558  0.59102  0.16298  1.0000
  C   C867      1.0  0.43335  0.68011  0.13705  1.0000
  C   C868      1.0  0.23880  0.49798  0.23023  1.0000
  P   P27       1.0  0.26228  0.60873  0.21953  1.0000
  C   C869      1.0  0.46263  0.55815  0.05072  1.0000
  H   H709      1.0  0.43615  0.69778  0.06374  1.0000
  H   H710      1.0  0.45393  0.53924  0.99749  1.0000
  H   H711      1.0  0.32957  0.71214  0.18687  1.0000
  H   H712      1.0  0.28428  0.62407  0.27266  1.0000
  C   C870      1.0  0.41349  0.68195  0.99155  1.0000
  H   H713      1.0  0.40574  0.52583  0.02380  1.0000
  S   S144      1.0  0.39690  0.57851  0.98964  1.0000
  C   C871      1.0  0.39567  0.69397  0.99361  1.0000
  H   H714      1.0  0.40335  0.71553  0.27975  1.0000
  Fe  Fe75      1.0  0.35251  0.64240  0.98221  1.0000
  C   C872      1.0  0.11505  0.68101  0.27910  1.0000
  C   C873      1.0  0.12665  0.68796  0.26250  1.0000
  C   C874      1.0  0.14660  0.68357  0.26052  1.0000
  C   C875      1.0  0.15538  0.67265  0.27533  1.0000
  H   H715      1.0  0.12013  0.69672  0.25099  1.0000
  H   H716      1.0  0.15528  0.68880  0.24740  1.0000
  H   H717      1.0  0.35091  0.67770  0.28059  1.0000
  C   C876      1.0  0.38431  0.70912  0.26407  1.0000
  C   C877      1.0  0.02886  0.59837  0.27037  1.0000
  P   P28       1.0  0.41840  0.72073  0.09279  1.0000
  H   H718      1.0  0.00898  0.65095  0.27897  1.0000
  C   C878      1.0  0.22449  0.62397  0.23412  1.0000
  C   C879      1.0  0.04576  0.63711  0.20110  1.0000
  S   S145      1.0  0.35441  0.68559  0.15935  1.0000
  H   H719      1.0  0.15257  0.63808  0.26753  1.0000
  C   C880      1.0  0.34849  0.72042  0.97666  1.0000
  C   C881      1.0  0.34820  0.64031  0.06909  1.0000
  C   C882      1.0  0.34126  0.63576  0.08844  1.0000
  C   C883      1.0  0.34554  0.64526  0.10131  1.0000
  C   C884      1.0  0.35661  0.65957  0.09482  1.0000
  H   H720      1.0  0.33271  0.62473  0.09351  1.0000
  H   H721      1.0  0.34014  0.64167  0.11619  1.0000
  C   C885      1.0  0.15933  0.59451  0.25525  1.0000
  H   H722      1.0  0.19919  0.56049  0.21153  1.0000
  C   C886      1.0  0.44344  0.55708  0.05830  1.0000
  H   H723      1.0  0.26382  0.69069  0.21470  1.0000
  C   C887      1.0  0.26377  0.66148  0.18732  1.0000
  C   C888      1.0  0.34055  0.69076  0.28011  1.0000
  H   H724      1.0  0.38079  0.72208  0.99759  1.0000
  H   H725      1.0  0.17511  0.70884  0.25843  1.0000
  C   C889      1.0  0.05233  0.62317  0.21553  1.0000
  C   C890      1.0  0.15189  0.62323  0.26881  1.0000
  C   C891      1.0  0.35953  0.65438  0.06265  1.0000
  C   C892      1.0  0.40940  0.53296  0.04956  1.0000
  H   H726      1.0  0.44307  0.49032  0.07700  1.0000
  H   H727      1.0  0.37889  0.71416  0.10512  1.0000
  C   C893      1.0  0.36358  0.66408  0.07547  1.0000
  C   C894      1.0  0.14197  0.59442  0.28721  1.0000
  C   C895      1.0  0.22666  0.54259  0.24528  1.0000
  C   C896      1.0  0.42867  0.70691  0.99577  1.0000
  H   H728      1.0  0.41333  0.54656  0.12244  1.0000
  C   C897      1.0  0.45339  0.52829  0.07955  1.0000
  S   S146      1.0  0.99721  0.68560  0.29433  1.0000
  S   S147      1.0  0.32286  0.51659  0.09345  1.0000
  H   H729      1.0  0.28974  0.60153  0.18562  1.0000
  C   C898      1.0  0.38288  0.56756  0.98015  1.0000
  C   C899      1.0  0.09504  0.48967  0.29140  1.0000
  H   H730      1.0  0.37745  0.52832  0.09075  1.0000
  H   H731      1.0  0.25995  0.62289  0.25465  1.0000
  C   C900      1.0  0.00107  0.58587  0.28929  1.0000
  P   P29       1.0  0.35953  0.70125  0.24341  1.0000
  C   C901      1.0  0.32367  0.48203  0.08353  1.0000
  C   C902      1.0  0.38097  0.70849  0.24618  1.0000
  H   H732      1.0  0.19646  0.63691  0.24689  1.0000
  C   C903      1.0  0.47273  0.72830  0.06663  1.0000
  H   H733      1.0  0.38139  0.61836  0.09098  1.0000
  H   H734      1.0  0.41165  0.50129  0.09399  1.0000
  C   C904      1.0  0.38833  0.54831  0.97894  1.0000
  C   C905      1.0  0.28026  0.61033  0.23250  1.0000
  S   S148      1.0  0.14941  0.49078  0.26111  1.0000
  H   H735      1.0  0.37824  0.56696  0.07388  1.0000
  H   H736      1.0  0.99202  0.49771  0.24222  1.0000
  H   H737      1.0  0.13525  0.58673  0.30026  1.0000
  H   H738      1.0  0.41209  0.60342  0.10164  1.0000
  C   C906      1.0  0.39981  0.52618  0.03850  1.0000
  H   H739      1.0  0.99787  0.54826  0.27487  1.0000
  C   C907      1.0  0.29633  0.61756  0.99881  1.0000
  C   C908      1.0  0.28100  0.61819  0.98990  1.0000
  C   C909      1.0  0.27121  0.60289  0.99413  1.0000
  C   C910      1.0  0.27681  0.58690  0.00724  1.0000
  C   C911      1.0  0.29223  0.58615  0.01625  1.0000
  C   C912      1.0  0.30181  0.60170  0.01207  1.0000
  P   P30       1.0  0.29942  0.56551  0.03321  1.0000
  C   C913      1.0  0.32384  0.56519  0.03544  1.0000
  C   C914      1.0  0.28404  0.56615  0.05586  1.0000
  C   C915      1.0  0.29067  0.55551  0.07207  1.0000
  C   C916      1.0  0.27862  0.55464  0.08958  1.0000
  C   C917      1.0  0.25982  0.56454  0.09109  1.0000
  C   C918      1.0  0.25303  0.57517  0.07500  1.0000
  C   C919      1.0  0.26509  0.57600  0.05742  1.0000
  C   C920      1.0  0.33935  0.55606  0.02376  1.0000
  C   C921      1.0  0.35808  0.55734  0.02462  1.0000
  C   C922      1.0  0.36152  0.56791  0.03683  1.0000
  C   C923      1.0  0.34619  0.57686  0.04863  1.0000
  C   C924      1.0  0.32745  0.57541  0.04801  1.0000
  C   C925      1.0  0.29805  0.54437  0.02497  1.0000
  C   C926      1.0  0.30358  0.54323  0.00578  1.0000
  H   H740      1.0  0.29327  0.49750  0.21190  1.0000
  H   H741      1.0  0.34114  0.69258  0.21491  1.0000
  C   C927      1.0  0.29047  0.51261  0.03107  1.0000
  C   C928      1.0  0.29147  0.52890  0.03757  1.0000
  C   C929      1.0  0.06644  0.55503  0.22000  1.0000
  H   H742      1.0  0.43760  0.51644  0.98913  1.0000
  C   C930      1.0  0.44626  0.70637  0.06466  1.0000
  H   H743      1.0  0.26922  0.57507  0.01023  1.0000
  H   H744      1.0  0.31370  0.60159  0.01877  1.0000
  H   H745      1.0  0.30509  0.54751  0.07105  1.0000
  H   H746      1.0  0.28389  0.54595  0.10188  1.0000
  H   H747      1.0  0.25048  0.56377  0.10469  1.0000
  H   H748      1.0  0.23838  0.58269  0.07613  1.0000
  H   H749      1.0  0.25953  0.58414  0.04512  1.0000
  H   H750      1.0  0.33718  0.54821  0.01375  1.0000
  H   H751      1.0  0.36998  0.55034  0.01559  1.0000
  H   H752      1.0  0.37607  0.56935  0.03691  1.0000
  H   H753      1.0  0.34876  0.58535  0.05790  1.0000
  H   H754      1.0  0.31577  0.58271  0.05697  1.0000
  H   H755      1.0  0.30918  0.55476  0.99587  1.0000
  C   C931      1.0  0.05616  0.55917  0.25777  1.0000
  C   C932      1.0  0.36669  0.71866  0.08018  1.0000
  H   H756      1.0  0.28606  0.50046  0.04094  1.0000
  H   H757      1.0  0.28755  0.52903  0.05251  1.0000
  C   C933      1.0  0.11928  0.56692  0.23248  1.0000
  C   C934      1.0  0.12457  0.54761  0.23157  1.0000
  C   C935      1.0  0.14348  0.53858  0.23219  1.0000
  C   C936      1.0  0.15720  0.54884  0.23352  1.0000
  C   C937      1.0  0.15210  0.56833  0.23413  1.0000
  C   C938      1.0  0.13296  0.57723  0.23384  1.0000
  P   P31       1.0  0.16953  0.58197  0.23588  1.0000
  C   C939      1.0  0.19184  0.56661  0.23986  1.0000
  C   C940      1.0  0.21527  0.55129  0.25993  1.0000
  C   C941      1.0  0.19791  0.56329  0.25728  1.0000
  C   C942      1.0  0.17527  0.59845  0.21446  1.0000
  C   C943      1.0  0.16363  0.60330  0.20061  1.0000
  C   C944      1.0  0.16812  0.61657  0.18443  1.0000
  C   C945      1.0  0.18420  0.62509  0.18200  1.0000
  C   C946      1.0  0.19594  0.62018  0.19564  1.0000
  C   C947      1.0  0.19159  0.60680  0.21172  1.0000
  H   H758      1.0  0.10455  0.57385  0.23225  1.0000
  H   H759      1.0  0.11398  0.53951  0.23072  1.0000
  H   H760      1.0  0.14749  0.52350  0.23189  1.0000
  H   H761      1.0  0.17162  0.54132  0.23436  1.0000
  H   H762      1.0  0.12861  0.59216  0.23473  1.0000
  H   H763      1.0  0.21974  0.54846  0.27347  1.0000
  H   H764      1.0  0.18931  0.56977  0.26888  1.0000
  H   H765      1.0  0.15109  0.59697  0.20220  1.0000
  H   H766      1.0  0.15900  0.62040  0.17386  1.0000
  H   H767      1.0  0.18745  0.63559  0.16961  1.0000
  H   H768      1.0  0.20824  0.62695  0.19392  1.0000
  H   H769      1.0  0.20076  0.60317  0.22224  1.0000
  H   H770      1.0  0.48402  0.71346  0.14053  1.0000
  H   H771      1.0  0.25996  0.71304  0.28279  1.0000
  C   C948      1.0  0.25017  0.62880  0.18653  1.0000
  C   C949      1.0  0.06826  0.60563  0.25544  1.0000
  H   H772      1.0  0.99637  0.72514  0.30024  1.0000
  Fe  Fe76      1.0  0.24237  0.65865  0.29366  1.0000
  H   H773      1.0  0.40576  0.65624  0.12193  1.0000
  C   C950      1.0  0.20653  0.61028  0.26357  1.0000
  C   C951      1.0  0.24734  0.64475  0.17254  1.0000
  H   H774      1.0  0.27782  0.53304  0.28054  1.0000
  H   H775      1.0  0.44040  0.71564  0.18361  1.0000
  H   H776      1.0  0.24010  0.64443  0.16126  1.0000
  C   C952      1.0  0.06965  0.62490  0.25258  1.0000
  S   S149      1.0  0.21605  0.68083  0.29821  1.0000
  H   H777      1.0  0.20909  0.69339  0.25196  1.0000
  C   C953      1.0  0.28953  0.57326  0.18214  1.0000
  C   C954      1.0  0.34673  0.70423  0.97050  1.0000
  Fe  Fe77      1.0  0.20028  0.65977  0.29256  1.0000
  H   H778      1.0  0.05589  0.64297  0.18947  1.0000
  C   C955      1.0  0.39062  0.70796  0.17805  1.0000
  C   C956      1.0  0.27370  0.68272  0.22379  1.0000
  C   C957      1.0  0.42383  0.66558  0.13655  1.0000
  C   C958      1.0  0.01049  0.50862  0.25503  1.0000
  C   C959      1.0  0.01209  0.52298  0.26408  1.0000
  H   H779      1.0  0.29166  0.69641  0.27001  1.0000
  H   H780      1.0  0.43928  0.70787  0.12428  1.0000
  C   C960      1.0  0.08524  0.63035  0.25706  1.0000
  C   C961      1.0  0.21995  0.71611  0.25830  1.0000
  H   H781      1.0  0.22545  0.63575  0.22257  1.0000
  H   H782      1.0  0.48335  0.65266  0.99925  1.0000
  C   C962      1.0  0.40083  0.71505  0.26593  1.0000
  C   C963      1.0  0.28366  0.72935  0.23126  1.0000
  H   H783      1.0  0.26930  0.67407  0.18742  1.0000
  C   C964      1.0  0.06038  0.57315  0.22471  1.0000
  H   H784      1.0  0.23468  0.70901  0.25564  1.0000
  C   C965      1.0  0.01157  0.61141  0.29805  1.0000
  C   C966      1.0  0.06734  0.53902  0.23414  1.0000
  C   C967      1.0  0.38680  0.64985  0.22926  1.0000
  H   H785      1.0  0.43478  0.48596  0.00979  1.0000
  C   C968      1.0  0.30243  0.52696  0.99933  1.0000
  H   H786      1.0  0.30033  0.57386  0.16948  1.0000
  H   H787      1.0  0.02550  0.52286  0.26841  1.0000
  H   H788      1.0  0.44143  0.71171  0.99679  1.0000
  C   C969      1.0  0.44336  0.51304  0.00209  1.0000
  C   C970      1.0  0.46412  0.70485  0.05280  1.0000
  C   C971      1.0  0.26013  0.61906  0.07240  1.0000
  C   C972      1.0  0.26552  0.61229  0.09006  1.0000
  C   C973      1.0  0.28493  0.60865  0.09175  1.0000
  C   C974      1.0  0.29874  0.61221  0.07564  1.0000
  P   P32       1.0  0.29206  0.60226  0.11453  1.0000
  C   C975      1.0  0.29263  0.62361  0.12277  1.0000
  C   C976      1.0  0.27515  0.58933  0.13123  1.0000
  C   C977      1.0  0.27854  0.56941  0.13490  1.0000
  C   C978      1.0  0.26577  0.55957  0.14830  1.0000
  C   C979      1.0  0.24954  0.56948  0.15825  1.0000
  C   C980      1.0  0.24591  0.58930  0.15462  1.0000
  C   C981      1.0  0.25861  0.59920  0.14110  1.0000
  C   C982      1.0  0.29240  0.62296  0.14193  1.0000
  C   C983      1.0  0.29327  0.63924  0.14846  1.0000
  C   C984      1.0  0.29437  0.65632  0.13594  1.0000
  C   C985      1.0  0.29479  0.65707  0.11681  1.0000
  C   C986      1.0  0.29389  0.64080  0.11021  1.0000
  C   C987      1.0  0.31557  0.58753  0.11268  1.0000
  C   C988      1.0  0.31998  0.57266  0.10231  1.0000
  C   C989      1.0  0.33742  0.56008  0.10234  1.0000
  C   C990      1.0  0.35074  0.56251  0.11239  1.0000
  C   C991      1.0  0.34698  0.57798  0.12166  1.0000
  C   C992      1.0  0.32942  0.59032  0.12205  1.0000
  H   H789      1.0  0.24515  0.62191  0.07113  1.0000
  H   H790      1.0  0.25454  0.61011  0.10234  1.0000
  H   H791      1.0  0.31372  0.61008  0.07673  1.0000
  H   H792      1.0  0.29112  0.56130  0.12771  1.0000
  H   H793      1.0  0.26867  0.54418  0.15123  1.0000
  H   H794      1.0  0.23992  0.56171  0.16889  1.0000
  H   H795      1.0  0.23333  0.59695  0.16238  1.0000
  H   H796      1.0  0.25564  0.61456  0.13848  1.0000
  H   H797      1.0  0.29208  0.60974  0.15171  1.0000
  H   H798      1.0  0.29360  0.63851  0.16321  1.0000
  H   H799      1.0  0.29550  0.66886  0.14097  1.0000
  H   H800      1.0  0.29475  0.64167  0.09526  1.0000
  H   H801      1.0  0.30971  0.57040  0.09472  1.0000
  H   H802      1.0  0.34045  0.54824  0.09488  1.0000
  H   H803      1.0  0.36404  0.55249  0.11298  1.0000
  H   H804      1.0  0.35764  0.58036  0.12873  1.0000
  H   H805      1.0  0.32687  0.60189  0.12975  1.0000
  H   H806      1.0  0.30458  0.59914  0.21278  1.0000
  C   C993      1.0  0.34265  0.70735  0.21144  1.0000
  H   H807      1.0  0.37668  0.70589  0.17678  1.0000
  C   C994      1.0  0.36553  0.57759  0.97515  1.0000
  C   C995      1.0  0.41328  0.51907  0.13929  1.0000
  H   H808      1.0  0.43480  0.68325  0.18396  1.0000
  C   C996      1.0  0.28342  0.58893  0.19131  1.0000
  H   H809      1.0  0.22962  0.53932  0.21646  1.0000
  C   C997      1.0  0.23840  0.59445  0.25193  1.0000
  C   C998      1.0  0.38299  0.66874  0.23185  1.0000
  C   C999      1.0  0.09927  0.61668  0.26489  1.0000
  C   C1000     1.0  0.26975  0.58815  0.20798  1.0000
  H   H810      1.0  0.24491  0.61617  0.18606  1.0000
  H   H811      1.0  0.10816  0.58698  0.27511  1.0000
  H   H812      1.0  0.33617  0.67133  0.25292  1.0000
  H   H813      1.0  0.40356  0.68488  0.09800  1.0000
  H   H814      1.0  0.00917  0.61677  0.24278  1.0000
  C   C1001     1.0  0.22086  0.54611  0.22782  1.0000
  H   H815      1.0  0.99136  0.57591  0.29213  1.0000
  H   H816      1.0  0.05848  0.63582  0.24736  1.0000
  H   H817      1.0  0.46765  0.69542  0.04259  1.0000
  S   S150      1.0  0.24324  0.48763  0.26762  1.0000
  H   H818      1.0  0.37426  0.70506  0.27662  1.0000
  C   C1002     1.0  0.36491  0.67655  0.24098  1.0000
  H   H819      1.0  0.39241  0.71299  0.21640  1.0000
  C   C1003     1.0  0.42337  0.69527  0.18207  1.0000
  Fe  Fe78      1.0  0.16946  0.49311  0.27978  1.0000
  C   C1004     1.0  0.29338  0.67870  0.21644  1.0000
  H   H820      1.0  0.13419  0.54070  0.27675  1.0000
  C   C1005     1.0  0.11506  0.48955  0.28696  1.0000
  H   H821      1.0  0.42630  0.57029  0.09828  1.0000
  C   C1006     1.0  0.41266  0.57646  0.09388  1.0000
  H   H822      1.0  0.40180  0.54054  0.98272  1.0000
  C   C1007     1.0  0.01956  0.62227  0.23125  1.0000
  C   C1008     1.0  0.39446  0.71261  0.99642  1.0000
  H   H823      1.0  0.34316  0.63797  0.24847  1.0000
  C   C1009     1.0  0.15999  0.61381  0.25363  1.0000
  H   H824      1.0  0.40064  0.64412  0.22172  1.0000
  C   C1010     1.0  0.09780  0.59752  0.26820  1.0000
  C   C1011     1.0  0.12457  0.49054  0.26819  1.0000
  H   H825      1.0  0.42280  0.53766  0.04318  1.0000
  H   H826      1.0  0.25211  0.67348  0.16208  1.0000
  S   S151      1.0  0.41608  0.65936  0.98587  1.0000
  H   H827      1.0  0.02266  0.49744  0.25242  1.0000
  C   C1012     1.0  0.37597  0.53894  0.97356  1.0000
  C   C1013     1.0  0.27962  0.66731  0.25504  1.0000
  H   H828      1.0  0.28092  0.48977  0.24617  1.0000
  S   S152      1.0  0.18897  0.51471  0.26993  1.0000
  H   H829      1.0  0.45015  0.51691  0.09099  1.0000
  C   C1014     1.0  0.20794  0.62474  0.24792  1.0000
  C   C1015     1.0  0.33601  0.71844  0.19547  1.0000
  C   C1016     1.0  0.32796  0.72180  0.26395  1.0000
  C   C1017     1.0  0.26224  0.57138  0.21519  1.0000
  C   C1018     1.0  0.40533  0.69233  0.18037  1.0000
  C   C1019     1.0  0.28234  0.55653  0.18970  1.0000
  C   C1020     1.0  0.41106  0.71919  0.99708  1.0000
  C   C1021     1.0  0.14294  0.61355  0.28562  1.0000
  H   H830      1.0  0.35831  0.72385  0.05300  1.0000
  H   H831      1.0  0.41302  0.52407  0.15216  1.0000
  C   C1022     1.0  0.29306  0.71410  0.24268  1.0000
  H   H832      1.0  0.25949  0.60330  0.98701  1.0000
  H   H833      1.0  0.22364  0.49812  0.23524  1.0000
  C   C1023     1.0  0.01303  0.63635  0.21691  1.0000
  C   C1024     1.0  0.45829  0.50393  0.03544  1.0000
  C   C1025     1.0  0.08827  0.53462  0.29466  1.0000
  H   H834      1.0  0.36501  0.65795  0.04778  1.0000
  C   C1026     1.0  0.08234  0.59199  0.26355  1.0000
  H   H835      1.0  0.12127  0.49205  0.23963  1.0000
  H   H836      1.0  0.30696  0.52605  0.98455  1.0000
  H   H837      1.0  0.05974  0.58530  0.21352  1.0000
  C   C1027     1.0  0.23980  0.60863  0.23587  1.0000
  C   C1028     1.0  0.26656  0.64559  0.20139  1.0000
  H   H838      1.0  0.38297  0.68913  0.99246  1.0000
  H   H839      1.0  0.29642  0.67014  0.10700  1.0000
  C   C1029     1.0  0.20357  0.55810  0.22509  1.0000
  C   C1030     1.0  0.34129  0.70482  0.26389  1.0000
  Fe  Fe79      1.0  0.06805  0.67173  0.29980  1.0000
  H   H840      1.0  0.30907  0.65587  0.25698  1.0000
  C   C1031     1.0  0.26656  0.71809  0.26850  1.0000
  C   C1032     1.0  0.25972  0.62915  0.20110  1.0000
  H   H841      1.0  0.01903  0.71659  0.27205  1.0000
  C   C1033     1.0  0.05516  0.57536  0.24367  1.0000
  H   H842      1.0  0.27408  0.64624  0.21239  1.0000
  Fe  Fe80      1.0  0.18090  0.52039  0.29951  1.0000
  C   C1034     1.0  0.25142  0.49327  0.24307  1.0000
  C   C1035     1.0  0.01580  0.58587  0.27363  1.0000
  C   C1036     1.0  0.27406  0.62234  0.05637  1.0000
  H   H843      1.0  0.32111  0.66556  0.22306  1.0000
  C   C1037     1.0  0.29335  0.61902  0.05803  1.0000
  H   H844      1.0  0.37489  0.51491  0.03772  1.0000
  H   H845      1.0  0.36081  0.51649  0.07110  1.0000
  C   C1038     1.0  0.28455  0.70855  0.26129  1.0000
  H   H846      1.0  0.26995  0.62771  0.04269  1.0000
  C   C1039     1.0  0.37438  0.52107  0.06507  1.0000
  Fe  Fe81      1.0  0.37456  0.66329  0.17485  1.0000
  H   H847      1.0  0.32868  0.60136  0.23057  1.0000
  H   H848      1.0  0.31871  0.61355  0.26076  1.0000
  S   S153      1.0  0.36180  0.67241  0.11026  1.0000
  H   H849      1.0  0.30422  0.62204  0.04576  1.0000
  H   H850      1.0  0.37218  0.67512  0.07036  1.0000
  C   C1040     1.0  0.41200  0.49373  0.12352  1.0000
  P   P33       1.0  0.41391  0.54174  0.08339  1.0000
  S   S154      1.0  0.30201  0.68726  0.19256  1.0000
  H   H851      1.0  0.22091  0.58434  0.27798  1.0000
  C   C1041     1.0  0.26677  0.67662  0.24297  1.0000
  H   H852      1.0  0.02102  0.65480  0.19084  1.0000
  C   C1042     1.0  0.06220  0.54113  0.25299  1.0000
  H   H853      1.0  0.25044  0.58320  0.25436  1.0000
  H   H854      1.0  0.34382  0.72170  0.99136  1.0000
  C   C1043     1.0  0.35439  0.64644  0.24424  1.0000
  H   H855      1.0  0.37542  0.62420  0.23301  1.0000
  H   H856      1.0  0.39409  0.67723  0.22622  1.0000
  H   H857      1.0  0.25120  0.51468  0.28966  1.0000
  C   C1044     1.0  0.38744  0.60373  0.08970  1.0000
  C   C1045     1.0  0.38388  0.52781  0.07617  1.0000
  H   H858      1.0  0.36463  0.59996  0.07723  1.0000
  C   C1046     1.0  0.28864  0.61849  0.25963  1.0000
  C   C1047     1.0  0.09431  0.49152  0.25849  1.0000
  C   C1048     1.0  0.37803  0.59336  0.08189  1.0000
  H   H859      1.0  0.01697  0.57612  0.26413  1.0000
  C   C1049     1.0  0.44148  0.49579  0.01409  1.0000
  C   C1050     1.0  0.02612  0.64377  0.20184  1.0000
  C   C1051     1.0  0.37256  0.63867  0.23553  1.0000
  C   C1052     1.0  0.41214  0.50646  0.10650  1.0000
  C   C1053     1.0  0.40477  0.59528  0.09569  1.0000
  C   C1054     1.0  0.38237  0.52011  0.04630  1.0000
  S   S155      1.0  0.40145  0.66890  0.18230  1.0000
  C   C1055     1.0  0.30599  0.66858  0.22843  1.0000
  C   C1056     1.0  0.22176  0.59519  0.26555  1.0000
  C   C1057     1.0  0.30803  0.61258  0.25293  1.0000
  C   C1058     1.0  0.29917  0.66317  0.24766  1.0000
  Fe  Fe82      1.0  0.33088  0.67217  0.17927  1.0000
  C   C1059     1.0  0.10512  0.53594  0.28156  1.0000
  H   H860      1.0  0.05229  0.56047  0.27250  1.0000
  H   H861      1.0  0.06283  0.52873  0.26392  1.0000
  C   C1060     1.0  0.35051  0.66536  0.24677  1.0000
  C   C1061     1.0  0.41252  0.50006  0.13992  1.0000
  H   H862      1.0  0.99781  0.64174  0.21767  1.0000
  P   P34       1.0  0.04781  0.59866  0.25008  1.0000
  C   C1062     1.0  0.39913  0.72262  0.08014  1.0000
  C   C1063     1.0  0.41255  0.52572  0.10577  1.0000
  C   C1064     1.0  0.40312  0.56582  0.08632  1.0000
  C   C1065     1.0  0.38584  0.57454  0.08009  1.0000
  C   C1066     1.0  0.40155  0.53369  0.06855  1.0000
  H   H863      1.0  0.07194  0.52495  0.23056  1.0000
  C   C1067     1.0  0.27482  0.61767  0.24935  1.0000
  S   S156      1.0  0.27243  0.66269  0.27967  1.0000
  H   H864      1.0  0.44354  0.67909  0.99183  1.0000
  H   H865      1.0  0.23988  0.53295  0.24754  1.0000
  C   C1068     1.0  0.45260  0.52581  0.00677  1.0000
  C   C1069     1.0  0.26871  0.55559  0.20618  1.0000
  C   C1070     1.0  0.99635  0.53726  0.26785  1.0000
  H   H866      1.0  0.19393  0.61113  0.27452  1.0000
  H   H867      1.0  0.26340  0.54245  0.21203  1.0000
  C   C1071     1.0  0.02647  0.61130  0.28257  1.0000
  C   C1072     1.0  0.29980  0.60447  0.22585  1.0000
  C   C1073     1.0  0.43868  0.54217  0.07283  1.0000
  H   H868      1.0  0.28746  0.54421  0.18286  1.0000
  H   H869      1.0  0.41188  0.49036  0.15324  1.0000
  C   C1074     1.0  0.42043  0.69909  0.10989  1.0000
  C   C1075     1.0  0.42661  0.71363  0.18176  1.0000
  H   H870      1.0  0.30670  0.70623  0.23698  1.0000
  C   C1076     1.0  0.41095  0.71965  0.23217  1.0000
  C   C1077     1.0  0.44843  0.49126  0.03115  1.0000
  S   S157      1.0  0.31040  0.48277  0.14366  1.0000
  C   C1078     1.0  0.12090  0.54030  0.28673  1.0000
  H   H871      1.0  0.30418  0.62929  0.99525  1.0000
  H   H872      1.0  0.13672  0.62092  0.29737  1.0000
  H   H873      1.0  0.36149  0.59247  0.97583  1.0000
  H   H874      1.0  0.06069  0.56906  0.29962  1.0000
  H   H875      1.0  0.46465  0.50063  0.04794  1.0000
  C   C1079     1.0  0.47720  0.54426  0.05747  1.0000
  C   C1080     1.0  0.39374  0.72624  0.17819  1.0000
  H   H876      1.0  0.42123  0.72377  0.21975  1.0000
  C   C1081     1.0  0.47172  0.65472  0.97420  1.0000
  C   C1082     1.0  0.44141  0.71910  0.07742  1.0000
  S   S158      1.0  0.38350  0.63248  0.97130  1.0000
  H   H877      1.0  0.33559  0.48553  0.23842  1.0000
  C   C1083     1.0  0.99324  0.50875  0.24939  1.0000
  H   H878      1.0  0.38024  0.52407  0.97265  1.0000
  C   C1084     1.0  0.47731  0.71585  0.05376  1.0000
  C   C1085     1.0  0.32633  0.69341  0.29587  1.0000
  H   H879      1.0  0.40657  0.72771  0.13231  1.0000
  H   H880      1.0  0.35333  0.71445  0.08780  1.0000
  C   C1086     1.0  0.02361  0.72318  0.28175  1.0000
  H   H881      1.0  0.05272  0.72135  0.26681  1.0000
  C   C1087     1.0  0.36953  0.72384  0.06061  1.0000
  C   C1088     1.0  0.31298  0.71025  0.29572  1.0000
  C   C1089     1.0  0.99892  0.59865  0.30148  1.0000
  H   H882      1.0  0.99067  0.63237  0.26695  1.0000
  H   H883      1.0  0.12305  0.48882  0.29797  1.0000
  C   C1090     1.0  0.04259  0.72581  0.27880  1.0000
  C   C1091     1.0  0.27130  0.52981  0.29519  1.0000
  C   C1092     1.0  0.40166  0.72845  0.06053  1.0000
  C   C1093     1.0  0.38691  0.72895  0.05084  1.0000
  C   C1094     1.0  0.25626  0.51956  0.30032  1.0000
  C   C1095     1.0  0.01084  0.72791  0.29784  1.0000
  H   H884      1.0  0.42689  0.72502  0.25135  1.0000
  C   C1096     1.0  0.41164  0.72913  0.18029  1.0000
  H   H885      1.0  0.18225  0.71094  0.30312  1.0000
  S   S159      1.0  0.19388  0.64573  0.32265  1.0000
  H   H886      1.0  0.05033  0.63398  0.52773  1.0000
  H   H887      1.0  0.08978  0.58495  0.32965  1.0000
  C   C1097     1.0  0.21935  0.56368  0.31452  1.0000
  H   H888      1.0  0.99538  0.72771  0.58734  1.0000
  H   H889      1.0  0.22672  0.48048  0.37049  1.0000
  C   C1098     1.0  0.19863  0.67445  0.62217  1.0000
  H   H890      1.0  0.02631  0.55102  0.63517  1.0000
  C   C1099     1.0  0.99064  0.48714  0.57895  1.0000
  C   C1100     1.0  0.03318  0.59299  0.33334  1.0000
  H   H891      1.0  0.10834  0.56690  0.63360  1.0000
  C   C1101     1.0  0.17978  0.65251  0.52367  1.0000
  C   C1102     1.0  0.99135  0.71735  0.36773  1.0000
  S   S160      1.0  0.02605  0.64664  0.32847  1.0000
  C   C1103     1.0  0.24531  0.70466  0.35753  1.0000
  H   H892      1.0  0.32559  0.68236  0.30820  1.0000
  C   C1104     1.0  0.04896  0.66074  0.60476  1.0000
  H   H893      1.0  0.04169  0.67194  0.63062  1.0000
  H   H894      1.0  0.13804  0.67033  0.55020  1.0000
  C   C1105     1.0  0.08719  0.66108  0.53658  1.0000
  C   C1106     1.0  0.04959  0.57205  0.31141  1.0000
  H   H895      1.0  0.09075  0.70096  0.35561  1.0000
  C   C1107     1.0  0.05361  0.70429  0.39231  1.0000
  S   S161      1.0  0.00739  0.49476  0.35750  1.0000
  C   C1108     1.0  0.14868  0.48253  0.60939  1.0000
  C   C1109     1.0  0.05425  0.65827  0.53767  1.0000
  H   H896      1.0  0.29942  0.71291  0.61721  1.0000
  C   C1110     1.0  0.13533  0.72884  0.41594  1.0000
  C   C1111     1.0  0.12499  0.69348  0.48567  1.0000
  H   H897      1.0  0.16009  0.68507  0.40964  1.0000
  C   C1112     1.0  0.12917  0.59743  0.33818  1.0000
  C   C1113     1.0  0.21618  0.49195  0.36508  1.0000
  H   H898      1.0  0.99730  0.70567  0.62580  1.0000
  C   C1114     1.0  0.99823  0.49989  0.58585  1.0000
  C   C1115     1.0  0.07127  0.59429  0.62124  1.0000
  H   H899      1.0  0.29407  0.72237  0.54797  1.0000
  S   S162      1.0  0.08827  0.71228  0.60390  1.0000
  H   H900      1.0  0.02977  0.68941  0.39764  1.0000
  H   H901      1.0  0.07714  0.51656  0.35525  1.0000
  S   S163      1.0  0.17096  0.55014  0.30566  1.0000
  C   C1116     1.0  0.04955  0.68315  0.37261  1.0000
  H   H902      1.0  0.16758  0.66180  0.47222  1.0000
  S   S164      1.0  0.15953  0.50081  0.30828  1.0000
  C   C1117     1.0  0.13912  0.55935  0.63150  1.0000
  C   C1118     1.0  0.08285  0.71307  0.52581  1.0000
  Fe  Fe83      1.0  0.04426  0.66232  0.33854  1.0000
  H   H903      1.0  0.08673  0.69607  0.57177  1.0000
  H   H904      1.0  0.99225  0.67257  0.34744  1.0000
  H   H905      1.0  0.07162  0.68000  0.34831  1.0000
  C   C1119     1.0  0.18421  0.70203  0.44884  1.0000
  S   S165      1.0  0.23919  0.64464  0.32404  1.0000
  C   C1120     1.0  0.16498  0.65403  0.53916  1.0000
  C   C1121     1.0  0.03692  0.55937  0.31951  1.0000
  H   H906      1.0  0.07405  0.53624  0.32281  1.0000
  H   H907      1.0  0.07442  0.57486  0.36024  1.0000
  C   C1122     1.0  0.06750  0.66830  0.54065  1.0000
  C   C1123     1.0  0.07832  0.70338  0.54428  1.0000
  C   C1124     1.0  0.14189  0.65547  0.61052  1.0000
  C   C1125     1.0  0.18446  0.50237  0.35707  1.0000
  C   C1126     1.0  0.03301  0.53580  0.61197  1.0000
  H   H908      1.0  0.20071  0.67259  0.41671  1.0000
  C   C1127     1.0  0.11291  0.56518  0.34089  1.0000
  C   C1128     1.0  0.24774  0.51549  0.31921  1.0000
  C   C1129     1.0  0.25400  0.52188  0.33312  1.0000
  C   C1130     1.0  0.26965  0.53148  0.32795  1.0000
  P   P35       1.0  0.24346  0.51596  0.35759  1.0000
  C   C1131     1.0  0.22007  0.51045  0.35881  1.0000
  C   C1132     1.0  0.25987  0.49583  0.36715  1.0000
  P   P36       1.0  0.01089  0.49119  0.60539  1.0000
  H   H909      1.0  0.20043  0.70533  0.42077  1.0000
  C   C1133     1.0  0.00034  0.72209  0.45127  1.0000
  H   H910      1.0  0.00045  0.52942  0.58323  1.0000
  C   C1134     1.0  0.26921  0.49676  0.38167  1.0000
  H   H911      1.0  0.00905  0.64363  0.61871  1.0000
  H   H912      1.0  0.08773  0.48899  0.30583  1.0000
  Fe  Fe84      1.0  0.01779  0.51897  0.33680  1.0000
  C   C1135     1.0  0.18792  0.52093  0.35157  1.0000
  C   C1136     1.0  0.20559  0.52498  0.35262  1.0000
  C   C1137     1.0  0.23877  0.53567  0.37006  1.0000
  C   C1138     1.0  0.23965  0.55424  0.36040  1.0000
  C   C1139     1.0  0.23492  0.56943  0.37020  1.0000
  C   C1140     1.0  0.22900  0.56630  0.38968  1.0000
  C   C1141     1.0  0.22761  0.54794  0.39938  1.0000
  C   C1142     1.0  0.23227  0.53271  0.38959  1.0000
  H   H913      1.0  0.27000  0.68242  0.62881  1.0000
  H   H914      1.0  0.09650  0.68953  0.48498  1.0000
  H   H915      1.0  0.05137  0.69660  0.51208  1.0000
  C   C1143     1.0  0.07165  0.57598  0.61818  1.0000
  H   H916      1.0  0.27520  0.53592  0.33851  1.0000
  S   S166      1.0  0.04860  0.50455  0.33240  1.0000
  C   C1144     1.0  0.11978  0.54340  0.30501  1.0000
  Fe  Fe85      1.0  0.22207  0.62649  0.31585  1.0000
  H   H917      1.0  0.18388  0.71658  0.45004  1.0000
  H   H918      1.0  0.26687  0.50959  0.38748  1.0000
  C   C1145     1.0  0.20054  0.72939  0.49093  1.0000
  H   H919      1.0  0.25144  0.72502  0.51006  1.0000
  H   H920      1.0  0.14019  0.64587  0.60192  1.0000
  H   H921      1.0  0.17713  0.53209  0.34596  1.0000
  H   H922      1.0  0.20811  0.53942  0.34821  1.0000
  H   H923      1.0  0.24348  0.55727  0.34526  1.0000
  H   H924      1.0  0.23551  0.58373  0.36254  1.0000
  H   H925      1.0  0.22521  0.57817  0.39717  1.0000
  H   H926      1.0  0.22266  0.54557  0.41445  1.0000
  H   H927      1.0  0.23061  0.51864  0.39721  1.0000
  H   H928      1.0  0.18414  0.65084  0.44249  1.0000
  H   H929      1.0  0.08008  0.67704  0.62565  1.0000
  C   C1146     1.0  0.03897  0.70321  0.53988  1.0000
  C   C1147     1.0  0.14935  0.66889  0.53810  1.0000
  S   S167      1.0  0.03686  0.66694  0.36851  1.0000
  C   C1148     1.0  0.27805  0.53569  0.30901  1.0000
  H   H930      1.0  0.13538  0.60988  0.33727  1.0000
  C   C1149     1.0  0.11574  0.52353  0.35396  1.0000
  C   C1150     1.0  0.99601  0.70165  0.34105  1.0000
  C   C1151     1.0  0.21528  0.69373  0.36017  1.0000
  C   C1152     1.0  0.06653  0.68678  0.36054  1.0000
  H   H931      1.0  0.03900  0.66344  0.54106  1.0000
  C   C1153     1.0  0.07100  0.70726  0.38066  1.0000
  C   C1154     1.0  0.19359  0.67729  0.42984  1.0000
  H   H932      1.0  0.23396  0.55689  0.31532  1.0000
  H   H933      1.0  0.02481  0.71589  0.49709  1.0000
  H   H934      1.0  0.00854  0.70928  0.44647  1.0000
  H   H935      1.0  0.11528  0.59760  0.63462  1.0000
  C   C1155     1.0  0.12109  0.50691  0.34613  1.0000
  H   H936      1.0  0.04420  0.54366  0.60439  1.0000
  H   H937      1.0  0.09767  0.66833  0.53915  1.0000
  C   C1156     1.0  0.15256  0.70787  0.38740  1.0000
  C   C1157     1.0  0.13124  0.49059  0.35555  1.0000
  C   C1158     1.0  0.28208  0.48107  0.38867  1.0000
  H   H938      1.0  0.19208  0.64122  0.52461  1.0000
  C   C1159     1.0  0.19346  0.69576  0.43208  1.0000
  C   C1160     1.0  0.09351  0.64435  0.52911  1.0000
  H   H939      1.0  0.11750  0.50642  0.33276  1.0000
  H   H940      1.0  0.13221  0.54642  0.30896  1.0000
  C   C1161     1.0  0.04842  0.69839  0.58676  1.0000
  H   H941      1.0  0.02209  0.71283  0.56523  1.0000
  H   H942      1.0  0.19274  0.70355  0.38186  1.0000
  C   C1162     1.0  0.16306  0.68045  0.50575  1.0000
  H   H943      1.0  0.05672  0.65349  0.57724  1.0000
  C   C1163     1.0  0.04299  0.69207  0.38839  1.0000
  C   C1164     1.0  0.11999  0.52333  0.37169  1.0000
  C   C1165     1.0  0.17506  0.67128  0.46124  1.0000
  C   C1166     1.0  0.13131  0.56328  0.34508  1.0000
  H   H944      1.0  0.01614  0.64717  0.58430  1.0000
  C   C1167     1.0  0.05304  0.66503  0.58509  1.0000
  C   C1168     1.0  0.18767  0.56247  0.30956  1.0000
  P   P37       1.0  0.10227  0.54461  0.34219  1.0000
  C   C1169     1.0  0.05273  0.68395  0.57591  1.0000
  C   C1170     1.0  0.10807  0.72460  0.53449  1.0000
  H   H945      1.0  0.03127  0.72722  0.35564  1.0000
  C   C1171     1.0  0.04944  0.56280  0.37266  1.0000
  C   C1172     1.0  0.05086  0.53019  0.37000  1.0000
  H   H946      1.0  0.04406  0.51784  0.37263  1.0000
  H   H947      1.0  0.11205  0.52024  0.63432  1.0000
  C   C1173     1.0  0.04443  0.67527  0.61537  1.0000
  C   C1174     1.0  0.02926  0.52103  0.60479  1.0000
  H   H948      1.0  0.16576  0.64386  0.55208  1.0000
  H   H949      1.0  0.12982  0.70481  0.35820  1.0000
  C   C1175     1.0  0.14130  0.70633  0.34618  1.0000
  C   C1176     1.0  0.04072  0.54685  0.37615  1.0000
  C   C1177     1.0  0.02289  0.54001  0.62933  1.0000
  H   H950      1.0  0.20529  0.63671  0.61336  1.0000
  C   C1178     1.0  0.15596  0.54715  0.60313  1.0000
  H   H951      1.0  0.01012  0.62116  0.30761  1.0000
  C   C1179     1.0  0.14846  0.68214  0.52150  1.0000
  C   C1180     1.0  0.14438  0.71008  0.42050  1.0000
  P   P38       1.0  0.16232  0.69826  0.48484  1.0000
  H   H952      1.0  0.36946  0.72658  0.39415  1.0000
  C   C1181     1.0  0.13622  0.49074  0.37277  1.0000
  C   C1182     1.0  0.04425  0.69406  0.60635  1.0000
  S   S168      1.0  0.07246  0.64806  0.32405  1.0000
  C   C1183     1.0  0.11132  0.59936  0.33303  1.0000
  H   H953      1.0  0.11541  0.53585  0.37821  1.0000
  H   H954      1.0  0.10363  0.61328  0.32804  1.0000
  C   C1184     1.0  0.06815  0.56228  0.36262  1.0000
  H   H955      1.0  0.18990  0.60613  0.31746  1.0000
  C   C1185     1.0  0.23728  0.71501  0.37218  1.0000
  C   C1186     1.0  0.02411  0.71478  0.51206  1.0000
  C   C1187     1.0  0.09777  0.72347  0.52096  1.0000
  H   H956      1.0  0.24059  0.68640  0.34003  1.0000
  H   H957      1.0  0.13827  0.54504  0.58388  1.0000
  H   H958      1.0  0.21593  0.72871  0.48783  1.0000
  H   H959      1.0  0.15343  0.57780  0.34731  1.0000
  C   C1188     1.0  0.07825  0.54578  0.35581  1.0000
  C   C1189     1.0  0.04778  0.58881  0.31831  1.0000
  C   C1190     1.0  0.20481  0.69877  0.59474  1.0000
  C   C1191     1.0  0.07917  0.70605  0.62788  1.0000
  C   C1192     1.0  0.10406  0.71459  0.55275  1.0000
  H   H960      1.0  0.08515  0.62169  0.52003  1.0000
  S   S169      1.0  0.04143  0.68727  0.31540  1.0000
  H   H961      1.0  0.13980  0.54947  0.34879  1.0000
  C   C1193     1.0  0.08720  0.53753  0.31296  1.0000
  Fe  Fe86      1.0  0.05396  0.63453  0.31192  1.0000
  C   C1194     1.0  0.23109  0.67994  0.60944  1.0000
  C   C1195     1.0  0.15289  0.69956  0.40622  1.0000
  H   H962      1.0  0.03752  0.51771  0.59149  1.0000
  C   C1196     1.0  0.18182  0.58146  0.31183  1.0000
  H   H963      1.0  0.04877  0.71300  0.58011  1.0000
  C   C1197     1.0  0.17892  0.66576  0.50705  1.0000
  C   C1198     1.0  0.10661  0.69924  0.48116  1.0000
  C   C1199     1.0  0.06958  0.52959  0.36004  1.0000
  H   H964      1.0  0.13417  0.50712  0.39435  1.0000
  S   S170      1.0  0.20072  0.68117  0.35276  1.0000
  S   S171      1.0  0.20462  0.49869  0.31030  1.0000
  C   C1200     1.0  0.01525  0.51037  0.61492  1.0000
  C   C1201     1.0  0.08946  0.70378  0.55756  1.0000
  C   C1202     1.0  0.12036  0.50703  0.60981  1.0000
  C   C1203     1.0  0.08024  0.63463  0.52585  1.0000
  C   C1204     1.0  0.07735  0.69862  0.36470  1.0000
  S   S172      1.0  0.25799  0.71759  0.60465  1.0000
  C   C1205     1.0  0.13745  0.49890  0.63603  1.0000
  H   H965      1.0  0.04153  0.57578  0.37732  1.0000
  C   C1206     1.0  0.13357  0.49350  0.60076  1.0000
  C   C1207     1.0  0.19462  0.59153  0.31554  1.0000
  C   C1208     1.0  0.19246  0.71581  0.48603  1.0000
  C   C1209     1.0  0.00773  0.72377  0.54180  1.0000
  H   H966      1.0  0.10871  0.63890  0.52587  1.0000
  C   C1210     1.0  0.10340  0.58328  0.33408  1.0000
  C   C1211     1.0  0.15831  0.65213  0.61867  1.0000
  Fe  Fe87      1.0  0.21163  0.66534  0.32808  1.0000
  C   C1212     1.0  0.15056  0.48495  0.62725  1.0000
  H   H967      1.0  0.19076  0.66472  0.49536  1.0000
  H   H968      1.0  0.10796  0.55769  0.60346  1.0000
  S   S173      1.0  0.00661  0.54764  0.34494  1.0000
  H   H969      1.0  0.02599  0.54749  0.38332  1.0000
  H   H970      1.0  0.28915  0.48182  0.39995  1.0000
  P   P39       1.0  0.05914  0.68970  0.55056  1.0000
  H   H971      1.0  0.16921  0.54150  0.59464  1.0000
  H   H972      1.0  0.10835  0.51528  0.60343  1.0000
  C   C1213     1.0  0.12750  0.67106  0.61370  1.0000
  C   C1214     1.0  0.99514  0.51922  0.57793  1.0000
  C   C1215     1.0  0.99188  0.68507  0.35318  1.0000
  S   S174      1.0  0.25096  0.72930  0.37845  1.0000
  C   C1216     1.0  0.19198  0.68880  0.60795  1.0000
  H   H973      1.0  0.30273  0.72740  0.57697  1.0000
  C   C1217     1.0  0.10292  0.54197  0.31829  1.0000
  C   C1218     1.0  0.21825  0.71462  0.38084  1.0000
  C   C1219     1.0  0.17530  0.68971  0.46371  1.0000
  C   C1220     1.0  0.12149  0.55641  0.60802  1.0000
  C   C1221     1.0  0.13280  0.72424  0.47054  1.0000
  C   C1222     1.0  0.19843  0.48796  0.36413  1.0000
  H   H974      1.0  0.07244  0.60583  0.60944  1.0000
  C   C1223     1.0  0.06062  0.64156  0.53019  1.0000
  C   C1224     1.0  0.13045  0.50706  0.38093  1.0000
  C   C1225     1.0  0.12174  0.56152  0.62516  1.0000
  C   C1226     1.0  0.20738  0.70387  0.37499  1.0000
  H   H975      1.0  0.07314  0.57342  0.60400  1.0000
  H   H976      1.0  0.08715  0.72196  0.46773  1.0000
  H   H977      1.0  0.17113  0.49907  0.35544  1.0000
  C   C1227     1.0  0.13805  0.70615  0.48078  1.0000
  C   C1228     1.0  0.14575  0.69323  0.33391  1.0000
  C   C1229     1.0  0.20381  0.62835  0.62738  1.0000
  H   H978      1.0  0.16922  0.63998  0.61602  1.0000
  S   S175      1.0  0.01086  0.51047  0.31195  1.0000
  C   C1230     1.0  0.18429  0.66507  0.44438  1.0000
  C   C1231     1.0  0.13857  0.54920  0.59703  1.0000
  H   H979      1.0  0.22376  0.65933  0.63388  1.0000
  H   H980      1.0  0.11478  0.66430  0.30691  1.0000
  C   C1232     1.0  0.03927  0.70400  0.52064  1.0000
  C   C1233     1.0  0.99803  0.67451  0.57977  1.0000
  H   H981      1.0  0.23432  0.70221  0.58542  1.0000
  H   H982      1.0  0.13649  0.69383  0.52103  1.0000
  C   C1234     1.0  0.23434  0.69413  0.35147  1.0000
  C   C1235     1.0  0.02294  0.71309  0.55043  1.0000
  H   H983      1.0  0.14490  0.70378  0.43506  1.0000
  C   C1236     1.0  0.25037  0.70903  0.62878  1.0000
  H   H984      1.0  0.16988  0.55063  0.62464  1.0000
  H   H985      1.0  0.03185  0.60582  0.33885  1.0000
  H   H986      1.0  0.12905  0.67910  0.49271  1.0000
  C   C1237     1.0  0.10132  0.71750  0.47141  1.0000
  C   C1238     1.0  0.13926  0.57937  0.34400  1.0000
  C   C1239     1.0  0.17249  0.71681  0.48966  1.0000
  Fe  Fe88      1.0  0.00256  0.48505  0.33235  1.0000
  H   H987      1.0  0.13190  0.49129  0.58720  1.0000
  H   H988      1.0  0.04964  0.64612  0.61187  1.0000
  H   H989      1.0  0.24625  0.67669  0.61004  1.0000
  H   H990      1.0  0.16008  0.69973  0.37655  1.0000
  H   H991      1.0  0.03835  0.54647  0.31406  1.0000
  C   C1240     1.0  0.16632  0.72293  0.32724  1.0000
  Fe  Fe89      1.0  0.04089  0.49350  0.30947  1.0000
  H   H992      1.0  0.13781  0.68170  0.33649  1.0000
  S   S176      1.0  0.22931  0.59458  0.32277  1.0000
  C   C1241     1.0  0.16051  0.69494  0.31839  1.0000
  H   H993      1.0  0.02313  0.72718  0.46298  1.0000
  S   S177      1.0  0.08549  0.72111  0.38599  1.0000
  H   H994      1.0  0.23629  0.50734  0.32288  1.0000
  H   H995      1.0  0.20187  0.70455  0.47945  1.0000
  C   C1242     1.0  0.07680  0.68731  0.63497  1.0000
  C   C1243     1.0  0.12243  0.50983  0.62733  1.0000
  C   C1244     1.0  0.15626  0.55229  0.62025  1.0000
  C   C1245     1.0  0.22436  0.69433  0.59548  1.0000
  H   H996      1.0  0.04165  0.70527  0.61457  1.0000
  H   H997      1.0  0.01440  0.72642  0.63566  1.0000
  H   H998      1.0  0.30188  0.71220  0.30791  1.0000
  H   H999      1.0  0.00895  0.58371  0.35288  1.0000
  H   H1000     1.0  0.16743  0.72400  0.56005  1.0000
  C   C1246     1.0  0.21333  0.58255  0.31720  1.0000
  C   C1247     1.0  0.02229  0.56355  0.33449  1.0000
  C   C1248     1.0  0.02028  0.58046  0.34129  1.0000
  H   H1001     1.0  0.19965  0.71008  0.58401  1.0000
  H   H1002     1.0  0.11184  0.71559  0.56341  1.0000
  H   H1003     1.0  0.25999  0.70502  0.35065  1.0000
  C   C1249     1.0  0.17073  0.70979  0.31505  1.0000
  S   S178      1.0  0.07337  0.53785  0.62889  1.0000
  S   S179      1.0  0.06362  0.60446  0.30734  1.0000
  H   H1004     1.0  0.11470  0.67370  0.60748  1.0000
  H   H1005     1.0  0.17693  0.69244  0.60707  1.0000
  H   H1006     1.0  0.04862  0.71094  0.40462  1.0000
  C   C1250     1.0  0.00634  0.65823  0.59087  1.0000
  H   H1007     1.0  0.16730  0.58841  0.31098  1.0000
  H   H1008     1.0  0.07475  0.71307  0.51513  1.0000
  H   H1009     1.0  0.99921  0.70153  0.32618  1.0000
  C   C1251     1.0  0.07053  0.56093  0.63335  1.0000
  C   C1252     1.0  0.16036  0.66431  0.63019  1.0000
  H   H1010     1.0  0.22137  0.60324  0.61804  1.0000
  C   C1253     1.0  0.21830  0.67014  0.62287  1.0000
  C   C1254     1.0  0.12959  0.68335  0.62491  1.0000
  C   C1255     1.0  0.99617  0.71786  0.34824  1.0000
  C   C1256     1.0  0.00512  0.51468  0.63241  1.0000
  H   H1011     1.0  0.11853  0.69555  0.62711  1.0000
  H   H1012     1.0  0.21123  0.53905  0.30876  1.0000
  C   C1257     1.0  0.00226  0.65628  0.61050  1.0000
  C   C1258     1.0  0.00840  0.72473  0.52259  1.0000
  H   H1013     1.0  0.16417  0.68469  0.30901  1.0000
  C   C1259     1.0  0.20657  0.55365  0.31061  1.0000
  Fe  Fe90      1.0  0.02513  0.67068  0.30405  1.0000
  H   H1014     1.0  0.00136  0.67618  0.56457  1.0000
  C   C1260     1.0  0.14596  0.68009  0.63306  1.0000
  H   H1015     1.0  0.10934  0.63170  0.63529  1.0000
  H   H1016     1.0  0.19665  0.52723  0.63575  1.0000
  H   H1017     1.0  0.21186  0.72284  0.39185  1.0000
  C   C1261     1.0  0.15157  0.72130  0.34294  1.0000
  C   C1262     1.0  0.29405  0.72344  0.62625  1.0000
  C   C1263     1.0  0.21289  0.60938  0.62994  1.0000
  C   C1264     1.0  0.14327  0.72669  0.38274  1.0000
  H   H1018     1.0  0.15058  0.65683  0.30356  1.0000
  H   H1019     1.0  0.28980  0.54355  0.30505  1.0000
  H   H1020     1.0  0.18072  0.72940  0.61795  1.0000
  Fe  Fe91      1.0  0.03745  0.47946  0.35104  1.0000
  H   H1021     1.0  0.17028  0.51061  0.63643  1.0000
  C   C1265     1.0  0.42621  0.48498  0.86450  1.0000
  C   C1266     1.0  0.41396  0.49261  0.82984  1.0000
  S   S180      1.0  0.24419  0.51467  0.66964  1.0000
  H   H1022     1.0  0.05270  0.52754  0.73196  1.0000
  S   S181      1.0  0.37302  0.51454  0.80337  1.0000
  S   S182      1.0  0.08724  0.63890  0.68089  1.0000
  C   C1267     1.0  0.29353  0.60599  0.93901  1.0000
  C   C1268     1.0  0.46949  0.66528  0.95644  1.0000
  S   S183      1.0  0.43462  0.70061  0.84883  1.0000
  H   H1023     1.0  0.21213  0.56390  0.89675  1.0000
  Fe  Fe92      1.0  0.35470  0.61801  0.82621  1.0000
  S   S184      1.0  0.32689  0.61161  0.84388  1.0000
  S   S185      1.0  0.37759  0.59789  0.81082  1.0000
  Fe  Fe93      1.0  0.34801  0.65818  0.83474  1.0000
  S   S186      1.0  0.31926  0.65499  0.85275  1.0000
  S   S187      1.0  0.35748  0.68672  0.83018  1.0000
  Fe  Fe94      1.0  0.33414  0.62633  0.86480  1.0000
  S   S188      1.0  0.33271  0.61275  0.89563  1.0000
  Fe  Fe95      1.0  0.31459  0.64084  0.83007  1.0000
  S   S189      1.0  0.28610  0.64886  0.81943  1.0000
  S   S190      1.0  0.36312  0.63023  0.84809  1.0000
  S   S191      1.0  0.34213  0.64641  0.81114  1.0000
  Fe  Fe96      1.0  0.23284  0.65738  0.70475  1.0000
  S   S192      1.0  0.22286  0.65103  0.73605  1.0000
  S   S193      1.0  0.23270  0.68836  0.69193  1.0000
  Fe  Fe97      1.0  0.23637  0.61607  0.70077  1.0000
  S   S194      1.0  0.22625  0.60662  0.73154  1.0000
  S   S195      1.0  0.24630  0.59875  0.67743  1.0000
  Fe  Fe98      1.0  0.20431  0.63346  0.72901  1.0000
  S   S196      1.0  0.17308  0.63769  0.74281  1.0000
  Fe  Fe99      1.0  0.24575  0.62508  0.73586  1.0000
  S   S197      1.0  0.26728  0.61266  0.75561  1.0000
  S   S198      1.0  0.21283  0.64142  0.69783  1.0000
  S   S199      1.0  0.25730  0.63281  0.70500  1.0000
  C   C1269     1.0  0.23902  0.69544  0.66743  1.0000
  C   C1270     1.0  0.25297  0.68411  0.65638  1.0000
  H   H1024     1.0  0.25967  0.67030  0.66279  1.0000
  C   C1271     1.0  0.28160  0.63931  0.80096  1.0000
  C   C1272     1.0  0.26540  0.64767  0.79260  1.0000
  C   C1273     1.0  0.26107  0.64007  0.77829  1.0000
  C   C1274     1.0  0.27265  0.62370  0.77258  1.0000
  C   C1275     1.0  0.28869  0.61526  0.78109  1.0000
  C   C1276     1.0  0.29337  0.62318  0.79496  1.0000
  H   H1025     1.0  0.25625  0.66018  0.79713  1.0000
  H   H1026     1.0  0.24869  0.64676  0.77185  1.0000
  H   H1027     1.0  0.29749  0.60246  0.77698  1.0000
  H   H1028     1.0  0.30588  0.61663  0.80125  1.0000
  C   C1277     1.0  0.33226  0.62529  0.91382  1.0000
  H   H1029     1.0  0.12679  0.64451  0.65379  1.0000
  C   C1278     1.0  0.32358  0.65375  0.92800  1.0000
  C   C1279     1.0  0.32431  0.64455  0.91283  1.0000
  C   C1280     1.0  0.34773  0.51931  0.88243  1.0000
  H   H1030     1.0  0.31738  0.66859  0.92723  1.0000
  H   H1031     1.0  0.31864  0.65232  0.90045  1.0000
  C   C1281     1.0  0.41338  0.69710  0.84294  1.0000
  C   C1282     1.0  0.40975  0.67853  0.84569  1.0000
  C   C1283     1.0  0.39285  0.67507  0.84159  1.0000
  C   C1284     1.0  0.37928  0.69022  0.83494  1.0000
  C   C1285     1.0  0.38293  0.70880  0.83218  1.0000
  C   C1286     1.0  0.39991  0.71225  0.83614  1.0000
  H   H1032     1.0  0.42017  0.66676  0.85079  1.0000
  H   H1033     1.0  0.39039  0.66071  0.84344  1.0000
  C   C1287     1.0  0.10923  0.49883  0.73987  1.0000
  C   C1288     1.0  0.13019  0.61540  0.71964  1.0000
  C   C1289     1.0  0.12372  0.62866  0.73170  1.0000
  C   C1290     1.0  0.13703  0.63599  0.73822  1.0000
  C   C1291     1.0  0.15680  0.63024  0.73254  1.0000
  C   C1292     1.0  0.16322  0.61782  0.71963  1.0000
  C   C1293     1.0  0.14992  0.61036  0.71331  1.0000
  H   H1034     1.0  0.10854  0.63250  0.73678  1.0000
  H   H1035     1.0  0.13201  0.64568  0.74814  1.0000
  H   H1036     1.0  0.17842  0.61338  0.71512  1.0000
  H   H1037     1.0  0.15495  0.60032  0.70381  1.0000
  C   C1294     1.0  0.06967  0.68186  0.65403  1.0000
  H   H1038     1.0  0.06691  0.66764  0.65905  1.0000
  C   C1295     1.0  0.37305  0.53787  0.80590  1.0000
  C   C1296     1.0  0.39049  0.54439  0.80072  1.0000
  C   C1297     1.0  0.39145  0.56284  0.80224  1.0000
  C   C1298     1.0  0.37499  0.57504  0.80898  1.0000
  C   C1299     1.0  0.35733  0.56876  0.81380  1.0000
  C   C1300     1.0  0.35639  0.55005  0.81238  1.0000
  H   H1039     1.0  0.40337  0.53514  0.79547  1.0000
  H   H1040     1.0  0.40504  0.56772  0.79813  1.0000
  H   H1041     1.0  0.34451  0.57834  0.81857  1.0000
  H   H1042     1.0  0.34286  0.54508  0.81601  1.0000
  C   C1301     1.0  0.24491  0.53741  0.67374  1.0000
  C   C1302     1.0  0.23570  0.54429  0.69038  1.0000
  C   C1303     1.0  0.23619  0.56306  0.69215  1.0000
  C   C1304     1.0  0.24593  0.57478  0.67732  1.0000
  C   C1305     1.0  0.25520  0.56768  0.66097  1.0000
  C   C1306     1.0  0.25464  0.54922  0.65917  1.0000
  H   H1043     1.0  0.22811  0.53529  0.70174  1.0000
  H   H1044     1.0  0.22898  0.56852  0.70480  1.0000
  H   H1045     1.0  0.25395  0.49268  0.74358  1.0000
  P   P40       1.0  0.13938  0.56514  0.65403  1.0000
  S   S200      1.0  0.28852  0.50263  0.78991  1.0000
  C   C1307     1.0  0.06837  0.56435  0.65165  1.0000
  C   C1308     1.0  0.06799  0.58270  0.65472  1.0000
  H   H1046     1.0  0.12992  0.49951  0.75653  1.0000
  H   H1047     1.0  0.06742  0.55283  0.66343  1.0000
  H   H1048     1.0  0.06664  0.58510  0.66883  1.0000
  H   H1049     1.0  0.38631  0.58867  0.86758  1.0000
  S   S201      1.0  0.04064  0.64298  0.68517  1.0000
  S   S202      1.0  0.34091  0.48054  0.79830  1.0000
  C   C1309     1.0  0.41839  0.56519  0.83585  1.0000
  C   C1310     1.0  0.38048  0.51879  0.88581  1.0000
  C   C1311     1.0  0.26937  0.49675  0.76403  1.0000
  H   H1050     1.0  0.45818  0.67690  0.87202  1.0000
  H   H1051     1.0  0.00133  0.53248  0.65317  1.0000
  C   C1312     1.0  0.06838  0.71356  0.65934  1.0000
  Fe  Fe100     1.0  0.08547  0.61800  0.70757  1.0000
  H   H1052     1.0  0.44739  0.50341  0.93579  1.0000
  C   C1313     1.0  0.41870  0.71866  0.94544  1.0000
  H   H1053     1.0  0.18485  0.63135  0.67331  1.0000
  H   H1054     1.0  0.29304  0.62080  0.93941  1.0000
  C   C1314     1.0  0.33144  0.64396  0.94390  1.0000
  C   C1315     1.0  0.36712  0.51869  0.87459  1.0000
  C   C1316     1.0  0.34254  0.56265  0.86155  1.0000
  C   C1317     1.0  0.31551  0.48768  0.91369  1.0000
  Fe  Fe101     1.0  0.23068  0.49245  0.69131  1.0000
  H   H1055     1.0  0.23206  0.54482  0.94078  1.0000
  S   S203      1.0  0.08203  0.49766  0.72026  1.0000
  C   C1318     1.0  0.17691  0.66983  0.66138  1.0000
  H   H1056     1.0  0.03564  0.50206  0.73084  1.0000
  C   C1319     1.0  0.42343  0.66540  0.91385  1.0000
  H   H1057     1.0  0.23316  0.60738  0.86707  1.0000
  H   H1058     1.0  0.25039  0.57106  0.92873  1.0000
  S   S204      1.0  0.06043  0.63575  0.72332  1.0000
  H   H1059     1.0  0.40781  0.48852  0.90819  1.0000
  C   C1320     1.0  0.25151  0.52563  0.92409  1.0000
  S   S205      1.0  0.05889  0.68725  0.69059  1.0000
  H   H1060     1.0  0.43635  0.65488  0.91344  1.0000
  C   C1321     1.0  0.34239  0.56771  0.87875  1.0000
  H   H1061     1.0  0.17084  0.49104  0.77637  1.0000
  H   H1062     1.0  0.34452  0.60032  0.93157  1.0000
  C   C1322     1.0  0.40672  0.58031  0.84378  1.0000
  H   H1063     1.0  0.42757  0.53508  0.83903  1.0000
  H   H1064     1.0  0.40617  0.59469  0.83600  1.0000
  H   H1065     1.0  0.24482  0.54685  0.88626  1.0000
  C   C1323     1.0  0.32096  0.49371  0.73845  1.0000
  C   C1324     1.0  0.33327  0.48922  0.72209  1.0000
  C   C1325     1.0  0.33823  0.50371  0.70730  1.0000
  C   C1326     1.0  0.33090  0.52271  0.70886  1.0000
  C   C1327     1.0  0.31850  0.52729  0.72526  1.0000
  C   C1328     1.0  0.31362  0.51266  0.74000  1.0000
  P   P41       1.0  0.30900  0.55159  0.72804  1.0000
  C   C1329     1.0  0.28364  0.55314  0.73692  1.0000
  C   C1330     1.0  0.32140  0.55874  0.74351  1.0000
  C   C1331     1.0  0.33397  0.54539  0.75390  1.0000
  C   C1332     1.0  0.34445  0.55132  0.76478  1.0000
  C   C1333     1.0  0.34257  0.57058  0.76531  1.0000
  C   C1334     1.0  0.33007  0.58393  0.75509  1.0000
  C   C1335     1.0  0.31947  0.57807  0.74429  1.0000
  C   C1336     1.0  0.27428  0.56488  0.75004  1.0000
  C   C1337     1.0  0.25438  0.56724  0.75548  1.0000
  C   C1338     1.0  0.24372  0.55767  0.74814  1.0000
  C   C1339     1.0  0.25299  0.54554  0.73547  1.0000
  C   C1340     1.0  0.27286  0.54334  0.72979  1.0000
  C   C1341     1.0  0.31231  0.56748  0.70573  1.0000
  C   C1342     1.0  0.29700  0.57531  0.69594  1.0000
  C   C1343     1.0  0.29974  0.58811  0.67907  1.0000
  C   C1344     1.0  0.31768  0.59324  0.67182  1.0000
  C   C1345     1.0  0.33298  0.58553  0.68143  1.0000
  C   C1346     1.0  0.33032  0.57271  0.69831  1.0000
  H   H1066     1.0  0.20099  0.59826  0.67748  1.0000
  C   C1347     1.0  0.36112  0.71681  0.93870  1.0000
  H   H1067     1.0  0.34765  0.50023  0.69456  1.0000
  H   H1068     1.0  0.33482  0.53371  0.69724  1.0000
  H   H1069     1.0  0.30415  0.51600  0.75275  1.0000
  H   H1070     1.0  0.33582  0.53040  0.75370  1.0000
  H   H1071     1.0  0.35406  0.54096  0.77282  1.0000
  H   H1072     1.0  0.35076  0.57516  0.77369  1.0000
  H   H1073     1.0  0.32855  0.59888  0.75555  1.0000
  H   H1074     1.0  0.30979  0.58867  0.73651  1.0000
  H   H1075     1.0  0.28213  0.57262  0.75578  1.0000
  H   H1076     1.0  0.24727  0.57696  0.76501  1.0000
  H   H1077     1.0  0.22827  0.55982  0.75216  1.0000
  H   H1078     1.0  0.24480  0.53802  0.72981  1.0000
  H   H1079     1.0  0.27975  0.53428  0.71954  1.0000
  H   H1080     1.0  0.28281  0.57195  0.70129  1.0000
  H   H1081     1.0  0.28779  0.59427  0.67176  1.0000
  C   C1348     1.0  0.31908  0.48205  0.89607  1.0000
  H   H1082     1.0  0.34683  0.58969  0.67591  1.0000
  H   H1083     1.0  0.34224  0.56704  0.70573  1.0000
  H   H1084     1.0  0.03522  0.56072  0.73121  1.0000
  Fe  Fe102     1.0  0.06684  0.62436  0.67282  1.0000
  Fe  Fe103     1.0  0.34754  0.49999  0.81490  1.0000
  S   S206      1.0  0.30587  0.49505  0.87854  1.0000
  Fe  Fe104     1.0  0.04187  0.62154  0.71157  1.0000
  C   C1349     1.0  0.16264  0.56190  0.71103  1.0000
  C   C1350     1.0  0.18108  0.56377  0.71229  1.0000
  C   C1351     1.0  0.18555  0.56364  0.72979  1.0000
  C   C1352     1.0  0.17159  0.56161  0.74599  1.0000
  C   C1353     1.0  0.15299  0.55985  0.74475  1.0000
  C   C1354     1.0  0.14865  0.55984  0.72715  1.0000
  P   P42       1.0  0.13524  0.55689  0.76582  1.0000
  C   C1355     1.0  0.11144  0.56218  0.76000  1.0000
  C   C1356     1.0  0.13918  0.53262  0.77795  1.0000
  C   C1357     1.0  0.15579  0.51984  0.77231  1.0000
  C   C1358     1.0  0.40639  0.48178  0.77706  1.0000
  H   H1085     1.0  0.48086  0.64647  0.87418  1.0000
  S   S207      1.0  0.16637  0.49472  0.73388  1.0000
  C   C1359     1.0  0.12500  0.52605  0.79255  1.0000
  C   C1360     1.0  0.10061  0.58057  0.75925  1.0000
  C   C1361     1.0  0.08215  0.58439  0.75493  1.0000
  C   C1362     1.0  0.07431  0.56991  0.75141  1.0000
  C   C1363     1.0  0.08503  0.55160  0.75199  1.0000
  C   C1364     1.0  0.10359  0.54780  0.75605  1.0000
  C   C1365     1.0  0.13729  0.57333  0.78015  1.0000
  C   C1366     1.0  0.14142  0.59135  0.77149  1.0000
  C   C1367     1.0  0.14335  0.60416  0.78228  1.0000
  C   C1368     1.0  0.14110  0.59913  0.80182  1.0000
  C   C1369     1.0  0.13703  0.58122  0.81059  1.0000
  C   C1370     1.0  0.13516  0.56834  0.79981  1.0000
  H   H1086     1.0  0.15894  0.56249  0.69754  1.0000
  H   H1087     1.0  0.19185  0.56546  0.69971  1.0000
  H   H1088     1.0  0.19980  0.56522  0.73078  1.0000
  H   H1089     1.0  0.17528  0.56146  0.75948  1.0000
  H   H1090     1.0  0.13444  0.55857  0.72575  1.0000
  H   H1091     1.0  0.16666  0.52415  0.76060  1.0000
  H   H1092     1.0  0.11939  0.49324  0.69412  1.0000
  C   C1371     1.0  0.41395  0.50216  0.85948  1.0000
  C   C1372     1.0  0.00805  0.55354  0.73093  1.0000
  H   H1093     1.0  0.11186  0.53554  0.79680  1.0000
  H   H1094     1.0  0.10650  0.59212  0.76149  1.0000
  H   H1095     1.0  0.07406  0.59871  0.75394  1.0000
  H   H1096     1.0  0.06007  0.57303  0.74785  1.0000
  P   P43       1.0  0.28561  0.57468  0.90208  1.0000
  H   H1097     1.0  0.11185  0.53365  0.75595  1.0000
  H   H1098     1.0  0.14315  0.59553  0.75634  1.0000
  H   H1099     1.0  0.14666  0.61799  0.77541  1.0000
  H   H1100     1.0  0.14256  0.60913  0.81013  1.0000
  H   H1101     1.0  0.13528  0.57733  0.82576  1.0000
  H   H1102     1.0  0.13210  0.55456  0.80691  1.0000
  S   S208      1.0  0.08966  0.49403  0.66618  1.0000
  H   H1103     1.0  0.24679  0.49042  0.83438  1.0000
  C   C1373     1.0  0.41608  0.67338  0.89738  1.0000
  H   H1104     1.0  0.20802  0.55405  0.65955  1.0000
  C   C1374     1.0  0.10603  0.49696  0.72240  1.0000
  C   C1375     1.0  0.48835  0.66210  0.91184  1.0000
  H   H1105     1.0  0.40896  0.49550  0.81653  1.0000
  C   C1376     1.0  0.45132  0.71090  0.92892  1.0000
  H   H1106     1.0  0.00776  0.59384  0.68268  1.0000
  C   C1377     1.0  0.32479  0.70575  0.88334  1.0000
  H   H1107     1.0  0.32417  0.48318  0.94072  1.0000
  C   C1378     1.0  0.26838  0.52312  0.91094  1.0000
  H   H1108     1.0  0.99471  0.50640  0.64101  1.0000
  C   C1379     1.0  0.00338  0.60782  0.67488  1.0000
  C   C1380     1.0  0.02781  0.51638  0.73115  1.0000
  H   H1109     1.0  0.32571  0.57434  0.90474  1.0000
  H   H1110     1.0  0.35531  0.57041  0.88191  1.0000
  C   C1381     1.0  0.28258  0.60937  0.87803  1.0000
  C   C1382     1.0  0.01796  0.70813  0.66206  1.0000
  H   H1111     1.0  0.11246  0.68774  0.72702  1.0000
  C   C1383     1.0  0.46436  0.68454  0.89639  1.0000
  C   C1384     1.0  0.02767  0.54940  0.73132  1.0000
  C   C1385     1.0  0.01430  0.69128  0.67393  1.0000
  C   C1386     1.0  0.17829  0.55868  0.65647  1.0000
  H   H1112     1.0  0.42559  0.48219  0.93448  1.0000
  H   H1113     1.0  0.26271  0.57664  0.64945  1.0000
  H   H1114     1.0  0.34939  0.52273  0.92718  1.0000
  H   H1115     1.0  0.06536  0.72364  0.66880  1.0000
  H   H1116     1.0  0.45504  0.61510  0.95832  1.0000
  C   C1387     1.0  0.34255  0.70962  0.87343  1.0000
  H   H1117     1.0  0.38357  0.52075  0.91390  1.0000
  H   H1118     1.0  0.33752  0.51889  0.87378  1.0000
  Fe  Fe105     1.0  0.06645  0.51573  0.65434  1.0000
  C   C1388     1.0  0.41851  0.54656  0.84550  1.0000
  H   H1119     1.0  0.28124  0.63565  0.85841  1.0000
  H   H1120     1.0  0.13848  0.50096  0.64986  1.0000
  H   H1121     1.0  0.24793  0.58191  0.89000  1.0000
  C   C1389     1.0  0.12779  0.49807  0.74288  1.0000
  C   C1390     1.0  0.32539  0.57004  0.89170  1.0000
  C   C1391     1.0  0.29669  0.56776  0.93699  1.0000
  H   H1122     1.0  0.45453  0.69793  0.89491  1.0000
  P   P44       1.0  0.47430  0.69534  0.92664  1.0000
  S   S209      1.0  0.05005  0.49448  0.65085  1.0000
  H   H1123     1.0  0.33063  0.70594  0.92756  1.0000
  H   H1124     1.0  0.28322  0.61221  0.91304  1.0000
  P   P45       1.0  0.40545  0.51908  0.87548  1.0000
  H   H1125     1.0  0.40252  0.72661  0.83402  1.0000
  S   S210      1.0  0.31693  0.51254  0.82412  1.0000
  P   P46       1.0  0.37072  0.71355  0.91466  1.0000
  C   C1392     1.0  0.12752  0.50709  0.80151  1.0000
  H   H1126     1.0  0.39862  0.51897  0.83754  1.0000
  H   H1127     1.0  0.30440  0.49957  0.91663  1.0000
  H   H1128     1.0  0.17943  0.57121  0.64576  1.0000
  H   H1129     1.0  0.11644  0.50206  0.81262  1.0000
  H   H1130     1.0  0.00151  0.66660  0.67807  1.0000
  H   H1131     1.0  0.29670  0.60989  0.88041  1.0000
  S   S211      1.0  0.06692  0.60188  0.69849  1.0000
  C   C1393     1.0  0.01719  0.61840  0.66453  1.0000
  H   H1132     1.0  0.42007  0.66527  0.94358  1.0000
  H   H1133     1.0  0.15240  0.65576  0.67236  1.0000
  C   C1394     1.0  0.30818  0.56795  0.88727  1.0000
  H   H1134     1.0  0.29516  0.56182  0.86590  1.0000
  C   C1395     1.0  0.43204  0.52569  0.89486  1.0000
  H   H1135     1.0  0.37143  0.51830  0.85974  1.0000
  H   H1136     1.0  0.46070  0.66106  0.94843  1.0000
  H   H1137     1.0  0.16902  0.68202  0.71152  1.0000
  H   H1138     1.0  0.07914  0.54040  0.74892  1.0000
  C   C1396     1.0  0.12174  0.49447  0.70774  1.0000
  C   C1397     1.0  0.27238  0.55536  0.91032  1.0000
  C   C1398     1.0  0.44838  0.72794  0.91614  1.0000
  S   S212      1.0  0.11433  0.60284  0.71450  1.0000
  H   H1139     1.0  0.24995  0.63428  0.85103  1.0000
  H   H1140     1.0  0.31963  0.60337  0.65887  1.0000
  C   C1399     1.0  0.37387  0.52022  0.90487  1.0000
  Fe  Fe106     1.0  0.19565  0.48294  0.71892  1.0000
  H   H1141     1.0  0.11585  0.53549  0.65886  1.0000
  P   P47       1.0  0.18225  0.66136  0.63924  1.0000
  C   C1400     1.0  0.39559  0.55831  0.87124  1.0000
  H   H1142     1.0  0.14784  0.66328  0.70413  1.0000
  C   C1401     1.0  0.23372  0.51739  0.79421  1.0000
  C   C1402     1.0  0.24281  0.52095  0.82808  1.0000
  C   C1403     1.0  0.23819  0.53733  0.81490  1.0000
  C   C1404     1.0  0.23409  0.53530  0.79775  1.0000
  P   P48       1.0  0.23952  0.56049  0.81905  1.0000
  C   C1405     1.0  0.23068  0.56180  0.84363  1.0000
  C   C1406     1.0  0.26422  0.56365  0.81366  1.0000
  C   C1407     1.0  0.27768  0.55327  0.80127  1.0000
  C   C1408     1.0  0.29685  0.55552  0.79747  1.0000
  C   C1409     1.0  0.30272  0.56811  0.80597  1.0000
  C   C1410     1.0  0.28940  0.57851  0.81831  1.0000
  C   C1411     1.0  0.27018  0.57644  0.82202  1.0000
  C   C1412     1.0  0.21220  0.57150  0.84964  1.0000
  C   C1413     1.0  0.20558  0.57230  0.86873  1.0000
  C   C1414     1.0  0.21730  0.56338  0.88196  1.0000
  H   H1143     1.0  0.09725  0.50080  0.75125  1.0000
  C   C1415     1.0  0.24245  0.55312  0.85702  1.0000
  C   C1416     1.0  0.22528  0.57891  0.80471  1.0000
  C   C1417     1.0  0.23204  0.59574  0.79576  1.0000
  C   C1418     1.0  0.22117  0.60964  0.78429  1.0000
  C   C1419     1.0  0.20352  0.60692  0.78164  1.0000
  C   C1420     1.0  0.19659  0.59032  0.79062  1.0000
  C   C1421     1.0  0.20732  0.57644  0.80225  1.0000
  H   H1144     1.0  0.23082  0.51592  0.78084  1.0000
  H   H1145     1.0  0.24701  0.52182  0.84099  1.0000
  H   H1146     1.0  0.23150  0.54748  0.78694  1.0000
  H   H1147     1.0  0.27351  0.54338  0.79453  1.0000
  C   C1422     1.0  0.01164  0.63683  0.65520  1.0000
  H   H1148     1.0  0.31752  0.57004  0.80279  1.0000
  H   H1149     1.0  0.29390  0.58852  0.82467  1.0000
  H   H1150     1.0  0.25998  0.58497  0.83126  1.0000
  H   H1151     1.0  0.20286  0.57852  0.83969  1.0000
  H   H1152     1.0  0.19132  0.57982  0.87325  1.0000
  C   C1423     1.0  0.11879  0.70791  0.70167  1.0000
  C   C1424     1.0  0.30835  0.56300  0.86987  1.0000
  H   H1153     1.0  0.25687  0.54575  0.85274  1.0000
  H   H1154     1.0  0.24586  0.59812  0.79719  1.0000
  H   H1155     1.0  0.22666  0.62242  0.77713  1.0000
  H   H1156     1.0  0.19530  0.61765  0.77250  1.0000
  H   H1157     1.0  0.18297  0.58819  0.78840  1.0000
  H   H1158     1.0  0.20172  0.56367  0.80915  1.0000
  H   H1159     1.0  0.21925  0.58404  0.65003  1.0000
  H   H1160     1.0  0.02568  0.71721  0.66632  1.0000
  C   C1425     1.0  0.20125  0.60651  0.66343  1.0000
  C   C1426     1.0  0.24268  0.50302  0.82441  1.0000
  C   C1427     1.0  0.06594  0.69479  0.66638  1.0000
  C   C1428     1.0  0.46635  0.67261  0.88334  1.0000
  H   H1161     1.0  0.03226  0.61249  0.66416  1.0000
  H   H1162     1.0  0.40914  0.72216  0.89611  1.0000
  S   S213      1.0  0.22083  0.49507  0.72161  1.0000
  C   C1429     1.0  0.18853  0.68096  0.66548  1.0000
  C   C1430     1.0  0.23054  0.71338  0.65904  1.0000
  H   H1163     1.0  0.00078  0.56810  0.73045  1.0000
  H   H1164     1.0  0.34488  0.61699  0.95725  1.0000
  H   H1165     1.0  0.30714  0.54733  0.78801  1.0000
  Fe  Fe107     1.0  0.06100  0.65567  0.69553  1.0000
  H   H1166     1.0  0.01911  0.68737  0.68738  1.0000
  H   H1167     1.0  0.32623  0.52245  0.90709  1.0000
  H   H1168     1.0  0.42692  0.56794  0.82195  1.0000
  H   H1169     1.0  0.21970  0.72220  0.66747  1.0000
  C   C1431     1.0  0.27890  0.53783  0.90417  1.0000
  C   C1432     1.0  0.41436  0.67139  0.93076  1.0000
  C   C1433     1.0  0.25545  0.55774  0.92361  1.0000
  C   C1434     1.0  0.33914  0.62471  0.94495  1.0000
  C   C1435     1.0  0.17083  0.67916  0.69737  1.0000
  C   C1436     1.0  0.35335  0.70224  0.95171  1.0000
  C   C1437     1.0  0.39968  0.68740  0.89777  1.0000
  C   C1438     1.0  0.19443  0.54916  0.66427  1.0000
  C   C1439     1.0  0.40794  0.50584  0.84197  1.0000
  C   C1440     1.0  0.00451  0.67941  0.66849  1.0000
  C   C1441     1.0  0.43976  0.50628  0.92409  1.0000
  C   C1442     1.0  0.09939  0.56106  0.70190  1.0000
  C   C1443     1.0  0.09104  0.54592  0.70088  1.0000
  C   C1444     1.0  0.09690  0.53693  0.68521  1.0000
  C   C1445     1.0  0.11106  0.54308  0.67052  1.0000
  C   C1446     1.0  0.11919  0.55860  0.67129  1.0000
  C   C1447     1.0  0.11337  0.56737  0.68719  1.0000
  H   H1170     1.0  0.31696  0.48258  0.74998  1.0000
  C   C1448     1.0  0.00816  0.52049  0.73065  1.0000
  S   S214      1.0  0.37493  0.48923  0.95536  1.0000
  S   S215      1.0  0.34239  0.53691  0.96350  1.0000
  C   C1449     1.0  0.28994  0.58179  0.92261  1.0000
  C   C1450     1.0  0.14413  0.49451  0.79585  1.0000
  H   H1171     1.0  0.30761  0.56199  0.96285  1.0000
  C   C1451     1.0  0.14699  0.59793  0.66263  1.0000
  C   C1452     1.0  0.28810  0.60099  0.92390  1.0000
  H   H1172     1.0  0.33972  0.57606  0.96596  1.0000
  S   S216      1.0  0.00178  0.50200  0.68519  1.0000
  H   H1173     1.0  0.35260  0.68919  0.94741  1.0000
  H   H1174     1.0  0.31426  0.70375  0.87583  1.0000
  C   C1453     1.0  0.16074  0.55218  0.66276  1.0000
  C   C1454     1.0  0.15977  0.53576  0.67652  1.0000
  C   C1455     1.0  0.17579  0.52661  0.68449  1.0000
  C   C1456     1.0  0.19308  0.53327  0.67841  1.0000
  H   H1175     1.0  0.26741  0.51196  0.75976  1.0000
  C   C1457     1.0  0.18441  0.50245  0.63735  1.0000
  H   H1176     1.0  0.09515  0.56802  0.71406  1.0000
  H   H1177     1.0  0.08022  0.54095  0.71229  1.0000
  H   H1178     1.0  0.09060  0.52501  0.68467  1.0000
  C   C1458     1.0  0.47533  0.67933  0.91078  1.0000
  H   H1179     1.0  0.11983  0.57892  0.68845  1.0000
  S   S217      1.0  0.20437  0.48255  0.68806  1.0000
  C   C1459     1.0  0.14059  0.49340  0.71088  1.0000
  S   S218      1.0  0.01568  0.60857  0.72613  1.0000
  C   C1460     1.0  0.12383  0.60290  0.64202  1.0000
  H   H1180     1.0  0.15654  0.58875  0.67145  1.0000
  C   C1461     1.0  0.06963  0.59766  0.63951  1.0000
  C   C1462     1.0  0.30191  0.57286  0.95213  1.0000
  C   C1463     1.0  0.44730  0.61328  0.94797  1.0000
  C   C1464     1.0  0.24505  0.54293  0.93044  1.0000
  C   C1465     1.0  0.10927  0.68251  0.68323  1.0000
  H   H1181     1.0  0.14657  0.53027  0.68176  1.0000
  H   H1182     1.0  0.17465  0.51458  0.69577  1.0000
  H   H1183     1.0  0.20536  0.52611  0.68482  1.0000
  H   H1184     1.0  0.37977  0.49751  0.76936  1.0000
  C   C1466     1.0  0.47792  0.68154  0.94942  1.0000
  C   C1467     1.0  0.44313  0.62348  0.85203  1.0000
  C   C1468     1.0  0.44955  0.60616  0.84570  1.0000
  C   C1469     1.0  0.44494  0.58945  0.85729  1.0000
  C   C1470     1.0  0.43366  0.59006  0.87512  1.0000
  C   C1471     1.0  0.42693  0.60745  0.88146  1.0000
  C   C1472     1.0  0.43199  0.62411  0.86989  1.0000
  P   P49       1.0  0.41220  0.60858  0.90434  1.0000
  C   C1473     1.0  0.40065  0.58805  0.91218  1.0000
  C   C1474     1.0  0.42648  0.60956  0.92132  1.0000
  C   C1475     1.0  0.41952  0.60486  0.94066  1.0000
  Fe  Fe108     1.0  0.44664  0.72812  0.84064  1.0000
  H   H1185     1.0  0.30578  0.59580  0.96417  1.0000
  C   C1476     1.0  0.45457  0.61756  0.92878  1.0000
  C   C1477     1.0  0.44422  0.61571  0.91547  1.0000
  C   C1478     1.0  0.38195  0.58886  0.90932  1.0000
  C   C1479     1.0  0.37276  0.57323  0.91629  1.0000
  C   C1480     1.0  0.38220  0.55665  0.92595  1.0000
  C   C1481     1.0  0.40096  0.55552  0.92850  1.0000
  C   C1482     1.0  0.41020  0.57115  0.92162  1.0000
  C   C1483     1.0  0.39384  0.62951  0.90254  1.0000
  C   C1484     1.0  0.38657  0.63895  0.91791  1.0000
  C   C1485     1.0  0.37187  0.65467  0.91672  1.0000
  C   C1486     1.0  0.36436  0.66110  0.90017  1.0000
  C   C1487     1.0  0.37149  0.65191  0.88479  1.0000
  C   C1488     1.0  0.38613  0.63609  0.88594  1.0000
  H   H1186     1.0  0.44658  0.63648  0.84300  1.0000
  H   H1187     1.0  0.30056  0.70416  0.65133  1.0000
  H   H1188     1.0  0.44982  0.57606  0.85230  1.0000
  H   H1189     1.0  0.42999  0.57702  0.88373  1.0000
  H   H1190     1.0  0.42707  0.63765  0.87457  1.0000
  H   H1191     1.0  0.40582  0.60016  0.94561  1.0000
  C   C1489     1.0  0.23571  0.55378  0.87608  1.0000
  C   C1490     1.0  0.14346  0.61736  0.66298  1.0000
  C   C1491     1.0  0.38958  0.48407  0.76987  1.0000
  H   H1192     1.0  0.44994  0.61950  0.90070  1.0000
  H   H1193     1.0  0.37415  0.60165  0.90214  1.0000
  H   H1194     1.0  0.29862  0.55287  0.93617  1.0000
  H   H1195     1.0  0.37474  0.54487  0.93194  1.0000
  H   H1196     1.0  0.40806  0.54273  0.93636  1.0000
  H   H1197     1.0  0.42459  0.57020  0.92407  1.0000
  H   H1198     1.0  0.39199  0.63419  0.93091  1.0000
  H   H1199     1.0  0.36604  0.66164  0.92877  1.0000
  H   H1200     1.0  0.35256  0.67283  0.89940  1.0000
  H   H1201     1.0  0.36533  0.65694  0.87212  1.0000
  H   H1202     1.0  0.39113  0.62886  0.87400  1.0000
  C   C1492     1.0  0.27323  0.59419  0.88730  1.0000
  H   H1203     1.0  0.11384  0.70297  0.65824  1.0000
  S   S219      1.0  0.33159  0.65603  0.96223  1.0000
  H   H1204     1.0  0.26178  0.54408  0.64631  1.0000
  C   C1493     1.0  0.15890  0.66857  0.69321  1.0000
  C   C1494     1.0  0.41745  0.49789  0.90839  1.0000
  H   H1205     1.0  0.37254  0.72060  0.82695  1.0000
  C   C1495     1.0  0.41953  0.51374  0.89408  1.0000
  H   H1206     1.0  0.29211  0.53527  0.89428  1.0000
  C   C1496     1.0  0.23802  0.50125  0.80753  1.0000
  C   C1497     1.0  0.29452  0.71849  0.64549  1.0000
  C   C1498     1.0  0.33443  0.70682  0.91253  1.0000
  C   C1499     1.0  0.33914  0.61535  0.93020  1.0000
  C   C1500     1.0  0.35636  0.71193  0.88299  1.0000
  C   C1501     1.0  0.39813  0.68562  0.93116  1.0000
  S   S220      1.0  0.04897  0.52008  0.68249  1.0000
  Fe  Fe109     1.0  0.07106  0.49649  0.69417  1.0000
  H   H1207     1.0  0.30678  0.70176  0.91051  1.0000
  C   C1502     1.0  0.27395  0.62392  0.86539  1.0000
  H   H1208     1.0  0.35807  0.57418  0.91463  1.0000
  C   C1503     1.0  0.39055  0.69376  0.91465  1.0000
  S   S221      1.0  0.07008  0.62062  0.64273  1.0000
  H   H1209     1.0  0.15269  0.49128  0.69966  1.0000
  C   C1504     1.0  0.15823  0.50090  0.78126  1.0000
  C   C1505     1.0  0.34134  0.52112  0.90126  1.0000
  H   H1210     1.0  0.19455  0.69400  0.68662  1.0000
  H   H1211     1.0  0.32550  0.55621  0.84387  1.0000
  C   C1506     1.0  0.32553  0.56006  0.85720  1.0000
  C   C1507     1.0  0.19329  0.63657  0.64284  1.0000
  C   C1508     1.0  0.12033  0.62234  0.64242  1.0000
  C   C1509     1.0  0.39545  0.57690  0.86155  1.0000
  C   C1510     1.0  0.16165  0.66422  0.67520  1.0000
  H   H1212     1.0  0.39195  0.69039  0.94439  1.0000
  H   H1213     1.0  0.27340  0.50968  0.90599  1.0000
  H   H1214     1.0  0.99757  0.56094  0.69607  1.0000
  C   C1511     1.0  0.18532  0.68575  0.68338  1.0000
  C   C1512     1.0  0.25527  0.59360  0.88338  1.0000
  C   C1513     1.0  0.40669  0.54298  0.86310  1.0000
  Fe  Fe110     1.0  0.31780  0.48892  0.84909  1.0000
  C   C1514     1.0  0.24684  0.60802  0.87036  1.0000
  C   C1515     1.0  0.35440  0.52144  0.91252  1.0000
  C   C1516     1.0  0.43623  0.70622  0.94344  1.0000
  C   C1517     1.0  0.03751  0.53079  0.73162  1.0000
  H   H1215     1.0  0.35584  0.56086  0.85162  1.0000
  H   H1216     1.0  0.43398  0.53797  0.88405  1.0000
  H   H1217     1.0  0.37398  0.48372  0.86661  1.0000
  C   C1518     1.0  0.13009  0.62955  0.65293  1.0000
  H   H1218     1.0  0.14752  0.69008  0.64132  1.0000
  H   H1219     1.0  0.42329  0.66912  0.88413  1.0000
  C   C1519     1.0  0.42747  0.49426  0.92334  1.0000
  C   C1520     1.0  0.11334  0.69093  0.71189  1.0000
  C   C1521     1.0  0.99337  0.62151  0.72076  1.0000
  H   H1220     1.0  0.40953  0.49348  0.78206  1.0000
  H   H1221     1.0  0.24624  0.72709  0.73941  1.0000
  C   C1522     1.0  0.19217  0.62547  0.66094  1.0000
  C   C1523     1.0  0.25621  0.62317  0.86135  1.0000
  H   H1222     1.0  0.43792  0.69315  0.95342  1.0000
  H   H1223     1.0  0.15043  0.62282  0.67175  1.0000
  H   H1224     1.0  0.24353  0.51409  0.92941  1.0000
  C   C1524     1.0  0.00888  0.52953  0.63947  1.0000
  H   H1225     1.0  0.38681  0.55584  0.88498  1.0000
  Fe  Fe111     1.0  0.03421  0.49682  0.68000  1.0000
  C   C1525     1.0  0.35259  0.71023  0.90271  1.0000
  C   C1526     1.0  0.11983  0.71215  0.68205  1.0000
  C   C1527     1.0  0.30068  0.59193  0.95298  1.0000
  C   C1528     1.0  0.07482  0.71925  0.64005  1.0000
  H   H1226     1.0  0.39464  0.69360  0.88470  1.0000
  C   C1529     1.0  0.23595  0.72000  0.63976  1.0000
  H   H1227     1.0  0.10386  0.66531  0.71059  1.0000
  H   H1228     1.0  0.46806  0.62264  0.92423  1.0000
  H   H1229     1.0  0.10480  0.67308  0.67619  1.0000
  C   C1530     1.0  0.27955  0.48814  0.77870  1.0000
  C   C1531     1.0  0.11461  0.69947  0.67302  1.0000
  H   H1230     1.0  0.45800  0.60574  0.83175  1.0000
  C   C1532     1.0  0.14359  0.49519  0.72857  1.0000
  H   H1231     1.0  0.34563  0.71082  0.85826  1.0000
  H   H1232     1.0  0.40727  0.71518  0.95691  1.0000
  C   C1533     1.0  0.10856  0.67825  0.70267  1.0000
  H   H1233     1.0  0.45162  0.53127  0.91044  1.0000
  H   H1234     1.0  0.23851  0.48732  0.80443  1.0000
  C   C1534     1.0  0.21162  0.59849  0.64795  1.0000
  H   H1235     1.0  0.20043  0.68556  0.65521  1.0000
  C   C1535     1.0  0.42987  0.60679  0.95389  1.0000
  C   C1536     1.0  0.13728  0.59050  0.65205  1.0000
  C   C1537     1.0  0.99077  0.64113  0.71446  1.0000
  H   H1236     1.0  0.36986  0.71528  0.87483  1.0000
  C   C1538     1.0  0.44210  0.52194  0.90982  1.0000
  H   H1237     1.0  0.02262  0.64495  0.64763  1.0000
  H   H1238     1.0  0.00255  0.64859  0.71273  1.0000
  C   C1539     1.0  0.32066  0.70456  0.90285  1.0000
  Fe  Fe112     1.0  0.31011  0.49132  0.80949  1.0000
  C   C1540     1.0  0.22126  0.48213  0.64022  1.0000
  C   C1541     1.0  0.00202  0.70131  0.63921  1.0000
  H   H1239     1.0  0.23996  0.71621  0.71205  1.0000
  C   C1542     1.0  0.99852  0.68417  0.65097  1.0000
  C   C1543     1.0  0.47919  0.65544  0.88456  1.0000
  C   C1544     1.0  0.48821  0.68728  0.96071  1.0000
  H   H1240     1.0  0.28725  0.72769  0.67215  1.0000
  H   H1241     1.0  0.00106  0.50920  0.72981  1.0000
  C   C1545     1.0  0.26163  0.48585  0.75495  1.0000
  C   C1546     1.0  0.99805  0.53908  0.73088  1.0000
  H   H1242     1.0  0.12165  0.71791  0.70916  1.0000
  C   C1547     1.0  0.01169  0.71323  0.64478  1.0000
  H   H1243     1.0  0.15510  0.71754  0.69073  1.0000
  H   H1244     1.0  0.99291  0.57199  0.66330  1.0000
  H   H1245     1.0  0.43109  0.48151  0.87783  1.0000
  H   H1246     1.0  0.48221  0.72919  0.93662  1.0000
  C   C1548     1.0  0.18789  0.48261  0.63908  1.0000
  H   H1247     1.0  0.22919  0.50925  0.63830  1.0000
  C   C1549     1.0  0.21772  0.50186  0.63835  1.0000
  C   C1550     1.0  0.24628  0.72883  0.70995  1.0000
  C   C1551     1.0  0.99213  0.64481  0.65603  1.0000
  H   H1248     1.0  0.42415  0.60356  0.96878  1.0000
  C   C1552     1.0  0.35825  0.54884  0.96927  1.0000
  C   C1553     1.0  0.25882  0.69101  0.63716  1.0000
  H   H1249     1.0  0.14596  0.47974  0.80250  1.0000
  C   C1554     1.0  0.35322  0.56827  0.96963  1.0000
  C   C1555     1.0  0.19932  0.51199  0.63693  1.0000
  Fe  Fe113     1.0  0.46042  0.77600  0.00685  1.0000
  Fe  Fe114     1.0  0.48317  0.76444  0.15978  1.0000
  S   S222      1.0  0.45878  0.80024  0.02196  1.0000
  H   H1250     1.0  0.19206  0.75616  0.27222  1.0000
  H   H1251     1.0  0.21503  0.79308  0.21255  1.0000
  H   H1252     1.0  0.32307  0.86120  0.19195  1.0000
  C   C1556     1.0  0.22922  0.78538  0.26175  1.0000
  C   C1557     1.0  0.42216  0.84489  0.15489  1.0000
  C   C1558     1.0  0.39854  0.80508  0.22032  1.0000
  C   C1559     1.0  0.46760  0.97745  0.27283  1.0000
  H   H1253     1.0  0.30349  0.73751  0.27969  1.0000
  Fe  Fe115     1.0  0.44381  0.91524  0.27658  1.0000
  Fe  Fe116     1.0  0.44075  0.76439  0.17216  1.0000
  S   S223      1.0  0.43362  0.79552  0.16081  1.0000
  S   S224      1.0  0.41381  0.75158  0.18408  1.0000
  C   C1560     1.0  0.22493  0.80375  0.25171  1.0000
  C   C1561     1.0  0.21905  0.79094  0.22626  1.0000
  Fe  Fe117     1.0  0.45794  0.79924  0.17327  1.0000
  S   S225      1.0  0.46188  0.82557  0.18287  1.0000
  Fe  Fe118     1.0  0.45492  0.78894  0.13526  1.0000
  S   S226      1.0  0.44560  0.80635  0.10848  1.0000
  H   H1254     1.0  0.25938  0.75718  0.28601  1.0000
  S   S227      1.0  0.46101  0.75763  0.14588  1.0000
  C   C1562     1.0  0.40347  0.86668  0.12606  1.0000
  S   S228      1.0  0.40987  0.74291  0.99882  1.0000
  H   H1255     1.0  0.46459  0.81317  0.98112  1.0000
  Fe  Fe119     1.0  0.44658  0.87376  0.27219  1.0000
  S   S229      1.0  0.43456  0.85205  0.26229  1.0000
  C   C1563     1.0  0.41358  0.74176  0.10334  1.0000
  S   S230      1.0  0.47876  0.79503  0.14668  1.0000
  H   H1256     1.0  0.41831  0.76051  0.07651  1.0000
  C   C1564     1.0  0.45561  0.83133  0.20572  1.0000
  C   C1565     1.0  0.44300  0.82209  0.21988  1.0000
  C   C1566     1.0  0.43699  0.82833  0.23732  1.0000
  C   C1567     1.0  0.44396  0.84348  0.24090  1.0000
  C   C1568     1.0  0.45745  0.85198  0.22710  1.0000
  C   C1569     1.0  0.46302  0.84610  0.20948  1.0000
  H   H1257     1.0  0.43759  0.81045  0.21720  1.0000
  H   H1258     1.0  0.42670  0.82156  0.24802  1.0000
  H   H1259     1.0  0.46299  0.86357  0.22972  1.0000
  H   H1260     1.0  0.42943  0.83618  0.16592  1.0000
  S   S231      1.0  0.45503  0.74651  0.01898  1.0000
  H   H1261     1.0  0.22249  0.76062  0.23011  1.0000
  S   S232      1.0  0.42886  0.94561  0.26952  1.0000
  C   C1570     1.0  0.40854  0.74091  0.12293  1.0000
  H   H1262     1.0  0.42744  0.85384  0.10721  1.0000
  C   C1571     1.0  0.41219  0.77577  0.09950  1.0000
  S   S233      1.0  0.46342  0.76861  0.18708  1.0000
  H   H1263     1.0  0.40222  0.79973  0.23417  1.0000
  H   H1264     1.0  0.34826  0.76023  0.19721  1.0000
  Fe  Fe120     1.0  0.48166  0.88824  0.27579  1.0000
  C   C1572     1.0  0.34641  0.74555  0.20135  1.0000
  C   C1573     1.0  0.44120  0.96450  0.26764  1.0000
  C   C1574     1.0  0.36537  0.88837  0.18380  1.0000
  S   S234      1.0  0.46818  0.86320  0.29146  1.0000
  C   C1575     1.0  0.21989  0.80653  0.23397  1.0000
  H   H1265     1.0  0.45846  0.77238  0.08966  1.0000
  C   C1576     1.0  0.35369  0.85879  0.18852  1.0000
  H   H1266     1.0  0.35610  0.84352  0.18989  1.0000
  H   H1267     1.0  0.37705  0.89616  0.18142  1.0000
  C   C1577     1.0  0.43050  0.84415  0.13614  1.0000
  H   H1268     1.0  0.46259  0.94885  0.28400  1.0000
  C   C1578     1.0  0.42436  0.88670  0.21383  1.0000
  H   H1269     1.0  0.38292  0.96109  0.28931  1.0000
  C   C1579     1.0  0.44964  0.80276  0.08491  1.0000
  C   C1580     1.0  0.44610  0.81893  0.07136  1.0000
  C   C1581     1.0  0.44894  0.81762  0.05234  1.0000
  C   C1582     1.0  0.45490  0.80005  0.04647  1.0000
  C   C1583     1.0  0.45818  0.78358  0.05997  1.0000
  C   C1584     1.0  0.45571  0.78495  0.07925  1.0000
  H   H1270     1.0  0.44134  0.83269  0.07555  1.0000
  H   H1271     1.0  0.44642  0.83038  0.04207  1.0000
  H   H1272     1.0  0.48919  0.89437  0.21878  1.0000
  H   H1273     1.0  0.38211  0.73815  0.17705  1.0000
  H   H1274     1.0  0.31673  0.89626  0.18889  1.0000
  H   H1275     1.0  0.21654  0.82077  0.22622  1.0000
  C   C1585     1.0  0.39104  0.79946  0.19183  1.0000
  H   H1276     1.0  0.40708  0.78722  0.12502  1.0000
  C   C1586     1.0  0.40625  0.75727  0.13070  1.0000
  H   H1277     1.0  0.38752  0.82358  0.16990  1.0000
  C   C1587     1.0  0.41481  0.75943  0.09167  1.0000
  C   C1588     1.0  0.19596  0.74251  0.26767  1.0000
  H   H1278     1.0  0.48022  0.93536  0.24894  1.0000
  C   C1589     1.0  0.39375  0.83130  0.19445  1.0000
  H   H1279     1.0  0.40085  0.83355  0.22090  1.0000
  H   H1280     1.0  0.44409  0.83488  0.13281  1.0000
  C   C1590     1.0  0.34655  0.89831  0.18501  1.0000
  H   H1281     1.0  0.38902  0.78968  0.18355  1.0000
  H   H1282     1.0  0.41369  0.78928  0.09044  1.0000
  C   C1591     1.0  0.39781  0.87159  0.21368  1.0000
  C   C1592     1.0  0.33488  0.86879  0.18969  1.0000
  H   H1283     1.0  0.48760  0.79499  0.10427  1.0000
  H   H1284     1.0  0.33315  0.74588  0.17775  1.0000
  H   H1285     1.0  0.48199  0.79607  0.25886  1.0000
  C   C1593     1.0  0.48945  0.80132  0.22867  1.0000
  S   S235      1.0  0.42690  0.89237  0.29157  1.0000
  C   C1594     1.0  0.33131  0.88853  0.18796  1.0000
  C   C1595     1.0  0.23337  0.74542  0.29136  1.0000
  Fe  Fe121     1.0  0.48098  0.73760  0.99787  1.0000
  S   S236      1.0  0.48756  0.76693  0.98742  1.0000
  C   C1596     1.0  0.39031  0.81868  0.18412  1.0000
  C   C1597     1.0  0.39774  0.82436  0.21269  1.0000
  C   C1598     1.0  0.42348  0.87335  0.18673  1.0000
  C   C1599     1.0  0.22861  0.76960  0.25402  1.0000
  H   H1286     1.0  0.35969  0.74100  0.22562  1.0000
  C   C1600     1.0  0.40601  0.86757  0.19562  1.0000
  H   H1287     1.0  0.16661  0.74016  0.26854  1.0000
  H   H1288     1.0  0.23282  0.78370  0.27552  1.0000
  H   H1289     1.0  0.45185  0.73933  0.08862  1.0000
  S   S237      1.0  0.46120  0.89761  0.25523  1.0000
  H   H1290     1.0  0.22545  0.81586  0.25773  1.0000
  H   H1291     1.0  0.47289  0.85322  0.19861  1.0000
  C   C1601     1.0  0.39533  0.79262  0.20984  1.0000
  H   H1292     1.0  0.48064  0.97541  0.27846  1.0000
  P   P50       1.0  0.23371  0.74567  0.26676  1.0000
  C   C1602     1.0  0.40709  0.88088  0.22283  1.0000
  C   C1603     1.0  0.43250  0.88302  0.19576  1.0000
  H   H1293     1.0  0.34381  0.91362  0.18366  1.0000
  H   H1294     1.0  0.46293  0.76998  0.05548  1.0000
  H   H1295     1.0  0.38905  0.73313  0.03568  1.0000
  P   P51       1.0  0.39350  0.85597  0.18387  1.0000
  C   C1604     1.0  0.45751  0.96230  0.27577  1.0000
  Fe  Fe122     1.0  0.43920  0.75033  0.99498  1.0000
  C   C1605     1.0  0.42110  0.85490  0.12171  1.0000
  S   S238      1.0  0.46521  0.90750  0.29586  1.0000
  S   S239      1.0  0.46476  0.73873  0.97486  1.0000
  C   C1606     1.0  0.25706  0.73359  0.25721  1.0000
  H   H1296     1.0  0.39620  0.87495  0.11483  1.0000
  C   C1607     1.0  0.40832  0.77464  0.11900  1.0000
  C   C1608     1.0  0.40439  0.85645  0.15943  1.0000
  H   H1297     1.0  0.48948  0.80747  0.07018  1.0000
  C   C1609     1.0  0.22332  0.77256  0.23626  1.0000
  H   H1298     1.0  0.48991  0.96210  0.22453  1.0000
  S   S240      1.0  0.44242  0.78070  0.98437  1.0000
  C   C1610     1.0  0.36908  0.86852  0.18562  1.0000
  H   H1299     1.0  0.43038  0.87026  0.17297  1.0000
  H   H1300     1.0  0.44620  0.88701  0.18904  1.0000
  H   H1301     1.0  0.43174  0.89349  0.22114  1.0000
  C   C1611     1.0  0.39512  0.86751  0.14486  1.0000
  H   H1302     1.0  0.39660  0.77757  0.21544  1.0000
  H   H1303     1.0  0.40116  0.88321  0.23708  1.0000
  H   H1304     1.0  0.38438  0.86724  0.22085  1.0000
  H   H1305     1.0  0.38137  0.87652  0.14789  1.0000
  H   H1306     1.0  0.25874  0.75081  0.22933  1.0000
  H   H1307     1.0  0.20829  0.73199  0.30205  1.0000
  C   C1612     1.0  0.24790  0.75213  0.29658  1.0000
  H   H1308     1.0  0.40311  0.75647  0.14582  1.0000
  H   H1309     1.0  0.41498  0.73251  0.05261  1.0000
  H   H1310     1.0  0.47976  0.79281  0.22665  1.0000
  H   H1311     1.0  0.35181  0.95013  0.30212  1.0000
  C   C1613     1.0  0.33795  0.73748  0.19037  1.0000
  H   H1312     1.0  0.32825  0.73295  0.25176  1.0000
  C   C1614     1.0  0.04878  0.73336  0.29183  1.0000
  C   C1615     1.0  0.21528  0.73378  0.26415  1.0000
  H   H1313     1.0  0.29016  0.73327  0.21669  1.0000
  C   C1616     1.0  0.26575  0.73915  0.23849  1.0000
  H   H1314     1.0  0.48284  0.73706  0.06716  1.0000
  C   C1617     1.0  0.18153  0.73357  0.26554  1.0000
  C   C1618     1.0  0.45494  0.72979  0.07858  1.0000
  H   H1315     1.0  0.06367  0.73483  0.28981  1.0000
  C   C1619     1.0  0.35300  0.73455  0.21738  1.0000
  C   C1620     1.0  0.37524  0.96340  0.30318  1.0000
  Fe  Fe123     1.0  0.08454  0.78266  0.59102  1.0000
  C   C1621     1.0  0.30494  0.96707  0.57459  1.0000
  S   S241      1.0  0.09769  0.80100  0.60380  1.0000
  C   C1622     1.0  0.00416  0.75358  0.58882  1.0000
  C   C1623     1.0  0.32887  0.93954  0.37085  1.0000
  Fe  Fe124     1.0  0.33880  0.90134  0.60953  1.0000
  S   S242      1.0  0.36393  0.90566  0.58675  1.0000
  S   S243      1.0  0.32201  0.92515  0.62453  1.0000
  Fe  Fe125     1.0  0.34208  0.85946  0.60619  1.0000
  S   S244      1.0  0.36809  0.86091  0.58338  1.0000
  S   S245      1.0  0.33163  0.83113  0.61549  1.0000
  Fe  Fe126     1.0  0.37777  0.87747  0.60121  1.0000
  S   S246      1.0  0.40829  0.87329  0.60653  1.0000
  Fe  Fe127     1.0  0.35154  0.88881  0.57161  1.0000
  S   S247      1.0  0.34421  0.89996  0.54264  1.0000
  S   S248      1.0  0.35309  0.87386  0.62493  1.0000
  S   S249      1.0  0.32511  0.88660  0.59350  1.0000
  Fe  Fe128     1.0  0.20815  0.77612  0.60267  1.0000
  S   S250      1.0  0.21534  0.75334  0.58501  1.0000
  C   C1624     1.0  0.35618  0.96833  0.33963  1.0000
  Fe  Fe129     1.0  0.24734  0.78936  0.58862  1.0000
  S   S251      1.0  0.25761  0.76727  0.57007  1.0000
  S   S252      1.0  0.26061  0.81536  0.58656  1.0000
  Fe  Fe130     1.0  0.22835  0.77505  0.56233  1.0000
  S   S253      1.0  0.22294  0.78510  0.53262  1.0000
  Fe  Fe131     1.0  0.24382  0.74757  0.59457  1.0000
  S   S254      1.0  0.21874  0.79828  0.57943  1.0000
  S   S255      1.0  0.23582  0.76914  0.61364  1.0000
  Fe  Fe132     1.0  0.05762  0.75470  0.44302  1.0000
  S   S256      1.0  0.05219  0.78561  0.43061  1.0000
  C   C1625     1.0  0.12328  0.75436  0.35435  1.0000
  C   C1626     1.0  0.40956  0.92990  0.32072  1.0000
  S   S257      1.0  0.06630  0.77232  0.38982  1.0000
  H   H1316     1.0  0.39107  0.79404  0.36474  1.0000
  Fe  Fe133     1.0  0.08025  0.77871  0.41138  1.0000
  S   S258      1.0  0.10455  0.79514  0.40065  1.0000
  Fe  Fe134     1.0  0.03871  0.77597  0.41027  1.0000
  H   H1317     1.0  0.41358  0.87451  0.45869  1.0000
  C   C1627     1.0  0.35985  0.95611  0.55454  1.0000
  C   C1628     1.0  0.17947  0.77858  0.33582  1.0000
  C   C1629     1.0  0.12553  0.80319  0.62211  1.0000
  Fe  Fe135     1.0  0.23931  0.74495  0.40314  1.0000
  S   S259      1.0  0.21699  0.77149  0.40086  1.0000
  H   H1318     1.0  0.99506  0.77983  0.33658  1.0000
  Fe  Fe136     1.0  0.24239  0.74710  0.44332  1.0000
  S   S260      1.0  0.22019  0.77333  0.44383  1.0000
  H   H1319     1.0  0.00500  0.75679  0.47322  1.0000
  Fe  Fe137     1.0  0.20400  0.75897  0.43006  1.0000
  S   S261      1.0  0.17333  0.75732  0.44379  1.0000
  Fe  Fe138     1.0  0.23552  0.78324  0.41499  1.0000
  S   S262      1.0  0.24138  0.81342  0.40716  1.0000
  H   H1320     1.0  0.01548  0.81356  0.43072  1.0000
  S   S263      1.0  0.25890  0.75770  0.41506  1.0000
  Fe  Fe139     1.0  0.34410  0.88228  0.40868  1.0000
  S   S264      1.0  0.35499  0.88621  0.37740  1.0000
  Fe  Fe140     1.0  0.35054  0.87184  0.44921  1.0000
  S   S265      1.0  0.31914  0.87460  0.46034  1.0000
  S   S266      1.0  0.37123  0.86241  0.46981  1.0000
  Fe  Fe141     1.0  0.31764  0.85899  0.43779  1.0000
  S   S267      1.0  0.30291  0.83313  0.44662  1.0000
  S   S268      1.0  0.34955  0.85440  0.42791  1.0000
  S   S269      1.0  0.06323  0.76533  0.60912  1.0000
  C   C1630     1.0  0.25804  0.81912  0.41855  1.0000
  C   C1631     1.0  0.26689  0.80560  0.43192  1.0000
  C   C1632     1.0  0.28038  0.81028  0.44052  1.0000
  C   C1633     1.0  0.28532  0.82842  0.43577  1.0000
  C   C1634     1.0  0.27622  0.84210  0.42267  1.0000
  C   C1635     1.0  0.26260  0.83745  0.41411  1.0000
  H   H1321     1.0  0.26346  0.79147  0.43554  1.0000
  H   H1322     1.0  0.28727  0.79970  0.45070  1.0000
  H   H1323     1.0  0.27985  0.85615  0.41898  1.0000
  H   H1324     1.0  0.25576  0.84800  0.40383  1.0000
  C   C1636     1.0  0.41872  0.88002  0.35171  1.0000
  C   C1637     1.0  0.40535  0.87735  0.34184  1.0000
  C   C1638     1.0  0.38592  0.87890  0.35009  1.0000
  C   C1639     1.0  0.37972  0.88289  0.36836  1.0000
  C   C1640     1.0  0.39310  0.88512  0.37851  1.0000
  C   C1641     1.0  0.41257  0.88382  0.37012  1.0000
  H   H1325     1.0  0.38839  0.88826  0.39260  1.0000
  H   H1326     1.0  0.40998  0.87393  0.32788  1.0000
  C   C1642     1.0  0.19255  0.77496  0.34811  1.0000
  C   C1643     1.0  0.48591  0.92821  0.32529  1.0000
  H   H1327     1.0  0.44510  0.88192  0.44107  1.0000
  H   H1328     1.0  0.37639  0.93612  0.41411  1.0000
  S   S270      1.0  0.01066  0.79236  0.40172  1.0000
  H   H1329     1.0  0.43597  0.92993  0.37639  1.0000
  C   C1644     1.0  0.41254  0.87904  0.62727  1.0000
  C   C1645     1.0  0.32738  0.97887  0.51674  1.0000
  C   C1646     1.0  0.31904  0.95429  0.43021  1.0000
  C   C1647     1.0  0.12388  0.78476  0.41237  1.0000
  C   C1648     1.0  0.12047  0.77870  0.43181  1.0000
  C   C1649     1.0  0.13585  0.77081  0.44133  1.0000
  C   C1650     1.0  0.15464  0.76813  0.43137  1.0000
  C   C1651     1.0  0.15808  0.77380  0.41186  1.0000
  C   C1652     1.0  0.14274  0.78256  0.40239  1.0000
  H   H1330     1.0  0.10598  0.78059  0.43958  1.0000
  H   H1331     1.0  0.13312  0.76683  0.45647  1.0000
  H   H1332     1.0  0.17252  0.77125  0.40413  1.0000
  H   H1333     1.0  0.14544  0.78714  0.38732  1.0000
  C   C1653     1.0  0.19010  0.84603  0.47212  1.0000
  S   S271      1.0  0.01461  0.78711  0.59064  1.0000
  H   H1334     1.0  0.19229  0.74340  0.55815  1.0000
  C   C1654     1.0  0.37342  0.97502  0.33196  1.0000
  C   C1655     1.0  0.45974  0.95346  0.33374  1.0000
  C   C1656     1.0  0.23381  0.77087  0.51556  1.0000
  C   C1657     1.0  0.09327  0.76148  0.34243  1.0000
  H   H1335     1.0  0.35649  0.75302  0.37065  1.0000
  C   C1658     1.0  0.24774  0.74851  0.48727  1.0000
  C   C1659     1.0  0.24243  0.76815  0.48248  1.0000
  C   C1660     1.0  0.23532  0.77926  0.49657  1.0000
  C   C1661     1.0  0.35169  0.80392  0.51710  1.0000
  C   C1662     1.0  0.16895  0.74481  0.50364  1.0000
  H   H1336     1.0  0.24405  0.77486  0.46791  1.0000
  H   H1337     1.0  0.23095  0.79441  0.49274  1.0000
  C   C1663     1.0  0.35028  0.88632  0.52454  1.0000
  C   C1664     1.0  0.33913  0.89101  0.51039  1.0000
  C   C1665     1.0  0.34547  0.88365  0.49369  1.0000
  C   C1666     1.0  0.36275  0.87098  0.49121  1.0000
  C   C1667     1.0  0.37345  0.86534  0.50585  1.0000
  C   C1668     1.0  0.36714  0.87288  0.52260  1.0000
  H   H1338     1.0  0.32581  0.90097  0.51204  1.0000
  H   H1339     1.0  0.33728  0.88845  0.48249  1.0000
  H   H1340     1.0  0.38683  0.85547  0.50406  1.0000
  H   H1341     1.0  0.37583  0.86910  0.53350  1.0000
  C   C1669     1.0  0.31205  0.82674  0.60715  1.0000
  C   C1670     1.0  0.29895  0.84161  0.59934  1.0000
  C   C1671     1.0  0.28328  0.83778  0.59325  1.0000
  C   C1672     1.0  0.28052  0.81907  0.59481  1.0000
  C   C1673     1.0  0.29369  0.80412  0.60249  1.0000
  C   C1674     1.0  0.30933  0.80798  0.60871  1.0000
  H   H1342     1.0  0.30081  0.85610  0.59809  1.0000
  H   H1343     1.0  0.27327  0.84946  0.58729  1.0000
  H   H1344     1.0  0.07701  0.78959  0.34347  1.0000
  H   H1345     1.0  0.22895  0.73363  0.63347  1.0000
  H   H1346     1.0  0.18251  0.79837  0.38512  1.0000
  C   C1675     1.0  0.00125  0.81440  0.43914  1.0000
  C   C1676     1.0  0.08027  0.76912  0.50980  1.0000
  C   C1677     1.0  0.06387  0.76120  0.51791  1.0000
  H   H1347     1.0  0.31858  0.91300  0.37886  1.0000
  C   C1678     1.0  0.06084  0.75579  0.48747  1.0000
  C   C1679     1.0  0.16430  0.73927  0.55602  1.0000
  H   H1348     1.0  0.35585  0.78619  0.37323  1.0000
  H   H1349     1.0  0.05874  0.75993  0.53279  1.0000
  C   C1680     1.0  0.99427  0.79773  0.44790  1.0000
  C   C1681     1.0  0.36679  0.93124  0.46620  1.0000
  C   C1682     1.0  0.30323  0.73844  0.56462  1.0000
  C   C1683     1.0  0.12120  0.79469  0.60864  1.0000
  C   C1684     1.0  0.13559  0.78204  0.59937  1.0000
  C   C1685     1.0  0.15438  0.77837  0.60335  1.0000
  C   C1686     1.0  0.15847  0.78680  0.61710  1.0000
  H   H1350     1.0  0.01256  0.75208  0.40473  1.0000
  H   H1351     1.0  0.20828  0.73239  0.33523  1.0000
  H   H1352     1.0  0.13237  0.77537  0.58896  1.0000
  H   H1353     1.0  0.16559  0.76888  0.59603  1.0000
  H   H1354     1.0  0.15521  0.77038  0.32930  1.0000
  H   H1355     1.0  0.31869  0.93290  0.47817  1.0000
  S   S272      1.0  0.06611  0.79494  0.56900  1.0000
  H   H1356     1.0  0.41516  0.84588  0.38096  1.0000
  C   C1687     1.0  0.08640  0.77120  0.49025  1.0000
  C   C1688     1.0  0.35990  0.96935  0.37855  1.0000
  H   H1357     1.0  0.43675  0.95787  0.42175  1.0000
  H   H1358     1.0  0.39361  0.96175  0.41506  1.0000
  C   C1689     1.0  0.09003  0.77990  0.34620  1.0000
  C   C1690     1.0  0.37588  0.76378  0.41167  1.0000
  H   H1359     1.0  0.32324  0.94171  0.53913  1.0000
  H   H1360     1.0  0.99695  0.73342  0.51572  1.0000
  C   C1691     1.0  0.19148  0.76017  0.36348  1.0000
  C   C1692     1.0  0.31570  0.92780  0.38031  1.0000
  C   C1693     1.0  0.34838  0.82315  0.50922  1.0000
  C   C1694     1.0  0.99828  0.74911  0.46614  1.0000
  C   C1695     1.0  0.10312  0.78547  0.35443  1.0000
  H   H1361     1.0  0.41777  0.80763  0.34349  1.0000
  H   H1362     1.0  0.40312  0.95473  0.44704  1.0000
  C   C1696     1.0  0.29850  0.74993  0.53239  1.0000
  C   C1697     1.0  0.37627  0.74501  0.41006  1.0000
  H   H1363     1.0  0.10021  0.79944  0.35822  1.0000
  H   H1364     1.0  0.12932  0.77726  0.36531  1.0000
  S   S273      1.0  0.25496  0.73425  0.46966  1.0000
  C   C1698     1.0  0.11383  0.82479  0.43404  1.0000
  H   H1365     1.0  0.30725  0.91778  0.56195  1.0000
  C   C1699     1.0  0.36923  0.74113  0.39533  1.0000
  S   S274      1.0  0.34829  0.89950  0.42886  1.0000
  C   C1700     1.0  0.30814  0.77015  0.54943  1.0000
  H   H1366     1.0  0.23911  0.74484  0.53512  1.0000
  P   P52       1.0  0.43525  0.96116  0.34432  1.0000
  C   C1701     1.0  0.19898  0.83980  0.37797  1.0000
  H   H1367     1.0  0.29194  0.78966  0.60348  1.0000
  C   C1702     1.0  0.99813  0.75905  0.40357  1.0000
  S   S275      1.0  0.44319  0.87802  0.34151  1.0000
  C   C1703     1.0  0.38757  0.81241  0.38517  1.0000
  H   H1368     1.0  0.34295  0.76590  0.45433  1.0000
  C   C1704     1.0  0.30356  0.76731  0.53277  1.0000
  C   C1705     1.0  0.24769  0.75239  0.31549  1.0000
  C   C1706     1.0  0.11926  0.82347  0.46549  1.0000
  C   C1707     1.0  0.29667  0.93567  0.58294  1.0000
  S   S276      1.0  0.09403  0.77499  0.52402  1.0000
  C   C1708     1.0  0.39617  0.80528  0.36856  1.0000
  C   C1709     1.0  0.03606  0.73808  0.30794  1.0000
  C   C1710     1.0  0.32112  0.80052  0.51086  1.0000
  C   C1711     1.0  0.30618  0.93172  0.56531  1.0000
  H   H1369     1.0  0.35115  0.94514  0.55934  1.0000
  H   H1370     1.0  0.45755  0.92366  0.33853  1.0000
  Fe  Fe142     1.0  0.31664  0.90115  0.43872  1.0000
  H   H1371     1.0  0.37565  0.87707  0.34222  1.0000
  H   H1372     1.0  0.09885  0.84899  0.51100  1.0000
  C   C1712     1.0  0.39798  0.95785  0.47627  1.0000
  H   H1373     1.0  0.15989  0.75607  0.51043  1.0000
  H   H1374     1.0  0.28323  0.95927  0.40393  1.0000
  H   H1375     1.0  0.11014  0.73410  0.63491  1.0000
  H   H1376     1.0  0.29434  0.74741  0.52005  1.0000
  C   C1713     1.0  0.30912  0.97927  0.49251  1.0000
  C   C1714     1.0  0.29834  0.73560  0.54825  1.0000
  C   C1715     1.0  0.31816  0.81976  0.50247  1.0000
  C   C1716     1.0  0.42229  0.94031  0.32382  1.0000
  C   C1717     1.0  0.33823  0.79258  0.51773  1.0000
  C   C1718     1.0  0.29919  0.93494  0.39211  1.0000
  C   C1719     1.0  0.40463  0.94133  0.35544  1.0000
  H   H1377     1.0  0.17675  0.73775  0.37873  1.0000
  C   C1720     1.0  0.41138  0.81291  0.35646  1.0000
  H   H1378     1.0  0.29791  0.84792  0.38080  1.0000
  C   C1721     1.0  0.00641  0.77192  0.34400  1.0000
  H   H1379     1.0  0.45520  0.91159  0.44329  1.0000
  H   H1380     1.0  0.17550  0.91069  0.41801  1.0000
  H   H1381     1.0  0.44305  0.86944  0.62105  1.0000
  H   H1382     1.0  0.35731  0.84314  0.38295  1.0000
  H   H1383     1.0  0.38464  0.91703  0.33246  1.0000
  C   C1722     1.0  0.42915  0.92122  0.46164  1.0000
  S   S277      1.0  0.08675  0.74848  0.42551  1.0000
  H   H1384     1.0  0.31948  0.79637  0.61459  1.0000
  H   H1385     1.0  0.34203  0.93340  0.36255  1.0000
  C   C1723     1.0  0.30872  0.96576  0.38469  1.0000
  H   H1386     1.0  0.19517  0.75431  0.50362  1.0000
  H   H1387     1.0  0.48915  0.89397  0.63635  1.0000
  C   C1724     1.0  0.41823  0.82753  0.36095  1.0000
  H   H1388     1.0  0.32727  0.86223  0.37450  1.0000
  H   H1389     1.0  0.31650  0.75503  0.44530  1.0000
  C   C1725     1.0  0.33317  0.93315  0.47964  1.0000
  H   H1390     1.0  0.08122  0.76638  0.46402  1.0000
  C   C1726     1.0  0.03597  0.75232  0.36333  1.0000
  C   C1727     1.0  0.35782  0.95709  0.31049  1.0000
  S   S278      1.0  0.06036  0.75125  0.57019  1.0000
  H   H1391     1.0  0.34118  0.77765  0.52364  1.0000
  C   C1728     1.0  0.36193  0.75602  0.38209  1.0000
  C   C1729     1.0  0.19664  0.82242  0.37469  1.0000
  H   H1392     1.0  0.19102  0.86007  0.39647  1.0000
  H   H1393     1.0  0.09899  0.77744  0.48382  1.0000
  C   C1730     1.0  0.41039  0.94839  0.60614  1.0000
  C   C1731     1.0  0.16402  0.75261  0.35442  1.0000
  C   C1732     1.0  0.37856  0.95221  0.55825  1.0000
  H   H1394     1.0  0.28931  0.92567  0.39995  1.0000
  C   C1733     1.0  0.01197  0.75224  0.34490  1.0000
  C   C1734     1.0  0.34456  0.97366  0.60170  1.0000
  H   H1395     1.0  0.11957  0.90491  0.41176  1.0000
  C   C1735     1.0  0.13075  0.83197  0.42654  1.0000
  C   C1736     1.0  0.30815  0.75572  0.56519  1.0000
  Fe  Fe143     1.0  0.04628  0.77528  0.58566  1.0000
  C   C1737     1.0  0.32621  0.94879  0.61841  1.0000
  C   C1738     1.0  0.30164  0.95012  0.44121  1.0000
  C   C1739     1.0  0.19806  0.82728  0.44132  1.0000
  C   C1740     1.0  0.32896  0.76690  0.46323  1.0000
  C   C1741     1.0  0.28601  0.74184  0.61878  1.0000
  C   C1742     1.0  0.29609  0.76203  0.46964  1.0000
  C   C1743     1.0  0.29278  0.76971  0.48608  1.0000
  C   C1744     1.0  0.30753  0.77621  0.49115  1.0000
  C   C1745     1.0  0.32576  0.77440  0.47978  1.0000
  P   P53       1.0  0.30325  0.78612  0.51244  1.0000
  C   C1746     1.0  0.28021  0.80155  0.51485  1.0000
  C   C1747     1.0  0.31411  0.76078  0.45814  1.0000
  H   H1396     1.0  0.40851  0.94373  0.59377  1.0000
  Fe  Fe144     1.0  0.44952  0.88348  0.30966  1.0000
  H   H1397     1.0  0.33434  0.95549  0.33357  1.0000
  C   C1748     1.0  0.34814  0.95984  0.32850  1.0000
  H   H1398     1.0  0.35506  0.94079  0.39130  1.0000
  C   C1749     1.0  0.27206  0.81052  0.49890  1.0000
  C   C1750     1.0  0.25417  0.82231  0.50087  1.0000
  C   C1751     1.0  0.24453  0.82573  0.51865  1.0000
  C   C1752     1.0  0.25282  0.81736  0.53451  1.0000
  C   C1753     1.0  0.27057  0.80528  0.53264  1.0000
  H   H1399     1.0  0.13554  0.73972  0.55252  1.0000
  C   C1754     1.0  0.39433  0.82738  0.38936  1.0000
  H   H1400     1.0  0.25888  0.75756  0.31956  1.0000
  H   H1401     1.0  0.32546  0.93659  0.50857  1.0000
  C   C1755     1.0  0.10982  0.74877  0.34643  1.0000
  H   H1402     1.0  0.08275  0.75684  0.33682  1.0000
  C   C1756     1.0  0.05437  0.75428  0.50685  1.0000
  H   H1403     1.0  0.27867  0.77063  0.49479  1.0000
  H   H1404     1.0  0.33750  0.77887  0.48356  1.0000
  H   H1405     1.0  0.31142  0.78359  0.55040  1.0000
  H   H1406     1.0  0.12744  0.75160  0.39399  1.0000
  C   C1757     1.0  0.17411  0.81863  0.40399  1.0000
  H   H1407     1.0  0.38395  0.93844  0.56583  1.0000
  C   C1758     1.0  0.17727  0.74906  0.36667  1.0000
  H   H1408     1.0  0.27948  0.80852  0.48491  1.0000
  H   H1409     1.0  0.24786  0.82874  0.48853  1.0000
  H   H1410     1.0  0.23057  0.83466  0.52021  1.0000
  H   H1411     1.0  0.24536  0.81992  0.54833  1.0000
  H   H1412     1.0  0.27666  0.79899  0.54515  1.0000
  H   H1413     1.0  0.36474  0.79783  0.52270  1.0000
  C   C1759     1.0  0.03033  0.77191  0.36231  1.0000
  C   C1760     1.0  0.32541  0.95870  0.37283  1.0000
  H   H1414     1.0  0.14303  0.92532  0.41116  1.0000
  H   H1415     1.0  0.31158  0.75810  0.57799  1.0000
  P   P54       1.0  0.36751  0.80313  0.40063  1.0000
  C   C1761     1.0  0.24706  0.74018  0.50629  1.0000
  C   C1762     1.0  0.36795  0.80416  0.42476  1.0000
  C   C1763     1.0  0.35079  0.80743  0.43753  1.0000
  C   C1764     1.0  0.35109  0.80985  0.45572  1.0000
  C   C1765     1.0  0.36854  0.80852  0.46147  1.0000
  C   C1766     1.0  0.38573  0.80436  0.44915  1.0000
  C   C1767     1.0  0.38547  0.80205  0.43089  1.0000
  C   C1768     1.0  0.32868  0.80952  0.39815  1.0000
  H   H1416     1.0  0.38751  0.83369  0.40167  1.0000
  C   C1769     1.0  0.40983  0.83458  0.37750  1.0000
  C   C1770     1.0  0.34204  0.95446  0.60540  1.0000
  C   C1771     1.0  0.34478  0.83649  0.38576  1.0000
  C   C1772     1.0  0.31120  0.83939  0.38441  1.0000
  C   C1773     1.0  0.32770  0.84744  0.38088  1.0000
  H   H1417     1.0  0.33709  0.80885  0.43333  1.0000
  H   H1418     1.0  0.33771  0.81342  0.46509  1.0000
  H   H1419     1.0  0.36875  0.81104  0.47534  1.0000
  H   H1420     1.0  0.39925  0.80343  0.45361  1.0000
  H   H1421     1.0  0.39893  0.79908  0.42144  1.0000
  H   H1422     1.0  0.32858  0.79504  0.40533  1.0000
  H   H1423     1.0  0.29880  0.81430  0.39606  1.0000
  H   H1424     1.0  0.28462  0.75720  0.46570  1.0000
  H   H1425     1.0  0.38201  0.73344  0.42027  1.0000
  H   H1426     1.0  0.40208  0.94617  0.36873  1.0000
  C   C1774     1.0  0.36154  0.77480  0.38364  1.0000
  C   C1775     1.0  0.37466  0.94938  0.40431  1.0000
  C   C1776     1.0  0.46677  0.93417  0.33306  1.0000
  H   H1427     1.0  0.14465  0.83273  0.46762  1.0000
  C   C1777     1.0  0.07649  0.76481  0.47906  1.0000
  H   H1428     1.0  0.43359  0.94430  0.31239  1.0000
  H   H1429     1.0  0.27916  0.95762  0.51200  1.0000
  C   C1778     1.0  0.09241  0.83694  0.54031  1.0000
  C   C1779     1.0  0.44133  0.90853  0.45072  1.0000
  H   H1430     1.0  0.27385  0.96191  0.45522  1.0000
  H   H1431     1.0  0.11480  0.81997  0.48058  1.0000
  H   H1432     1.0  0.35241  0.94407  0.59847  1.0000
  H   H1433     1.0  0.13481  0.83526  0.41139  1.0000
  C   C1780     1.0  0.31856  0.85869  0.55328  1.0000
  C   C1781     1.0  0.32023  0.83926  0.55391  1.0000
  C   C1782     1.0  0.30672  0.83246  0.54740  1.0000
  C   C1783     1.0  0.29157  0.84509  0.54022  1.0000
  C   C1784     1.0  0.28964  0.86466  0.53970  1.0000
  C   C1785     1.0  0.30334  0.87138  0.54626  1.0000
  P   P55       1.0  0.26901  0.88065  0.53189  1.0000
  C   C1786     1.0  0.27370  0.90464  0.52547  1.0000
  C   C1787     1.0  0.26376  0.87412  0.51155  1.0000
  C   C1788     1.0  0.24501  0.87867  0.50765  1.0000
  C   C1789     1.0  0.24123  0.87485  0.49114  1.0000
  C   C1790     1.0  0.25612  0.86651  0.47845  1.0000
  C   C1791     1.0  0.27469  0.86181  0.48240  1.0000
  C   C1792     1.0  0.27859  0.86572  0.49876  1.0000
  C   C1793     1.0  0.27790  0.91308  0.50647  1.0000
  C   C1794     1.0  0.27994  0.93212  0.50167  1.0000
  C   C1795     1.0  0.27807  0.94279  0.51575  1.0000
  C   C1796     1.0  0.27457  0.93436  0.53466  1.0000
  C   C1797     1.0  0.27246  0.91533  0.53953  1.0000
  C   C1798     1.0  0.24811  0.87946  0.55021  1.0000
  C   C1799     1.0  0.23376  0.89552  0.55215  1.0000
  C   C1800     1.0  0.21734  0.89433  0.56598  1.0000
  C   C1801     1.0  0.21502  0.87707  0.57781  1.0000
  C   C1802     1.0  0.22903  0.86098  0.57572  1.0000
  C   C1803     1.0  0.24543  0.86215  0.56192  1.0000
  H   H1434     1.0  0.32896  0.86392  0.55852  1.0000
  H   H1435     1.0  0.33177  0.82947  0.55983  1.0000
  H   H1436     1.0  0.30778  0.81739  0.54826  1.0000
  H   H1437     1.0  0.28116  0.83955  0.53540  1.0000
  H   H1438     1.0  0.30245  0.88632  0.54607  1.0000
  H   H1439     1.0  0.23338  0.88551  0.51710  1.0000
  H   H1440     1.0  0.22683  0.87861  0.48804  1.0000
  H   H1441     1.0  0.25339  0.86363  0.46553  1.0000
  H   H1442     1.0  0.28617  0.85536  0.47261  1.0000
  H   H1443     1.0  0.29324  0.86260  0.50115  1.0000
  H   H1444     1.0  0.27938  0.90519  0.49523  1.0000
  H   H1445     1.0  0.28277  0.93861  0.48696  1.0000
  C   C1804     1.0  0.21906  0.73832  0.32434  1.0000
  H   H1446     1.0  0.27331  0.94263  0.54557  1.0000
  H   H1447     1.0  0.26960  0.90899  0.55426  1.0000
  H   H1448     1.0  0.23509  0.90893  0.54289  1.0000
  H   H1449     1.0  0.20640  0.90679  0.56752  1.0000
  H   H1450     1.0  0.20237  0.87614  0.58860  1.0000
  H   H1451     1.0  0.22733  0.84752  0.58484  1.0000
  H   H1452     1.0  0.25595  0.84946  0.56049  1.0000
  H   H1453     1.0  0.20179  0.75713  0.37287  1.0000
  H   H1454     1.0  0.32989  0.94302  0.42524  1.0000
  C   C1805     1.0  0.15454  0.73018  0.60817  1.0000
  C   C1806     1.0  0.35583  0.93512  0.49872  1.0000
  C   C1807     1.0  0.31444  0.96325  0.55677  1.0000
  C   C1808     1.0  0.43615  0.94203  0.40043  1.0000
  P   P56       1.0  0.39518  0.93354  0.48522  1.0000
  C   C1809     1.0  0.40043  0.92534  0.50872  1.0000
  C   C1810     1.0  0.41117  0.91726  0.47127  1.0000
  C   C1811     1.0  0.40588  0.90014  0.47042  1.0000
  C   C1812     1.0  0.41800  0.88756  0.45943  1.0000
  C   C1813     1.0  0.14391  0.79896  0.62659  1.0000
  H   H1455     1.0  0.99514  0.84488  0.43351  1.0000
  C   C1814     1.0  0.29596  0.95337  0.58752  1.0000
  C   C1815     1.0  0.41485  0.93171  0.51448  1.0000
  C   C1816     1.0  0.41948  0.92450  0.53241  1.0000
  C   C1817     1.0  0.40995  0.91070  0.54455  1.0000
  C   C1818     1.0  0.39588  0.90406  0.53873  1.0000
  C   C1819     1.0  0.39132  0.91120  0.52082  1.0000
  H   H1456     1.0  0.32951  0.84585  0.49528  1.0000
  P   P57       1.0  0.16378  0.84485  0.42860  1.0000
  Fe  Fe145     1.0  0.08150  0.77025  0.55510  1.0000
  C   C1820     1.0  0.16527  0.76744  0.33893  1.0000
  H   H1457     1.0  0.42986  0.83366  0.35152  1.0000
  H   H1458     1.0  0.35845  0.93686  0.51209  1.0000
  C   C1821     1.0  0.43570  0.89177  0.44952  1.0000
  H   H1459     1.0  0.39231  0.89648  0.47818  1.0000
  H   H1460     1.0  0.37805  0.92990  0.45409  1.0000
  C   C1822     1.0  0.41437  0.93505  0.62198  1.0000
  H   H1461     1.0  0.49013  0.82678  0.31889  1.0000
  H   H1462     1.0  0.16526  0.80979  0.41429  1.0000
  H   H1463     1.0  0.42269  0.94202  0.50508  1.0000
  H   H1464     1.0  0.43059  0.92943  0.53683  1.0000
  H   H1465     1.0  0.41353  0.90497  0.55842  1.0000
  H   H1466     1.0  0.38855  0.89324  0.54802  1.0000
  H   H1467     1.0  0.38081  0.90556  0.51633  1.0000
  C   C1823     1.0  0.15704  0.87037  0.42316  1.0000
  H   H1468     1.0  0.09522  0.81444  0.45925  1.0000
  C   C1824     1.0  0.14635  0.74811  0.55169  1.0000
  H   H1469     1.0  0.04149  0.74345  0.31792  1.0000
  C   C1825     1.0  0.17824  0.75014  0.55504  1.0000
  C   C1826     1.0  0.17433  0.76978  0.54937  1.0000
  C   C1827     1.0  0.15644  0.77875  0.54465  1.0000
  C   C1828     1.0  0.14247  0.76777  0.54578  1.0000
  P   P58       1.0  0.15376  0.80273  0.53207  1.0000
  C   C1829     1.0  0.12948  0.81547  0.53512  1.0000
  C   C1830     1.0  0.16722  0.81620  0.54054  1.0000
  C   C1831     1.0  0.16688  0.81400  0.55993  1.0000
  C   C1832     1.0  0.17688  0.82460  0.56682  1.0000
  C   C1833     1.0  0.18723  0.83757  0.55439  1.0000
  C   C1834     1.0  0.18720  0.84023  0.53507  1.0000
  C   C1835     1.0  0.17709  0.82969  0.52818  1.0000
  C   C1836     1.0  0.12276  0.82868  0.52014  1.0000
  C   C1837     1.0  0.11770  0.81355  0.55283  1.0000
  C   C1838     1.0  0.16217  0.79925  0.50813  1.0000
  C   C1839     1.0  0.18176  0.79747  0.50055  1.0000
  C   C1840     1.0  0.18840  0.79313  0.48253  1.0000
  C   C1841     1.0  0.17563  0.79031  0.47208  1.0000
  C   C1842     1.0  0.15632  0.79095  0.47995  1.0000
  C   C1843     1.0  0.14957  0.79533  0.49796  1.0000
  H   H1470     1.0  0.43380  0.93401  0.46265  1.0000
  H   H1471     1.0  0.35884  0.83192  0.50865  1.0000
  H   H1472     1.0  0.23308  0.74585  0.34397  1.0000
  H   H1473     1.0  0.18558  0.77787  0.54794  1.0000
  H   H1474     1.0  0.12885  0.77430  0.54145  1.0000
  H   H1475     1.0  0.15887  0.80409  0.56974  1.0000
  H   H1476     1.0  0.17673  0.82253  0.58183  1.0000
  H   H1477     1.0  0.19524  0.84552  0.55976  1.0000
  H   H1478     1.0  0.19504  0.85043  0.52548  1.0000
  H   H1479     1.0  0.17695  0.83203  0.51327  1.0000
  H   H1480     1.0  0.13186  0.83101  0.50654  1.0000
  H   H1481     1.0  0.12275  0.80389  0.56473  1.0000
  H   H1482     1.0  0.19202  0.79878  0.50874  1.0000
  H   H1483     1.0  0.20354  0.79144  0.47685  1.0000
  H   H1484     1.0  0.18076  0.78706  0.45807  1.0000
  H   H1485     1.0  0.14671  0.78769  0.47214  1.0000
  H   H1486     1.0  0.13465  0.79502  0.50416  1.0000
  C   C1844     1.0  0.31510  0.94540  0.55230  1.0000
  C   C1845     1.0  0.18861  0.84680  0.39405  1.0000
  C   C1846     1.0  0.01548  0.78166  0.35284  1.0000
  H   H1487     1.0  0.28918  0.95615  0.60146  1.0000
  C   C1847     1.0  0.29571  0.95390  0.39428  1.0000
  C   C1848     1.0  0.31171  0.82043  0.39299  1.0000
  P   P59       1.0  0.00081  0.73973  0.33284  1.0000
  H   H1488     1.0  0.12827  0.87024  0.41918  1.0000
  C   C1849     1.0  0.36828  0.77883  0.39859  1.0000
  H   H1489     1.0  0.42289  0.88577  0.37786  1.0000
  C   C1850     1.0  0.11960  0.77275  0.35858  1.0000
  H   H1490     1.0  0.20917  0.84764  0.36826  1.0000
  H   H1491     1.0  0.28513  0.74555  0.60399  1.0000
  S   S279      1.0  0.10148  0.75951  0.57592  1.0000
  C   C1851     1.0  0.10416  0.83913  0.52266  1.0000
  C   C1852     1.0  0.09930  0.82440  0.55541  1.0000
  Fe  Fe146     1.0  0.07899  0.74291  0.59227  1.0000
  C   C1853     1.0  0.36250  0.95212  0.39123  1.0000
  S   S280      1.0  0.31197  0.88584  0.41712  1.0000
  H   H1492     1.0  0.10520  0.82236  0.42474  1.0000
  S   S281      1.0  0.04260  0.74534  0.42388  1.0000
  H   H1493     1.0  0.22522  0.81526  0.45002  1.0000
  C   C1854     1.0  0.10817  0.82038  0.45349  1.0000
  H   H1494     1.0  0.34504  0.92941  0.45125  1.0000
  C   C1855     1.0  0.13621  0.83071  0.45803  1.0000
  H   H1495     1.0  0.09029  0.82306  0.56917  1.0000
  C   C1856     1.0  0.43593  0.94284  0.38138  1.0000
  H   H1496     1.0  0.03708  0.77962  0.36921  1.0000
  C   C1857     1.0  0.02675  0.74244  0.35475  1.0000
  C   C1858     1.0  0.43567  0.96019  0.36886  1.0000
  C   C1859     1.0  0.14221  0.83487  0.43847  1.0000
  H   H1497     1.0  0.18710  0.85340  0.48395  1.0000
  C   C1860     1.0  0.34545  0.81739  0.39432  1.0000
  H   H1498     1.0  0.20486  0.81688  0.36237  1.0000
  H   H1499     1.0  0.20159  0.81990  0.42944  1.0000
  C   C1861     1.0  0.18410  0.81193  0.38761  1.0000
  C   C1862     1.0  0.99840  0.77302  0.58895  1.0000
  C   C1863     1.0  0.17584  0.83642  0.40707  1.0000
  C   C1864     1.0  0.21161  0.82463  0.45298  1.0000
  C   C1865     1.0  0.17659  0.84889  0.46036  1.0000
  C   C1866     1.0  0.18045  0.83952  0.44486  1.0000
  H   H1500     1.0  0.01084  0.79675  0.35266  1.0000
  H   H1501     1.0  0.04207  0.74763  0.51340  1.0000
  C   C1867     1.0  0.42007  0.94589  0.34130  1.0000
  H   H1502     1.0  0.43617  0.92861  0.41000  1.0000
  H   H1503     1.0  0.17461  0.73412  0.32446  1.0000
  H   H1504     1.0  0.18457  0.87595  0.42547  1.0000
  C   C1868     1.0  0.37092  0.93274  0.48351  1.0000
  C   C1869     1.0  0.39467  0.97086  0.48859  1.0000
  C   C1870     1.0  0.13372  0.89853  0.41486  1.0000
  H   H1505     1.0  0.16327  0.85866  0.46314  1.0000
  C   C1871     1.0  0.13873  0.87879  0.41912  1.0000
  H   H1506     1.0  0.11038  0.74396  0.45825  1.0000
  H   H1507     1.0  0.20365  0.78347  0.34569  1.0000
  C   C1872     1.0  0.28739  0.96495  0.44692  1.0000
  S   S282      1.0  0.29652  0.92686  0.44800  1.0000
  C   C1873     1.0  0.33704  0.93524  0.49675  1.0000
  H   H1508     1.0  0.29043  0.92480  0.59332  1.0000
  C   C1874     1.0  0.43649  0.95847  0.40703  1.0000
  S   S283      1.0  0.22517  0.73175  0.43156  1.0000
  C   C1875     1.0  0.17026  0.88206  0.42269  1.0000
  C   C1876     1.0  0.20759  0.83387  0.46845  1.0000
  C   C1877     1.0  0.14693  0.91003  0.41451  1.0000
  H   H1509     1.0  0.07798  0.84498  0.54237  1.0000
  C   C1878     1.0  0.16520  0.90179  0.41840  1.0000
  H   H1510     1.0  0.18031  0.79003  0.32388  1.0000
  H   H1511     1.0  0.21804  0.83154  0.47757  1.0000
  C   C1879     1.0  0.34805  0.93117  0.46441  1.0000
  H   H1512     1.0  0.30546  0.82610  0.49640  1.0000
  C   C1880     1.0  0.39451  0.92503  0.33497  1.0000
  H   H1513     1.0  0.38044  0.92673  0.36338  1.0000
  H   H1514     1.0  0.38143  0.76645  0.42316  1.0000
  C   C1881     1.0  0.24011  0.75136  0.52045  1.0000
  C   C1882     1.0  0.33176  0.83100  0.50171  1.0000
  C   C1883     1.0  0.39210  0.93064  0.35237  1.0000
  C   C1884     1.0  0.40136  0.96438  0.45677  1.0000
  H   H1515     1.0  0.11879  0.73364  0.53081  1.0000
  C   C1885     1.0  0.99089  0.74273  0.58738  1.0000
  H   H1516     1.0  0.40455  0.96310  0.55550  1.0000
  C   C1886     1.0  0.13453  0.73704  0.39718  1.0000
  C   C1887     1.0  0.23316  0.74569  0.32932  1.0000
  H   H1517     1.0  0.01877  0.74693  0.58991  1.0000
  H   H1518     1.0  0.11450  0.81294  0.62933  1.0000
  C   C1888     1.0  0.01696  0.73518  0.31123  1.0000
  H   H1519     1.0  0.41581  0.92005  0.62182  1.0000
  C   C1889     1.0  0.18881  0.74386  0.49979  1.0000
  H   H1520     1.0  0.37149  0.92877  0.63527  1.0000
  S   S284      1.0  0.18117  0.78209  0.62368  1.0000
  P   P60       1.0  0.14536  0.73851  0.35854  1.0000
  H   H1521     1.0  0.04735  0.74477  0.37096  1.0000
  H   H1522     1.0  0.11172  0.73456  0.34364  1.0000
  C   C1890     1.0  0.00857  0.73220  0.46054  1.0000
  S   S285      1.0  0.04986  0.74533  0.47423  1.0000
  H   H1523     1.0  0.39112  0.96634  0.50365  1.0000
  C   C1891     1.0  0.31285  0.96238  0.62722  1.0000
  Fe  Fe147     1.0  0.07120  0.74238  0.40487  1.0000
  C   C1892     1.0  0.40907  0.96769  0.60622  1.0000
  H   H1524     1.0  0.29722  0.97745  0.52200  1.0000
  H   H1525     1.0  0.48466  0.92788  0.62146  1.0000
  C   C1893     1.0  0.43136  0.87568  0.63089  1.0000
  C   C1894     1.0  0.99328  0.77873  0.40171  1.0000
  H   H1526     1.0  0.33532  0.97651  0.41632  1.0000
  C   C1895     1.0  0.31007  0.97813  0.51149  1.0000
  H   H1527     1.0  0.29569  0.97939  0.48827  1.0000
  H   H1528     1.0  0.12904  0.73717  0.42687  1.0000
  C   C1896     1.0  0.47222  0.96659  0.32694  1.0000
  C   C1897     1.0  0.35256  0.97407  0.54505  1.0000
  H   H1529     1.0  0.00336  0.78425  0.44610  1.0000
  C   C1898     1.0  0.39015  0.96610  0.55245  1.0000
  H   H1530     1.0  0.40634  0.97808  0.59384  1.0000
  H   H1531     1.0  0.37191  0.96320  0.62558  1.0000
  C   C1899     1.0  0.38434  0.96376  0.40485  1.0000
  H   H1532     1.0  0.35680  0.97800  0.59182  1.0000
  C   C1900     1.0  0.21913  0.73816  0.30544  1.0000
  H   H1533     1.0  0.39638  0.97750  0.30811  1.0000
  H   H1534     1.0  0.14538  0.73230  0.50186  1.0000
  C   C1901     1.0  0.27811  0.75518  0.63055  1.0000
  H   H1535     1.0  0.12622  0.73180  0.60246  1.0000
  H   H1536     1.0  0.27185  0.76928  0.62451  1.0000
  C   C1902     1.0  0.43679  0.97567  0.39456  1.0000
  H   H1537     1.0  0.07686  0.73369  0.63478  1.0000
  H   H1538     1.0  0.41113  0.92600  0.30708  1.0000
  C   C1903     1.0  0.12557  0.73278  0.63148  1.0000
  H   H1539     1.0  0.14305  0.73380  0.46572  1.0000
  C   C1904     1.0  0.16078  0.73135  0.49865  1.0000
  C   C1905     1.0  0.41134  0.97365  0.62228  1.0000
  C   C1906     1.0  0.38289  0.97258  0.31383  1.0000
  C   C1907     1.0  0.32207  0.97327  0.42508  1.0000
  H   H1540     1.0  0.10075  0.73143  0.50686  1.0000
  C   C1908     1.0  0.23150  0.80843  0.63503  1.0000
  P   P61       1.0  0.34330  0.97345  0.36232  1.0000
  C   C1909     1.0  0.43666  0.97649  0.37550  1.0000
  C   C1910     1.0  0.11442  0.72995  0.46609  1.0000
  C   C1911     1.0  0.13468  0.73149  0.61302  1.0000
  H   H1541     1.0  0.23321  0.82060  0.62398  1.0000
  H   H1542     1.0  0.16155  0.72967  0.59384  1.0000
  H   H1543     1.0  0.20131  0.81090  0.63519  1.0000
  H   H1544     1.0  0.99557  0.73164  0.54995  1.0000
  C   C1912     1.0  0.16535  0.72994  0.62178  1.0000
  H   H1545     1.0  0.99089  0.72977  0.37358  1.0000
  H   H1546     1.0  0.47914  0.92984  0.75258  1.0000
  C   C1913     1.0  0.48698  0.91709  0.75985  1.0000
  S   S286      1.0  0.47421  0.77088  0.83064  1.0000
  H   H1547     1.0  0.11186  0.76961  0.64315  1.0000
  S   S287      1.0  0.43214  0.75830  0.83268  1.0000
  Fe  Fe148     1.0  0.45902  0.76183  0.81145  1.0000
  S   S288      1.0  0.46034  0.77611  0.78100  1.0000
  Fe  Fe149     1.0  0.44853  0.76496  0.85246  1.0000
  S   S289      1.0  0.43393  0.78419  0.87330  1.0000
  C   C1914     1.0  0.47787  0.77704  0.90130  1.0000
  Fe  Fe150     1.0  0.45099  0.89126  0.69265  1.0000
  S   S290      1.0  0.44568  0.90513  0.71823  1.0000
  C   C1915     1.0  0.41665  0.94099  0.63804  1.0000
  C   C1916     1.0  0.48624  0.82087  0.95747  1.0000
  H   H1548     1.0  0.32729  0.95485  0.72292  1.0000
  H   H1549     1.0  0.48109  0.87280  0.78283  1.0000
  Fe  Fe151     1.0  0.46331  0.87844  0.73101  1.0000
  S   S291      1.0  0.45453  0.86544  0.76141  1.0000
  Fe  Fe152     1.0  0.47332  0.91544  0.70609  1.0000
  H   H1550     1.0  0.26979  0.77331  0.70257  1.0000
  S   S292      1.0  0.46725  0.86391  0.70630  1.0000
  S   S293      1.0  0.47752  0.90360  0.67955  1.0000
  C   C1917     1.0  0.47783  0.90166  0.76823  1.0000
  C   C1918     1.0  0.34980  0.95686  0.73673  1.0000
  H   H1551     1.0  0.41733  0.85614  0.88267  1.0000
  C   C1919     1.0  0.46859  0.82629  0.87841  1.0000
  C   C1920     1.0  0.06770  0.75895  0.68100  1.0000
  S   S294      1.0  0.42384  0.89505  0.68043  1.0000
  S   S295      1.0  0.48214  0.78021  0.93629  1.0000
  H   H1552     1.0  0.40261  0.74554  0.93462  1.0000
  C   C1921     1.0  0.41108  0.95256  0.68059  1.0000
  C   C1922     1.0  0.28667  0.73184  0.65730  1.0000
  C   C1923     1.0  0.27634  0.80052  0.66980  1.0000
  H   H1553     1.0  0.45969  0.73190  0.90471  1.0000
  C   C1924     1.0  0.35521  0.93153  0.66286  1.0000
  H   H1554     1.0  0.17873  0.73067  0.70132  1.0000
  H   H1555     1.0  0.30864  0.96258  0.66918  1.0000
  C   C1925     1.0  0.30877  0.97561  0.69297  1.0000
  P   P62       1.0  0.41874  0.96782  0.65894  1.0000
  H   H1556     1.0  0.38950  0.94334  0.67012  1.0000
  C   C1926     1.0  0.44476  0.85085  0.89152  1.0000
  C   C1927     1.0  0.31524  0.79033  0.65548  1.0000
  C   C1928     1.0  0.45289  0.82337  0.95560  1.0000
  C   C1929     1.0  0.41865  0.95211  0.69666  1.0000
  H   H1557     1.0  0.34499  0.94734  0.74939  1.0000
  C   C1930     1.0  0.45977  0.80079  0.77610  1.0000
  C   C1931     1.0  0.45299  0.81192  0.79017  1.0000
  C   C1932     1.0  0.45160  0.83175  0.78555  1.0000
  C   C1933     1.0  0.45701  0.84050  0.76690  1.0000
  C   C1934     1.0  0.46422  0.82928  0.75297  1.0000
  C   C1935     1.0  0.46569  0.80951  0.75758  1.0000
  H   H1558     1.0  0.44845  0.80529  0.80451  1.0000
  H   H1559     1.0  0.44608  0.84032  0.79643  1.0000
  H   H1560     1.0  0.46864  0.83577  0.73863  1.0000
  H   H1561     1.0  0.27516  0.95801  0.67901  1.0000
  C   C1936     1.0  0.44734  0.78291  0.89085  1.0000
  C   C1937     1.0  0.43806  0.78771  0.90832  1.0000
  C   C1938     1.0  0.44861  0.78628  0.92260  1.0000
  C   C1939     1.0  0.46854  0.78104  0.91905  1.0000
  C   C1940     1.0  0.41192  0.82770  0.65537  1.0000
  C   C1941     1.0  0.46724  0.77738  0.88742  1.0000
  H   H1562     1.0  0.42267  0.79205  0.91097  1.0000
  H   H1563     1.0  0.44138  0.78957  0.93623  1.0000
  H   H1564     1.0  0.43852  0.82130  0.96236  1.0000
  C   C1942     1.0  0.14017  0.74480  0.67886  1.0000
  C   C1943     1.0  0.46730  0.96536  0.70435  1.0000
  C   C1944     1.0  0.45166  0.96733  0.71903  1.0000
  H   H1565     1.0  0.45212  0.94011  0.67001  1.0000
  H   H1566     1.0  0.35483  0.91650  0.66696  1.0000
  C   C1945     1.0  0.46334  0.84005  0.89009  1.0000
  C   C1946     1.0  0.14020  0.76440  0.67493  1.0000
  H   H1567     1.0  0.44793  0.95493  0.72885  1.0000
  C   C1947     1.0  0.30824  0.80823  0.66041  1.0000
  C   C1948     1.0  0.15633  0.73099  0.64029  1.0000
  C   C1949     1.0  0.45676  0.83035  0.93632  1.0000
  C   C1950     1.0  0.41166  0.94155  0.71388  1.0000
  H   H1568     1.0  0.26126  0.80477  0.67516  1.0000
  H   H1569     1.0  0.44516  0.83363  0.92844  1.0000
  C   C1951     1.0  0.39738  0.93099  0.71508  1.0000
  H   H1570     1.0  0.38966  0.89808  0.66610  1.0000
  C   C1952     1.0  0.47793  0.87695  0.91770  1.0000
  C   C1953     1.0  0.47466  0.88175  0.88497  1.0000
  C   C1954     1.0  0.48351  0.96825  0.64420  1.0000
  C   C1955     1.0  0.43075  0.74019  0.91809  1.0000
  H   H1571     1.0  0.44382  0.75904  0.75245  1.0000
  H   H1572     1.0  0.28343  0.82723  0.67135  1.0000
  C   C1956     1.0  0.42012  0.88842  0.65995  1.0000
  H   H1573     1.0  0.36910  0.74438  0.93549  1.0000
  C   C1957     1.0  0.47684  0.95257  0.65602  1.0000
  H   H1574     1.0  0.47027  0.91082  0.87082  1.0000
  C   C1958     1.0  0.22753  0.77608  0.66248  1.0000
  Fe  Fe153     1.0  0.46924  0.76889  0.96607  1.0000
  H   H1575     1.0  0.26133  0.80182  0.63674  1.0000
  H   H1576     1.0  0.35831  0.74721  0.96882  1.0000
  H   H1577     1.0  0.22565  0.76341  0.67269  1.0000
  C   C1959     1.0  0.08190  0.77832  0.65296  1.0000
  H   H1578     1.0  0.15401  0.78688  0.67723  1.0000
  H   H1579     1.0  0.16509  0.73097  0.65045  1.0000
  H   H1580     1.0  0.41769  0.94120  0.72619  1.0000
  H   H1581     1.0  0.42713  0.83204  0.86172  1.0000
  C   C1960     1.0  0.16779  0.74013  0.69421  1.0000
  C   C1961     1.0  0.08550  0.74718  0.68203  1.0000
  H   H1582     1.0  0.05524  0.75583  0.69134  1.0000
  C   C1962     1.0  0.13630  0.73261  0.64528  1.0000
  C   C1963     1.0  0.45572  0.82390  0.86781  1.0000
  C   C1964     1.0  0.36275  0.73311  0.94500  1.0000
  C   C1965     1.0  0.15384  0.77178  0.68070  1.0000
  C   C1966     1.0  0.43726  0.83459  0.86939  1.0000
  C   C1967     1.0  0.06589  0.77448  0.66643  1.0000
  H   H1583     1.0  0.47411  0.87622  0.87262  1.0000
  C   C1968     1.0  0.47592  0.83929  0.67129  1.0000
  C   C1969     1.0  0.09969  0.76656  0.65390  1.0000
  H   H1584     1.0  0.46287  0.90244  0.76760  1.0000
  C   C1970     1.0  0.47540  0.83291  0.92749  1.0000
  H   H1585     1.0  0.14693  0.80540  0.63729  1.0000
  C   C1971     1.0  0.43175  0.84805  0.88127  1.0000
  H   H1586     1.0  0.33870  0.93848  0.68901  1.0000
  H   H1587     1.0  0.41744  0.82425  0.64144  1.0000
  C   C1972     1.0  0.34601  0.94404  0.67523  1.0000
  C   C1973     1.0  0.45713  0.95241  0.66099  1.0000
  C   C1974     1.0  0.21358  0.80300  0.64135  1.0000
  H   H1588     1.0  0.26105  0.75572  0.73453  1.0000
  H   H1589     1.0  0.38302  0.88994  0.63743  1.0000
  C   C1975     1.0  0.45745  0.83585  0.67941  1.0000
  C   C1976     1.0  0.45461  0.82107  0.69478  1.0000
  C   C1977     1.0  0.47065  0.81016  0.70211  1.0000
  P   P63       1.0  0.43047  0.81752  0.70584  1.0000
  C   C1978     1.0  0.43008  0.79271  0.71585  1.0000
  C   C1979     1.0  0.42246  0.83268  0.72345  1.0000
  C   C1980     1.0  0.41580  0.82558  0.74242  1.0000
  C   C1981     1.0  0.41096  0.83755  0.75580  1.0000
  C   C1982     1.0  0.41197  0.85680  0.75027  1.0000
  C   C1983     1.0  0.41750  0.86415  0.73131  1.0000
  C   C1984     1.0  0.42282  0.85214  0.71800  1.0000
  C   C1985     1.0  0.42122  0.78173  0.70794  1.0000
  C   C1986     1.0  0.42065  0.76271  0.71595  1.0000
  C   C1987     1.0  0.42884  0.75448  0.73192  1.0000
  C   C1988     1.0  0.43765  0.76526  0.73988  1.0000
  C   C1989     1.0  0.43831  0.78422  0.73188  1.0000
  C   C1990     1.0  0.41568  0.82540  0.68778  1.0000
  C   C1991     1.0  0.42245  0.82032  0.66991  1.0000
  C   C1992     1.0  0.48814  0.88491  0.77681  1.0000
  C   C1993     1.0  0.28317  0.78269  0.66439  1.0000
  C   C1994     1.0  0.38741  0.84477  0.67644  1.0000
  C   C1995     1.0  0.39792  0.83748  0.69101  1.0000
  P   P64       1.0  0.26654  0.76722  0.66514  1.0000
  C   C1996     1.0  0.39755  0.88718  0.64006  1.0000
  C   C1997     1.0  0.28883  0.81327  0.66772  1.0000
  H   H1590     1.0  0.44539  0.84509  0.67389  1.0000
  H   H1591     1.0  0.46914  0.79893  0.71406  1.0000
  H   H1592     1.0  0.41436  0.81091  0.74714  1.0000
  H   H1593     1.0  0.40675  0.83182  0.77052  1.0000
  H   H1594     1.0  0.40872  0.86596  0.76070  1.0000
  H   H1595     1.0  0.41804  0.87910  0.72692  1.0000
  H   H1596     1.0  0.42732  0.85805  0.70341  1.0000
  H   H1597     1.0  0.41456  0.78776  0.69574  1.0000
  H   H1598     1.0  0.41370  0.75436  0.70986  1.0000
  H   H1599     1.0  0.42990  0.95998  0.69588  1.0000
  C   C1998     1.0  0.44405  0.96813  0.65434  1.0000
  H   H1600     1.0  0.44485  0.79231  0.73862  1.0000
  H   H1601     1.0  0.43612  0.81105  0.66709  1.0000
  H   H1602     1.0  0.47986  0.86781  0.93098  1.0000
  H   H1603     1.0  0.08045  0.79034  0.64163  1.0000
  H   H1604     1.0  0.37394  0.85445  0.67883  1.0000
  H   H1605     1.0  0.39230  0.84160  0.70463  1.0000
  H   H1606     1.0  0.47446  0.77379  0.87392  1.0000
  H   H1607     1.0  0.31783  0.81832  0.65818  1.0000
  C   C1999     1.0  0.26315  0.76101  0.70438  1.0000
  C   C2000     1.0  0.35543  0.97042  0.65170  1.0000
  C   C2001     1.0  0.40134  0.89180  0.65630  1.0000
  H   H1608     1.0  0.48241  0.81713  0.87761  1.0000
  H   H1609     1.0  0.13014  0.77399  0.66688  1.0000
  H   H1610     1.0  0.39246  0.92227  0.72827  1.0000
  C   C2002     1.0  0.37272  0.97646  0.71883  1.0000
  C   C2003     1.0  0.39446  0.83998  0.65861  1.0000
  S   S296      1.0  0.46098  0.73461  0.86217  1.0000
  H   H1611     1.0  0.45971  0.81315  0.85892  1.0000
  H   H1612     1.0  0.37846  0.92347  0.70008  1.0000
  H   H1613     1.0  0.37400  0.96120  0.74695  1.0000
  C   C2004     1.0  0.25979  0.75483  0.68880  1.0000
  C   C2005     1.0  0.27788  0.75015  0.64996  1.0000
  C   C2006     1.0  0.10164  0.75083  0.66839  1.0000
  H   H1614     1.0  0.47792  0.85084  0.65962  1.0000
  H   H1615     1.0  0.42823  0.73982  0.73824  1.0000
  C   C2007     1.0  0.40418  0.75069  0.88163  1.0000
  C   C2008     1.0  0.39080  0.76710  0.87770  1.0000
  C   C2009     1.0  0.37144  0.76739  0.88542  1.0000
  C   C2010     1.0  0.36548  0.75120  0.89696  1.0000
  H   H1616     1.0  0.47595  0.90233  0.92887  1.0000
  H   H1617     1.0  0.47146  0.80093  0.74677  1.0000
  H   H1618     1.0  0.35038  0.75147  0.90259  1.0000
  C   C2011     1.0  0.24748  0.79767  0.64236  1.0000
  H   H1619     1.0  0.05207  0.78347  0.66546  1.0000
  C   C2012     1.0  0.38948  0.93168  0.69922  1.0000
  H   H1620     1.0  0.47125  0.92397  0.89886  1.0000
  C   C2013     1.0  0.24984  0.73494  0.72535  1.0000
  C   C2014     1.0  0.16759  0.75967  0.69038  1.0000
  C   C2015     1.0  0.30279  0.77757  0.65744  1.0000
  C   C2016     1.0  0.41454  0.96040  0.63854  1.0000
  H   H1621     1.0  0.44025  0.86132  0.90070  1.0000
  H   H1622     1.0  0.17830  0.76538  0.69462  1.0000
  H   H1623     1.0  0.41917  0.75043  0.87563  1.0000
  H   H1624     1.0  0.39552  0.77956  0.86866  1.0000
  H   H1625     1.0  0.36107  0.78009  0.88228  1.0000
  C   C2017     1.0  0.21160  0.78683  0.65503  1.0000
  C   C2018     1.0  0.39606  0.94269  0.68212  1.0000
  C   C2019     1.0  0.24562  0.78144  0.65626  1.0000
  H   H1626     1.0  0.19781  0.78228  0.65931  1.0000
  H   H1627     1.0  0.25552  0.96896  0.70788  1.0000
  C   C2020     1.0  0.15421  0.73272  0.68838  1.0000
  H   H1628     1.0  0.30849  0.76396  0.65312  1.0000
  H   H1629     1.0  0.44969  0.87788  0.64972  1.0000
  C   C2021     1.0  0.34583  0.97373  0.70534  1.0000
  H   H1630     1.0  0.42851  0.75325  0.90818  1.0000
  C   C2022     1.0  0.33973  0.96126  0.72172  1.0000
  C   C2023     1.0  0.47574  0.89657  0.91657  1.0000
  C   C2024     1.0  0.37892  0.73468  0.90098  1.0000
  Fe  Fe154     1.0  0.48544  0.73984  0.83863  1.0000
  C   C2025     1.0  0.36616  0.96463  0.73536  1.0000
  C   C2026     1.0  0.36487  0.95782  0.63952  1.0000
  S   S297      1.0  0.47227  0.73103  0.81769  1.0000
  C   C2027     1.0  0.28140  0.96465  0.68749  1.0000
  H   H1631     1.0  0.48697  0.94067  0.66155  1.0000
  S   S298      1.0  0.48281  0.94352  0.70267  1.0000
  C   C2028     1.0  0.47250  0.90135  0.88389  1.0000
  C   C2029     1.0  0.46760  0.81871  0.96618  1.0000
  C   C2030     1.0  0.47745  0.86938  0.90188  1.0000
  C   C2031     1.0  0.30049  0.96713  0.68204  1.0000
  C   C2032     1.0  0.25821  0.75106  0.72257  1.0000
  H   H1632     1.0  0.38653  0.84599  0.64719  1.0000
  C   C2033     1.0  0.27035  0.97085  0.70372  1.0000
  C   C2034     1.0  0.47305  0.90876  0.89968  1.0000
  C   C2035     1.0  0.25115  0.73874  0.69177  1.0000
  P   P65       1.0  0.48014  0.84408  0.90312  1.0000
  H   H1633     1.0  0.30051  0.95822  0.63708  1.0000
  C   C2036     1.0  0.34583  0.96363  0.66964  1.0000
  C   C2037     1.0  0.39835  0.73458  0.89331  1.0000
  P   P66       1.0  0.12442  0.73503  0.66899  1.0000
  C   C2038     1.0  0.49015  0.82799  0.93821  1.0000
  C   C2039     1.0  0.36463  0.93842  0.64499  1.0000
  H   H1634     1.0  0.42024  0.93038  0.65000  1.0000
  H   H1635     1.0  0.33026  0.78665  0.64953  1.0000
  C   C2040     1.0  0.43516  0.88038  0.64715  1.0000
  H   H1636     1.0  0.08641  0.73508  0.69329  1.0000
  C   C2041     1.0  0.41602  0.73571  0.93288  1.0000
  C   C2042     1.0  0.35658  0.73482  0.96394  1.0000
  H   H1637     1.0  0.24845  0.73360  0.68001  1.0000
  C   C2043     1.0  0.48908  0.81384  0.69416  1.0000
  C   C2044     1.0  0.65580  0.99305  0.25809  1.0000
  H   H1638     1.0  0.49367  0.22116  0.05864  1.0000
  C   C2045     1.0  0.61501  0.00199  0.23241  1.0000
  P   P67       1.0  0.59346  0.03655  0.24090  1.0000
  S   S299      1.0  0.63529  0.11269  0.27374  1.0000
  C   C2046     1.0  0.58251  0.20674  0.27523  1.0000
  Fe  Fe155     1.0  0.63219  0.08548  0.29434  1.0000
  S   S300      1.0  0.64802  0.02085  0.27892  1.0000
  C   C2047     1.0  0.55777  0.99481  0.22415  1.0000
  C   C2048     1.0  0.55736  0.07856  0.21295  1.0000
  H   H1639     1.0  0.61290  0.09223  0.19253  1.0000
  C   C2049     1.0  0.56287  0.21388  0.27577  1.0000
  S   S301      1.0  0.61317  0.06805  0.28826  1.0000
  C   C2050     1.0  0.58270  0.00650  0.26893  1.0000
  C   C2051     1.0  0.71488  0.00618  0.28634  1.0000
  C   C2052     1.0  0.56994  0.10184  0.27618  1.0000
  H   H1640     1.0  0.65819  0.10704  0.30265  1.0000
  C   C2053     1.0  0.57929  0.99710  0.28754  1.0000
  S   S302      1.0  0.65459  0.06024  0.30185  1.0000
  Fe  Fe156     1.0  0.51707  0.21316  0.26920  1.0000
  H   H1641     1.0  0.53678  0.17764  0.22404  1.0000
  H   H1642     1.0  0.50236  0.18781  0.22329  1.0000
  S   S303      1.0  0.50196  0.04021  0.27877  1.0000
  C   C2054     1.0  0.55564  0.10078  0.26664  1.0000
  C   C2055     1.0  0.58005  0.12716  0.25163  1.0000
  C   C2056     1.0  0.49383  0.15036  0.26439  1.0000
  H   H1643     1.0  0.61427  0.09579  0.24449  1.0000
  H   H1644     1.0  0.60672  0.01205  0.18085  1.0000
  P   P68       1.0  0.56322  0.14133  0.21950  1.0000
  H   H1645     1.0  0.52374  0.06144  0.24810  1.0000
  H   H1646     1.0  0.60059  0.09766  0.16256  1.0000
  H   H1647     1.0  0.55867  0.08971  0.20079  1.0000
  H   H1648     1.0  0.56677  0.01579  0.20056  1.0000
  H   H1649     1.0  0.76160  0.08808  0.29010  1.0000
  C   C2057     1.0  0.64440  0.99930  0.27417  1.0000
  H   H1650     1.0  0.56405  0.16918  0.24279  1.0000
  H   H1651     1.0  0.57181  0.12208  0.15747  1.0000
  H   H1652     1.0  0.62558  0.98132  0.19347  1.0000
  C   C2058     1.0  0.55343  0.11297  0.24967  1.0000
  C   C2059     1.0  0.52633  0.00383  0.24216  1.0000
  C   C2060     1.0  0.53915  0.02605  0.21584  1.0000
  C   C2061     1.0  0.65671  0.12177  0.29598  1.0000
  C   C2062     1.0  0.76312  0.18285  0.26495  1.0000
  C   C2063     1.0  0.61097  0.05120  0.23986  1.0000
  C   C2064     1.0  0.65145  0.20996  0.23316  1.0000
  C   C2065     1.0  0.56543  0.12647  0.24211  1.0000
  C   C2066     1.0  0.59320  0.10571  0.17353  1.0000
  C   C2067     1.0  0.64408  0.05442  0.23771  1.0000
  C   C2068     1.0  0.57565  0.16122  0.21539  1.0000
  C   C2069     1.0  0.65293  0.16009  0.27891  1.0000
  C   C2070     1.0  0.64452  0.14744  0.27267  1.0000
  C   C2071     1.0  0.64629  0.12829  0.28130  1.0000
  C   C2072     1.0  0.72753  0.99132  0.29483  1.0000
  C   C2073     1.0  0.74953  0.09948  0.29208  1.0000
  H   H1653     1.0  0.65145  0.17485  0.27232  1.0000
  H   H1654     1.0  0.63649  0.15252  0.26128  1.0000
  C   C2074     1.0  0.57367  0.06599  0.21787  1.0000
  H   H1655     1.0  0.59349  0.11549  0.27598  1.0000
  C   C2075     1.0  0.60010  0.10262  0.19040  1.0000
  H   H1656     1.0  0.54031  0.16646  0.28282  1.0000
  C   C2076     1.0  0.60361  0.01913  0.22571  1.0000
  H   H1657     1.0  0.54228  0.11165  0.24265  1.0000
  C   C2077     1.0  0.70024  0.00225  0.27896  1.0000
  H   H1658     1.0  0.57533  0.15709  0.28198  1.0000
  H   H1659     1.0  0.57167  0.09238  0.28931  1.0000
  H   H1660     1.0  0.58973  0.15770  0.18699  1.0000
  C   C2078     1.0  0.56547  0.15157  0.29410  1.0000
  S   S304      1.0  0.54920  0.20323  0.26517  1.0000
  S   S305      1.0  0.68510  0.21936  0.29672  1.0000
  H   H1661     1.0  0.62889  0.19381  0.23737  1.0000
  C   C2079     1.0  0.63262  0.20785  0.23388  1.0000
  C   C2080     1.0  0.63819  0.07337  0.23988  1.0000
  H   H1662     1.0  0.65907  0.04801  0.23688  1.0000
  H   H1663     1.0  0.52668  0.08677  0.22046  1.0000
  H   H1664     1.0  0.77238  0.15871  0.28515  1.0000
  H   H1665     1.0  0.60278  0.20365  0.20656  1.0000
  H   H1666     1.0  0.63545  0.02856  0.23669  1.0000
  C   C2081     1.0  0.57210  0.05162  0.23377  1.0000
  C   C2082     1.0  0.58740  0.02474  0.26491  1.0000
  C   C2083     1.0  0.57339  0.17227  0.22938  1.0000
  C   C2084     1.0  0.55392  0.04993  0.24457  1.0000
  C   C2085     1.0  0.58772  0.16581  0.19812  1.0000
  C   C2086     1.0  0.61875  0.08133  0.24198  1.0000
  H   H1667     1.0  0.77746  0.18358  0.25715  1.0000
  C   C2087     1.0  0.74169  0.16804  0.29120  1.0000
  C   C2088     1.0  0.53799  0.14940  0.21847  1.0000
  C   C2089     1.0  0.58716  0.03391  0.27982  1.0000
  H   H1668     1.0  0.60684  0.18442  0.18169  1.0000
  C   C2090     1.0  0.71843  0.12890  0.29722  1.0000
  H   H1669     1.0  0.71620  0.02075  0.28576  1.0000
  H   H1670     1.0  0.51631  0.12608  0.26749  1.0000
  H   H1671     1.0  0.51446  0.00035  0.25310  1.0000
  C   C2091     1.0  0.66329  0.15351  0.29367  1.0000
  H   H1672     1.0  0.58757  0.06767  0.20949  1.0000
  H   H1673     1.0  0.55214  0.03909  0.25697  1.0000
  H   H1674     1.0  0.59010  0.07649  0.24479  1.0000
  H   H1675     1.0  0.66235  0.19760  0.23600  1.0000
  S   S306      1.0  0.49759  0.19428  0.28791  1.0000
  C   C2092     1.0  0.58218  0.11495  0.26866  1.0000
  C   C2093     1.0  0.61851  0.22386  0.23056  1.0000
  C   C2094     1.0  0.57417  0.12668  0.20190  1.0000
  C   C2095     1.0  0.52703  0.13709  0.21522  1.0000
  C   C2096     1.0  0.58314  0.18753  0.22614  1.0000
  C   C2097     1.0  0.53938  0.07691  0.22392  1.0000
  C   C2098     1.0  0.52445  0.02165  0.23069  1.0000
  H   H1676     1.0  0.66575  0.00161  0.24905  1.0000
  C   C2099     1.0  0.55436  0.22912  0.28510  1.0000
  H   H1677     1.0  0.59276  0.03601  0.20113  1.0000
  H   H1678     1.0  0.60854  0.20903  0.28378  1.0000
  H   H1679     1.0  0.53349  0.12278  0.21322  1.0000
  H   H1680     1.0  0.55540  0.14104  0.18206  1.0000
  H   H1681     1.0  0.62246  0.99286  0.29803  1.0000
  C   C2100     1.0  0.56759  0.13005  0.18473  1.0000
  C   C2101     1.0  0.59747  0.18104  0.19499  1.0000
  C   C2102     1.0  0.76021  0.16887  0.28088  1.0000
  H   H1682     1.0  0.69003  0.01377  0.27290  1.0000
  H   H1683     1.0  0.54618  0.09052  0.27234  1.0000
  C   C2103     1.0  0.72606  0.18082  0.28487  1.0000
  H   H1684     1.0  0.52851  0.21097  0.05888  1.0000
  C   C2104     1.0  0.57697  0.11945  0.17068  1.0000
  H   H1685     1.0  0.53020  0.99635  0.27768  1.0000
  C   C2105     1.0  0.50942  0.17377  0.22069  1.0000
  H   H1686     1.0  0.57057  0.98456  0.22098  1.0000
  H   H1687     1.0  0.70316  0.11322  0.28568  1.0000
  C   C2106     1.0  0.72900  0.19477  0.26893  1.0000
  H   H1688     1.0  0.59008  0.13682  0.24590  1.0000
  H   H1689     1.0  0.58986  0.04823  0.27709  1.0000
  H   H1690     1.0  0.51130  0.03181  0.23315  1.0000
  C   C2107     1.0  0.74752  0.19587  0.25904  1.0000
  H   H1691     1.0  0.58128  0.19607  0.23692  1.0000
  H   H1692     1.0  0.59645  0.11079  0.21732  1.0000
  C   C2108     1.0  0.59520  0.19188  0.20899  1.0000
  C   C2109     1.0  0.60890  0.00921  0.19531  1.0000
  H   H1693     1.0  0.61795  0.99909  0.24661  1.0000
  H   H1694     1.0  0.53753  0.03979  0.20679  1.0000
  C   C2110     1.0  0.60514  0.07028  0.24216  1.0000
  H   H1695     1.0  0.73860  0.99441  0.30093  1.0000
  H   H1696     1.0  0.58924  0.19484  0.26822  1.0000
  C   C2111     1.0  0.63056  0.04337  0.23768  1.0000
  C   C2112     1.0  0.59067  0.11309  0.20451  1.0000
  C   C2113     1.0  0.53770  0.06257  0.23962  1.0000
  C   C2114     1.0  0.73213  0.09877  0.28719  1.0000
  H   H1697     1.0  0.64859  0.08173  0.24067  1.0000
  H   H1698     1.0  0.57661  0.98270  0.29051  1.0000
  H   H1699     1.0  0.71685  0.20471  0.26426  1.0000
  C   C2115     1.0  0.60101  0.02281  0.20689  1.0000
  H   H1700     1.0  0.58189  0.99938  0.25778  1.0000
  C   C2116     1.0  0.50155  0.13093  0.26579  1.0000
  H   H1701     1.0  0.50271  0.16035  0.26478  1.0000
  C   C2117     1.0  0.61956  0.99192  0.20237  1.0000
  C   C2118     1.0  0.55572  0.01260  0.21249  1.0000
  C   C2119     1.0  0.58336  0.02464  0.29842  1.0000
  H   H1702     1.0  0.60397  0.22176  0.23184  1.0000
  C   C2120     1.0  0.59347  0.21472  0.28409  1.0000
  C   C2121     1.0  0.50744  0.14303  0.21495  1.0000
  C   C2122     1.0  0.49866  0.16139  0.21760  1.0000
  C   C2123     1.0  0.52897  0.16783  0.22122  1.0000
  C   C2124     1.0  0.53669  0.98344  0.28568  1.0000
  Fe  Fe157     1.0  0.63424  0.04251  0.29800  1.0000
  S   S307      1.0  0.64819  0.21961  0.27690  1.0000
  C   C2125     1.0  0.65603  0.22809  0.22981  1.0000
  C   C2126     1.0  0.69851  0.98347  0.27967  1.0000
  H   H1703     1.0  0.50374  0.09777  0.30076  1.0000
  C   C2127     1.0  0.75137  0.11491  0.29955  1.0000
  H   H1704     1.0  0.49891  0.13326  0.21318  1.0000
  S   S308      1.0  0.50118  0.21931  0.24490  1.0000
  H   H1705     1.0  0.71157  0.17998  0.29219  1.0000
  C   C2128     1.0  0.63150  0.98806  0.28571  1.0000
  H   H1706     1.0  0.73067  0.08683  0.28145  1.0000
  C   C2129     1.0  0.54304  0.99031  0.23917  1.0000
  C   C2130     1.0  0.62267  0.98835  0.22090  1.0000
  H   H1707     1.0  0.76508  0.11540  0.30281  1.0000
  C   C2131     1.0  0.71664  0.11358  0.28960  1.0000
  H   H1708     1.0  0.70640  0.14034  0.29882  1.0000
  C   C2132     1.0  0.54574  0.15692  0.29461  1.0000
  H   H1709     1.0  0.74974  0.20675  0.24674  1.0000
  C   C2133     1.0  0.66524  0.13433  0.30209  1.0000
  S   S309      1.0  0.50131  0.09397  0.26399  1.0000
  Fe  Fe158     1.0  0.66418  0.20017  0.29838  1.0000
  H   H1710     1.0  0.68691  0.98061  0.27424  1.0000
  C   C2134     1.0  0.57949  0.00620  0.30230  1.0000
  C   C2135     1.0  0.52223  0.22589  0.05755  1.0000
  S   S310      1.0  0.67433  0.16859  0.30185  1.0000
  C   C2136     1.0  0.73560  0.12945  0.30276  1.0000
  C   C2137     1.0  0.49036  0.11783  0.26479  1.0000
  Fe  Fe159     1.0  0.75031  0.07975  0.56533  1.0000
  S   S311      1.0  0.72290  0.09720  0.55780  1.0000
  S   S312      1.0  0.76592  0.09279  0.58138  1.0000
  H   H1711     1.0  0.75963  0.11546  0.54540  1.0000
  S   S313      1.0  0.68218  0.07096  0.58478  1.0000
  Fe  Fe160     1.0  0.73261  0.08706  0.53029  1.0000
  S   S314      1.0  0.73129  0.10746  0.50322  1.0000
  C   C2138     1.0  0.53298  0.14997  0.31027  1.0000
  Fe  Fe161     1.0  0.77684  0.20143  0.55717  1.0000
  S   S315      1.0  0.74834  0.21909  0.56599  1.0000
  S   S316      1.0  0.77750  0.17664  0.54303  1.0000
  H   H1712     1.0  0.58355  0.03174  0.30981  1.0000
  C   C2139     1.0  0.52640  0.05323  0.31577  1.0000
  H   H1713     1.0  0.73924  0.99377  0.33834  1.0000
  H   H1714     1.0  0.84321  0.99181  0.41792  1.0000
  H   H1715     1.0  0.77369  0.07743  0.47551  1.0000
  H   H1716     1.0  0.73559  0.99098  0.37891  1.0000
  H   H1717     1.0  0.80356  0.00893  0.53153  1.0000
  S   S317      1.0  0.78917  0.20290  0.58211  1.0000
  C   C2140     1.0  0.69318  0.20438  0.47888  1.0000
  H   H1718     1.0  0.57661  0.99901  0.31674  1.0000
  S   S318      1.0  0.64431  0.21086  0.32293  1.0000
  H   H1719     1.0  0.76649  0.04822  0.49860  1.0000
  C   C2141     1.0  0.65754  0.13331  0.63304  1.0000
  H   H1720     1.0  0.71400  0.12506  0.61070  1.0000
  H   H1721     1.0  0.67323  0.12918  0.31353  1.0000
  H   H1722     1.0  0.82071  0.01986  0.40544  1.0000
  C   C2142     1.0  0.75583  0.20461  0.50647  1.0000
  Fe  Fe162     1.0  0.76462  0.20964  0.41996  1.0000
  S   S319      1.0  0.75563  0.18122  0.43218  1.0000
  C   C2143     1.0  0.72575  0.16460  0.51580  1.0000
  C   C2144     1.0  0.61497  0.18726  0.59698  1.0000
  C   C2145     1.0  0.81206  0.09015  0.43190  1.0000
  C   C2146     1.0  0.80122  0.02310  0.50326  1.0000
  Fe  Fe163     1.0  0.73807  0.07927  0.37531  1.0000
  S   S320      1.0  0.76998  0.07073  0.37373  1.0000
  S   S321      1.0  0.72357  0.08978  0.34995  1.0000
  Fe  Fe164     1.0  0.73036  0.07425  0.41752  1.0000
  S   S322      1.0  0.76145  0.06600  0.41984  1.0000
  S   S323      1.0  0.70647  0.07373  0.44244  1.0000
  Fe  Fe165     1.0  0.76589  0.08948  0.39531  1.0000
  S   S324      1.0  0.78655  0.10963  0.39190  1.0000
  Fe  Fe166     1.0  0.76308  0.04777  0.39836  1.0000
  S   S325      1.0  0.73455  0.09959  0.39504  1.0000
  S   S326      1.0  0.73164  0.05452  0.39781  1.0000
  H   H1723     1.0  0.69592  0.04133  0.42837  1.0000
  C   C2147     1.0  0.66833  0.06710  0.35615  1.0000
  C   C2148     1.0  0.77569  0.12333  0.34678  1.0000
  H   H1724     1.0  0.72061  0.00410  0.56676  1.0000
  C   C2149     1.0  0.72965  0.98788  0.50287  1.0000
  C   C2150     1.0  0.65843  0.99845  0.35776  1.0000
  H   H1725     1.0  0.51773  0.15417  0.31030  1.0000
  H   H1726     1.0  0.71926  0.01755  0.41185  1.0000
  H   H1727     1.0  0.74831  0.01744  0.38526  1.0000
  C   C2151     1.0  0.67525  0.07820  0.33921  1.0000
  C   C2152     1.0  0.69147  0.08640  0.33773  1.0000
  C   C2153     1.0  0.70097  0.08321  0.35308  1.0000
  C   C2154     1.0  0.69306  0.07345  0.37038  1.0000
  H   H1728     1.0  0.66855  0.07990  0.32709  1.0000
  H   H1729     1.0  0.69727  0.09431  0.32442  1.0000
  H   H1730     1.0  0.59262  0.21865  0.56399  1.0000
  C   C2155     1.0  0.76360  0.16212  0.41971  1.0000
  C   C2156     1.0  0.77936  0.16207  0.40503  1.0000
  C   C2157     1.0  0.78622  0.14600  0.39632  1.0000
  C   C2158     1.0  0.77707  0.13015  0.40195  1.0000
  C   C2159     1.0  0.76114  0.13037  0.41636  1.0000
  C   C2160     1.0  0.75464  0.14615  0.42541  1.0000
  H   H1731     1.0  0.78654  0.17419  0.40069  1.0000
  H   H1732     1.0  0.79870  0.14583  0.38531  1.0000
  H   H1733     1.0  0.75427  0.11808  0.42098  1.0000
  H   H1734     1.0  0.74279  0.14577  0.43700  1.0000
  C   C2161     1.0  0.68183  0.02552  0.60954  1.0000
  H   H1735     1.0  0.71227  0.19741  0.54459  1.0000
  H   H1736     1.0  0.82591  0.00640  0.47305  1.0000
  H   H1737     1.0  0.69229  0.98378  0.32174  1.0000
  C   C2162     1.0  0.78396  0.12761  0.49750  1.0000
  C   C2163     1.0  0.55973  0.13175  0.32475  1.0000
  C   C2164     1.0  0.81229  0.07115  0.44037  1.0000
  C   C2165     1.0  0.70942  0.21253  0.53959  1.0000
  C   C2166     1.0  0.71187  0.18119  0.51490  1.0000
  H   H1738     1.0  0.67838  0.02490  0.37739  1.0000
  C   C2167     1.0  0.49361  0.11932  0.62011  1.0000
  P   P69       1.0  0.79781  0.04164  0.46670  1.0000
  C   C2168     1.0  0.70715  0.21303  0.48271  1.0000
  H   H1739     1.0  0.53216  0.14426  0.62900  1.0000
  H   H1740     1.0  0.73537  0.98863  0.42980  1.0000
  H   H1741     1.0  0.80108  0.04139  0.42632  1.0000
  H   H1742     1.0  0.75000  0.20939  0.51977  1.0000
  H   H1743     1.0  0.49376  0.15575  0.58416  1.0000
  C   C2169     1.0  0.85702  0.15936  0.49511  1.0000
  C   C2170     1.0  0.80248  0.12935  0.48768  1.0000
  Fe  Fe167     1.0  0.59969  0.06651  0.31857  1.0000
  P   P70       1.0  0.63796  0.19060  0.62161  1.0000
  H   H1744     1.0  0.56539  0.09988  0.39203  1.0000
  S   S327      1.0  0.73821  0.05291  0.57740  1.0000
  C   C2171     1.0  0.64388  0.99117  0.33412  1.0000
  C   C2172     1.0  0.68073  0.98379  0.58275  1.0000
  C   C2173     1.0  0.72352  0.09869  0.48644  1.0000
  C   C2174     1.0  0.73120  0.10360  0.46742  1.0000
  C   C2175     1.0  0.72587  0.09597  0.45387  1.0000
  C   C2176     1.0  0.71223  0.08410  0.45925  1.0000
  C   C2177     1.0  0.70362  0.08011  0.47814  1.0000
  C   C2178     1.0  0.70952  0.08716  0.49181  1.0000
  H   H1745     1.0  0.74141  0.11314  0.46315  1.0000
  H   H1746     1.0  0.73227  0.09928  0.43925  1.0000
  H   H1747     1.0  0.69288  0.07110  0.48226  1.0000
  H   H1748     1.0  0.70310  0.08385  0.50642  1.0000
  C   C2179     1.0  0.76884  0.11628  0.57100  1.0000
  C   C2180     1.0  0.77578  0.12733  0.58058  1.0000
  C   C2181     1.0  0.77799  0.14611  0.57245  1.0000
  C   C2182     1.0  0.77378  0.15371  0.55448  1.0000
  C   C2183     1.0  0.76735  0.14249  0.54473  1.0000
  C   C2184     1.0  0.76465  0.12395  0.55303  1.0000
  H   H1749     1.0  0.77959  0.12133  0.59424  1.0000
  H   H1750     1.0  0.78337  0.15456  0.57984  1.0000
  H   H1751     1.0  0.76440  0.14822  0.53071  1.0000
  C   C2185     1.0  0.53977  0.06478  0.31478  1.0000
  P   P71       1.0  0.71829  0.20388  0.50333  1.0000
  H   H1752     1.0  0.53753  0.19377  0.30681  1.0000
  H   H1753     1.0  0.68207  0.19293  0.52367  1.0000
  C   C2186     1.0  0.63581  0.98655  0.61783  1.0000
  H   H1754     1.0  0.77566  0.04585  0.62242  1.0000
  H   H1755     1.0  0.64753  0.13895  0.38689  1.0000
  C   C2187     1.0  0.65846  0.16225  0.60160  1.0000
  H   H1756     1.0  0.52390  0.08682  0.35254  1.0000
  H   H1757     1.0  0.79078  0.01494  0.50216  1.0000
  H   H1758     1.0  0.81661  0.10190  0.56829  1.0000
  H   H1759     1.0  0.67114  0.05734  0.38521  1.0000
  P   P72       1.0  0.82308  0.12000  0.49889  1.0000
  C   C2188     1.0  0.82212  0.02976  0.52170  1.0000
  H   H1760     1.0  0.53880  0.06071  0.63062  1.0000
  H   H1761     1.0  0.65281  0.07298  0.61735  1.0000
  H   H1762     1.0  0.81716  0.17941  0.52258  1.0000
  C   C2189     1.0  0.73571  0.97974  0.34108  1.0000
  C   C2190     1.0  0.74386  0.20100  0.49550  1.0000
  C   C2191     1.0  0.50060  0.14092  0.37754  1.0000
  H   H1763     1.0  0.87137  0.16168  0.48853  1.0000
  H   H1764     1.0  0.71170  0.07998  0.60065  1.0000
  H   H1765     1.0  0.70383  0.20548  0.60509  1.0000
  C   C2192     1.0  0.64916  0.16650  0.61933  1.0000
  C   C2193     1.0  0.81923  0.11012  0.53820  1.0000
  S   S328      1.0  0.75847  0.01888  0.53736  1.0000
  C   C2194     1.0  0.82475  0.00967  0.45831  1.0000
  H   H1766     1.0  0.68496  0.02781  0.59431  1.0000
  C   C2195     1.0  0.60382  0.19411  0.58288  1.0000
  H   H1767     1.0  0.68769  0.03533  0.46308  1.0000
  H   H1768     1.0  0.68991  0.00309  0.55760  1.0000
  H   H1769     1.0  0.57502  0.22548  0.34509  1.0000
  H   H1770     1.0  0.56556  0.12142  0.33582  1.0000
  H   H1771     1.0  0.54861  0.12652  0.37151  1.0000
  H   H1772     1.0  0.69768  0.13272  0.54054  1.0000
  C   C2196     1.0  0.62381  0.19959  0.60314  1.0000
  C   C2197     1.0  0.81536  0.09796  0.55532  1.0000
  C   C2198     1.0  0.70437  0.14526  0.33764  1.0000
  H   H1773     1.0  0.54045  0.06065  0.37317  1.0000
  H   H1774     1.0  0.75235  0.11638  0.33754  1.0000
  C   C2199     1.0  0.70261  0.02835  0.43636  1.0000
  C   C2200     1.0  0.70694  0.00842  0.46632  1.0000
  C   C2201     1.0  0.64392  0.20478  0.43118  1.0000
  C   C2202     1.0  0.79830  0.10436  0.43929  1.0000
  C   C2203     1.0  0.75488  0.00294  0.38965  1.0000
  S   S329      1.0  0.76126  0.07181  0.53671  1.0000
  C   C2204     1.0  0.52639  0.03639  0.32882  1.0000
  H   H1775     1.0  0.58777  0.13411  0.30829  1.0000
  C   C2205     1.0  0.53669  0.98323  0.30464  1.0000
  H   H1776     1.0  0.56139  0.06691  0.39284  1.0000
  C   C2206     1.0  0.67681  0.06537  0.37191  1.0000
  C   C2207     1.0  0.83468  0.00129  0.42722  1.0000
  C   C2208     1.0  0.77567  0.20190  0.50041  1.0000
  H   H1777     1.0  0.85036  0.18427  0.50802  1.0000
  C   C2209     1.0  0.81683  0.10542  0.52146  1.0000
  C   C2210     1.0  0.52501  0.21313  0.32609  1.0000
  H   H1778     1.0  0.79489  0.99310  0.43870  1.0000
  H   H1779     1.0  0.82403  0.12308  0.53828  1.0000
  H   H1780     1.0  0.73441  0.04787  0.34658  1.0000
  C   C2211     1.0  0.78472  0.09961  0.45512  1.0000
  H   H1781     1.0  0.49395  0.08016  0.38330  1.0000
  H   H1782     1.0  0.74315  0.19165  0.46977  1.0000
  C   C2212     1.0  0.87156  0.08294  0.48264  1.0000
  H   H1783     1.0  0.71819  0.03931  0.47916  1.0000
  C   C2213     1.0  0.69308  0.99580  0.38003  1.0000
  H   H1784     1.0  0.81892  0.20838  0.49433  1.0000
  C   C2214     1.0  0.71599  0.01514  0.42707  1.0000
  C   C2215     1.0  0.60272  0.13209  0.34734  1.0000
  C   C2216     1.0  0.61472  0.13682  0.33024  1.0000
  C   C2217     1.0  0.61412  0.15579  0.32168  1.0000
  C   C2218     1.0  0.60174  0.17010  0.33026  1.0000
  C   C2219     1.0  0.58968  0.16551  0.34747  1.0000
  C   C2220     1.0  0.59024  0.14638  0.35600  1.0000
  P   P73       1.0  0.57435  0.18442  0.35843  1.0000
  C   C2221     1.0  0.56190  0.17505  0.38127  1.0000
  C   C2222     1.0  0.58995  0.19992  0.36033  1.0000
  C   C2223     1.0  0.60628  0.19224  0.36865  1.0000
  C   C2224     1.0  0.61882  0.20390  0.36981  1.0000
  C   C2225     1.0  0.76352  0.03874  0.62841  1.0000
  C   C2226     1.0  0.68386  0.99568  0.41894  1.0000
  C   C2227     1.0  0.77925  0.98012  0.40403  1.0000
  C   C2228     1.0  0.56625  0.17807  0.39793  1.0000
  C   C2229     1.0  0.55638  0.17058  0.41541  1.0000
  C   C2230     1.0  0.54206  0.16013  0.41639  1.0000
  C   C2231     1.0  0.53749  0.15727  0.39987  1.0000
  C   C2232     1.0  0.54728  0.16479  0.38238  1.0000
  C   C2233     1.0  0.55575  0.19624  0.34500  1.0000
  C   C2234     1.0  0.55407  0.19004  0.32876  1.0000
  H   H1785     1.0  0.49712  0.18163  0.55687  1.0000
  C   C2235     1.0  0.71841  0.13789  0.60217  1.0000
  H   H1786     1.0  0.66330  0.98244  0.30993  1.0000
  C   C2236     1.0  0.54175  0.21083  0.35176  1.0000
  H   H1787     1.0  0.60330  0.11732  0.35390  1.0000
  H   H1788     1.0  0.62450  0.12578  0.32361  1.0000
  C   C2237     1.0  0.64210  0.99707  0.35129  1.0000
  H   H1789     1.0  0.60168  0.18479  0.32349  1.0000
  H   H1790     1.0  0.58139  0.14237  0.36939  1.0000
  H   H1791     1.0  0.60947  0.17719  0.37397  1.0000
  H   H1792     1.0  0.63549  0.98514  0.60361  1.0000
  C   C2238     1.0  0.51185  0.10904  0.62220  1.0000
  C   C2239     1.0  0.71116  0.21985  0.52022  1.0000
  H   H1793     1.0  0.62802  0.00110  0.35936  1.0000
  H   H1794     1.0  0.57709  0.18630  0.39758  1.0000
  H   H1795     1.0  0.55982  0.17293  0.42822  1.0000
  H   H1796     1.0  0.53444  0.15435  0.42995  1.0000
  H   H1797     1.0  0.52634  0.14926  0.40062  1.0000
  H   H1798     1.0  0.54354  0.16258  0.36966  1.0000
  H   H1799     1.0  0.56445  0.17872  0.32321  1.0000
  C   C2240     1.0  0.61534  0.22324  0.36239  1.0000
  H   H1800     1.0  0.65658  0.00369  0.37077  1.0000
  S   S330      1.0  0.64974  0.05454  0.35779  1.0000
  C   C2241     1.0  0.71946  0.05102  0.32357  1.0000
  H   H1801     1.0  0.61653  0.17236  0.60318  1.0000
  H   H1802     1.0  0.80595  0.07176  0.56920  1.0000
  S   S331      1.0  0.77964  0.01771  0.40384  1.0000
  C   C2242     1.0  0.77061  0.99909  0.39879  1.0000
  H   H1803     1.0  0.78161  0.12016  0.51185  1.0000
  C   C2243     1.0  0.52653  0.21934  0.34223  1.0000
  H   H1804     1.0  0.66447  0.10573  0.39359  1.0000
  Fe  Fe168     1.0  0.74660  0.04654  0.54801  1.0000
  S   S332      1.0  0.71862  0.06147  0.53935  1.0000
  Fe  Fe169     1.0  0.76109  0.22214  0.59009  1.0000
  Fe  Fe170     1.0  0.71153  0.07013  0.56761  1.0000
  S   S333      1.0  0.56798  0.07554  0.32691  1.0000
  H   H1805     1.0  0.69964  0.07177  0.38251  1.0000
  C   C2244     1.0  0.49901  0.17938  0.36227  1.0000
  H   H1806     1.0  0.84569  0.98521  0.45180  1.0000
  C   C2245     1.0  0.80937  0.08094  0.55584  1.0000
  H   H1807     1.0  0.79749  0.13431  0.35473  1.0000
  C   C2246     1.0  0.54032  0.03076  0.34041  1.0000
  S   S334      1.0  0.78914  0.22635  0.53934  1.0000
  C   C2247     1.0  0.64880  0.15191  0.63505  1.0000
  C   C2248     1.0  0.78893  0.14744  0.46055  1.0000
  C   C2249     1.0  0.77056  0.14556  0.47038  1.0000
  C   C2250     1.0  0.76811  0.13579  0.48883  1.0000
  C   C2251     1.0  0.68235  0.07566  0.60702  1.0000
  C   C2252     1.0  0.80484  0.13967  0.46927  1.0000
  H   H1808     1.0  0.63390  0.20718  0.44394  1.0000
  H   H1809     1.0  0.84796  0.08219  0.44772  1.0000
  H   H1810     1.0  0.79076  0.15517  0.44623  1.0000
  H   H1811     1.0  0.75817  0.15163  0.46374  1.0000
  H   H1812     1.0  0.75387  0.13450  0.49637  1.0000
  C   C2253     1.0  0.72101  0.99546  0.45708  1.0000
  H   H1813     1.0  0.75074  0.11465  0.61433  1.0000
  H   H1814     1.0  0.82329  0.06048  0.43452  1.0000
  C   C2254     1.0  0.68316  0.22844  0.61517  1.0000
  C   C2255     1.0  0.72953  0.17087  0.57970  1.0000
  C   C2256     1.0  0.72317  0.15819  0.57176  1.0000
  C   C2257     1.0  0.71743  0.14180  0.58301  1.0000
  H   H1815     1.0  0.63570  0.22826  0.63063  1.0000
  H   H1816     1.0  0.62340  0.15947  0.30846  1.0000
  C   C2258     1.0  0.73055  0.16702  0.59884  1.0000
  H   H1817     1.0  0.80522  0.15197  0.51798  1.0000
  C   C2259     1.0  0.70646  0.04407  0.31646  1.0000
  S   S335      1.0  0.78400  0.21756  0.39266  1.0000
  H   H1818     1.0  0.54036  0.01770  0.35050  1.0000
  S   S336      1.0  0.74483  0.21424  0.61959  1.0000
  H   H1819     1.0  0.67305  0.16201  0.53967  1.0000
  P   P74       1.0  0.69800  0.99596  0.35496  1.0000
  C   C2260     1.0  0.83601  0.99756  0.44629  1.0000
  C   C2261     1.0  0.66714  0.14366  0.59964  1.0000
  C   C2262     1.0  0.69894  0.07945  0.61126  1.0000
  C   C2263     1.0  0.74134  0.04340  0.49097  1.0000
  C   C2264     1.0  0.71070  0.99555  0.57599  1.0000
  H   H1820     1.0  0.53038  0.99581  0.31074  1.0000
  Fe  Fe171     1.0  0.63773  0.05913  0.33120  1.0000
  C   C2265     1.0  0.80699  0.03730  0.48839  1.0000
  H   H1821     1.0  0.56437  0.03816  0.34849  1.0000
  H   H1822     1.0  0.73435  0.18334  0.57085  1.0000
  H   H1823     1.0  0.72310  0.16091  0.55682  1.0000
  H   H1824     1.0  0.71270  0.13185  0.57682  1.0000
  H   H1825     1.0  0.67479  0.20434  0.45949  1.0000
  H   H1826     1.0  0.65344  0.22411  0.38488  1.0000
  H   H1827     1.0  0.87857  0.06816  0.45908  1.0000
  C   C2266     1.0  0.71783  0.02574  0.35051  1.0000
  H   H1828     1.0  0.77398  0.11060  0.46075  1.0000
  C   C2267     1.0  0.76717  0.15920  0.32514  1.0000
  C   C2268     1.0  0.68522  0.21132  0.46255  1.0000
  C   C2269     1.0  0.66200  0.98651  0.32347  1.0000
  C   C2270     1.0  0.71676  0.15779  0.32786  1.0000
  H   H1829     1.0  0.80851  0.08454  0.50943  1.0000
  H   H1830     1.0  0.68932  0.02263  0.32044  1.0000
  C   C2271     1.0  0.81087  0.02928  0.43210  1.0000
  S   S337      1.0  0.61713  0.08586  0.32401  1.0000
  H   H1831     1.0  0.67058  0.17573  0.36144  1.0000
  C   C2272     1.0  0.65047  0.22312  0.62482  1.0000
  C   C2273     1.0  0.68367  0.17056  0.35250  1.0000
  H   H1832     1.0  0.73414  0.00040  0.49381  1.0000
  C   C2274     1.0  0.66973  0.19857  0.39816  1.0000
  C   C2275     1.0  0.67185  0.18591  0.41505  1.0000
  C   C2276     1.0  0.65864  0.18896  0.43149  1.0000
  P   P75       1.0  0.69023  0.16498  0.41532  1.0000
  C   C2277     1.0  0.69605  0.15844  0.43876  1.0000
  C   C2278     1.0  0.68152  0.14613  0.40908  1.0000
  C   C2279     1.0  0.69076  0.12721  0.41309  1.0000
  C   C2280     1.0  0.68448  0.11275  0.40763  1.0000
  C   C2281     1.0  0.66897  0.11698  0.39815  1.0000
  C   C2282     1.0  0.65948  0.13569  0.39438  1.0000
  C   C2283     1.0  0.66572  0.15023  0.39978  1.0000
  C   C2284     1.0  0.70788  0.16835  0.44432  1.0000
  C   C2285     1.0  0.71241  0.16338  0.46240  1.0000
  C   C2286     1.0  0.70489  0.14875  0.47522  1.0000
  C   C2287     1.0  0.69267  0.13916  0.47002  1.0000
  C   C2288     1.0  0.68817  0.14401  0.45192  1.0000
  C   C2289     1.0  0.71156  0.17034  0.39887  1.0000
  C   C2290     1.0  0.71700  0.18814  0.39645  1.0000
  C   C2291     1.0  0.73381  0.19204  0.38422  1.0000
  C   C2292     1.0  0.74530  0.17826  0.37427  1.0000
  C   C2293     1.0  0.73995  0.16060  0.37649  1.0000
  C   C2294     1.0  0.72317  0.15665  0.38867  1.0000
  C   C2295     1.0  0.68776  0.15172  0.34972  1.0000
  C   C2296     1.0  0.82080  0.04733  0.49017  1.0000
  C   C2297     1.0  0.69947  0.02766  0.32615  1.0000
  H   H1833     1.0  0.67952  0.19639  0.38518  1.0000
  H   H1834     1.0  0.65967  0.17914  0.44457  1.0000
  H   H1835     1.0  0.70300  0.12362  0.42023  1.0000
  H   H1836     1.0  0.69181  0.09821  0.41056  1.0000
  C   C2298     1.0  0.62122  0.21888  0.59497  1.0000
  H   H1837     1.0  0.65834  0.16462  0.39642  1.0000
  H   H1838     1.0  0.71410  0.17962  0.43465  1.0000
  H   H1839     1.0  0.72217  0.17063  0.46624  1.0000
  H   H1840     1.0  0.70881  0.14455  0.48906  1.0000
  H   H1841     1.0  0.68714  0.12755  0.47989  1.0000
  H   H1842     1.0  0.67868  0.13633  0.44828  1.0000
  H   H1843     1.0  0.70847  0.19898  0.40417  1.0000
  H   H1844     1.0  0.73813  0.20566  0.38264  1.0000
  H   H1845     1.0  0.75849  0.18120  0.36509  1.0000
  H   H1846     1.0  0.74901  0.14977  0.36907  1.0000
  H   H1847     1.0  0.71958  0.14279  0.39017  1.0000
  P   P76       1.0  0.72783  0.14459  0.63457  1.0000
  C   C2299     1.0  0.76502  0.98022  0.54517  1.0000
  H   H1848     1.0  0.67795  0.14210  0.35657  1.0000
  C   C2300     1.0  0.74773  0.98799  0.38597  1.0000
  C   C2301     1.0  0.50566  0.12057  0.33582  1.0000
  H   H1849     1.0  0.51765  0.17030  0.33807  1.0000
  P   P77       1.0  0.52298  0.12829  0.34547  1.0000
  C   C2302     1.0  0.51073  0.14630  0.35939  1.0000
  C   C2303     1.0  0.53474  0.10876  0.36072  1.0000
  C   C2304     1.0  0.54645  0.11224  0.37206  1.0000
  C   C2305     1.0  0.55595  0.09721  0.38369  1.0000
  C   C2306     1.0  0.55367  0.07863  0.38421  1.0000
  C   C2307     1.0  0.54180  0.07509  0.37320  1.0000
  C   C2308     1.0  0.53239  0.09007  0.36145  1.0000
  C   C2309     1.0  0.51012  0.16566  0.35198  1.0000
  H   H1850     1.0  0.54261  0.21561  0.36442  1.0000
  H   H1851     1.0  0.72923  0.99832  0.52816  1.0000
  C   C2310     1.0  0.72997  0.03747  0.63094  1.0000
  H   H1852     1.0  0.59944  0.18090  0.63504  1.0000
  C   C2311     1.0  0.72507  0.99872  0.43733  1.0000
  C   C2312     1.0  0.51195  0.11093  0.32051  1.0000
  H   H1853     1.0  0.73139  0.13452  0.52611  1.0000
  H   H1854     1.0  0.49862  0.05912  0.35974  1.0000
  H   H1855     1.0  0.85983  0.13394  0.48409  1.0000
  C   C2313     1.0  0.78186  0.15534  0.33571  1.0000
  H   H1856     1.0  0.76366  0.17334  0.31729  1.0000
  C   C2314     1.0  0.75695  0.14496  0.32501  1.0000
  H   H1857     1.0  0.75998  0.99745  0.44462  1.0000
  C   C2315     1.0  0.53985  0.13758  0.32565  1.0000
  H   H1858     1.0  0.80212  0.06304  0.53979  1.0000
  C   C2316     1.0  0.58674  0.21930  0.35265  1.0000
  C   C2317     1.0  0.65491  0.21428  0.39790  1.0000
  H   H1859     1.0  0.49799  0.19431  0.35616  1.0000
  H   H1860     1.0  0.76573  0.14921  0.61304  1.0000
  C   C2318     1.0  0.81978  0.15382  0.51161  1.0000
  H   H1861     1.0  0.51590  0.05761  0.30662  1.0000
  C   C2319     1.0  0.69289  0.18020  0.52387  1.0000
  C   C2320     1.0  0.68775  0.16277  0.53302  1.0000
  C   C2321     1.0  0.73351  0.03858  0.47731  1.0000
  H   H1862     1.0  0.51319  0.21972  0.31873  1.0000
  C   C2322     1.0  0.69341  0.99493  0.57084  1.0000
  C   C2323     1.0  0.80706  0.07612  0.53926  1.0000
  C   C2324     1.0  0.69798  0.02493  0.45596  1.0000
  H   H1863     1.0  0.83627  0.21589  0.51681  1.0000
  H   H1864     1.0  0.79911  0.19300  0.47896  1.0000
  H   H1865     1.0  0.81896  0.14166  0.46164  1.0000
  C   C2325     1.0  0.70541  0.01815  0.34310  1.0000
  C   C2326     1.0  0.72700  0.98669  0.52236  1.0000
  H   H1866     1.0  0.67043  0.02481  0.41157  1.0000
  C   C2327     1.0  0.67828  0.01208  0.40637  1.0000
  H   H1867     1.0  0.72261  0.18626  0.32430  1.0000
  H   H1868     1.0  0.78476  0.20464  0.50904  1.0000
  C   C2328     1.0  0.52578  0.11802  0.62529  1.0000
  H   H1869     1.0  0.61019  0.00784  0.61934  1.0000
  H   H1870     1.0  0.52707  0.10793  0.31465  1.0000
  C   C2329     1.0  0.78624  0.13734  0.34637  1.0000
  C   C2330     1.0  0.85078  0.08606  0.46012  1.0000
  C   C2331     1.0  0.52146  0.13733  0.62632  1.0000
  H   H1871     1.0  0.68052  0.99569  0.43394  1.0000
  C   C2332     1.0  0.49876  0.10520  0.31257  1.0000
  C   C2333     1.0  0.72060  0.14727  0.52522  1.0000
  H   H1872     1.0  0.72205  0.01917  0.36387  1.0000
  C   C2334     1.0  0.69914  0.08226  0.62944  1.0000
  C   C2335     1.0  0.77298  0.03875  0.47161  1.0000
  S   S338      1.0  0.50850  0.02286  0.33117  1.0000
  H   H1873     1.0  0.68016  0.18478  0.60887  1.0000
  C   C2336     1.0  0.61006  0.22568  0.58087  1.0000
  C   C2337     1.0  0.76351  0.15575  0.62534  1.0000
  H   H1874     1.0  0.77806  0.18676  0.45945  1.0000
  C   C2338     1.0  0.78374  0.19527  0.48359  1.0000
  C   C2339     1.0  0.71515  0.98524  0.59316  1.0000
  H   H1875     1.0  0.71618  0.04396  0.62711  1.0000
  H   H1876     1.0  0.74058  0.16497  0.50950  1.0000
  C   C2340     1.0  0.77190  0.19160  0.47267  1.0000
  C   C2341     1.0  0.75205  0.19449  0.47853  1.0000
  C   C2342     1.0  0.84079  0.10418  0.48564  1.0000
  C   C2343     1.0  0.76506  0.03310  0.45835  1.0000
  C   C2344     1.0  0.70160  0.14629  0.53359  1.0000
  C   C2345     1.0  0.85044  0.14355  0.49273  1.0000
  C   C2346     1.0  0.72499  0.04196  0.34068  1.0000
  C   C2347     1.0  0.81214  0.02571  0.45129  1.0000
  C   C2348     1.0  0.69670  0.01872  0.61984  1.0000
  H   H1877     1.0  0.69336  0.19743  0.34571  1.0000
  P   P78       1.0  0.73785  0.14991  0.31163  1.0000
  C   C2349     1.0  0.80859  0.01953  0.51992  1.0000
  H   H1878     1.0  0.71125  0.01560  0.61243  1.0000
  C   C2350     1.0  0.86801  0.07812  0.46654  1.0000
  H   H1879     1.0  0.73559  0.17704  0.60471  1.0000
  H   H1880     1.0  0.82367  0.10436  0.46479  1.0000
  H   H1881     1.0  0.72459  0.06396  0.31636  1.0000
  S   S339      1.0  0.61902  0.03946  0.32812  1.0000
  C   C2351     1.0  0.62147  0.99945  0.62665  1.0000
  H   H1882     1.0  0.68872  0.19197  0.48807  1.0000
  H   H1883     1.0  0.73924  0.03020  0.45016  1.0000
  C   C2352     1.0  0.74559  0.04674  0.62353  1.0000
  H   H1884     1.0  0.73215  0.04751  0.50356  1.0000
  H   H1885     1.0  0.86079  0.09929  0.50483  1.0000
  C   C2353     1.0  0.83189  0.14045  0.50134  1.0000
  C   C2354     1.0  0.55393  0.04225  0.33922  1.0000
  C   C2355     1.0  0.67528  0.19876  0.61249  1.0000
  H   H1886     1.0  0.53984  0.10998  0.62712  1.0000
  C   C2356     1.0  0.76244  0.99692  0.55251  1.0000
  H   H1887     1.0  0.65168  0.03625  0.61073  1.0000
  C   C2357     1.0  0.72569  0.15011  0.61005  1.0000
  C   C2358     1.0  0.70460  0.22472  0.55275  1.0000
  C   C2359     1.0  0.79824  0.06619  0.45596  1.0000
  C   C2360     1.0  0.76094  0.04369  0.48809  1.0000
  H   H1888     1.0  0.82224  0.09389  0.41929  1.0000
  H   H1889     1.0  0.63161  0.19789  0.37586  1.0000
  C   C2361     1.0  0.84513  0.17219  0.50599  1.0000
  C   C2362     1.0  0.74537  0.03336  0.46105  1.0000
  C   C2363     1.0  0.82857  0.22715  0.50773  1.0000
  H   H1890     1.0  0.82772  0.02699  0.53469  1.0000
  C   C2364     1.0  0.69643  0.18285  0.34351  1.0000
  H   H1891     1.0  0.53934  0.07801  0.30502  1.0000
  C   C2365     1.0  0.85797  0.09584  0.49222  1.0000
  C   C2366     1.0  0.67674  0.99352  0.34726  1.0000
  H   H1892     1.0  0.74376  0.06017  0.61396  1.0000
  C   C2367     1.0  0.66667  0.12922  0.61535  1.0000
  C   C2368     1.0  0.55346  0.05941  0.32653  1.0000
  H   H1893     1.0  0.77376  0.02922  0.44549  1.0000
  C   C2369     1.0  0.82211  0.01713  0.42015  1.0000
  H   H1894     1.0  0.53202  0.00039  0.63515  1.0000
  C   C2370     1.0  0.53870  0.19845  0.31942  1.0000
  H   H1895     1.0  0.65904  0.17333  0.58931  1.0000
  H   H1896     1.0  0.67426  0.14036  0.58597  1.0000
  C   C2371     1.0  0.50312  0.14759  0.62454  1.0000
  H   H1897     1.0  0.82574  0.05807  0.47876  1.0000
  C   C2372     1.0  0.82831  0.04359  0.50679  1.0000
  H   H1898     1.0  0.83882  0.05151  0.50817  1.0000
  H   H1899     1.0  0.70291  0.00597  0.48146  1.0000
  C   C2373     1.0  0.81866  0.22296  0.49527  1.0000
  H   H1900     1.0  0.50080  0.12605  0.38351  1.0000
  C   C2374     1.0  0.78461  0.08065  0.46341  1.0000
  C   C2375     1.0  0.64208  0.21746  0.41438  1.0000
  C   C2376     1.0  0.66305  0.03030  0.61880  1.0000
  H   H1901     1.0  0.79794  0.11905  0.43256  1.0000
  H   H1902     1.0  0.70359  0.21899  0.56762  1.0000
  H   H1903     1.0  0.51501  0.09402  0.62159  1.0000
  C   C2377     1.0  0.76084  0.12721  0.33646  1.0000
  C   C2378     1.0  0.65589  0.20512  0.61953  1.0000
  C   C2379     1.0  0.68293  0.01216  0.38700  1.0000
  H   H1904     1.0  0.76145  0.00854  0.57722  1.0000
  C   C2380     1.0  0.82648  0.16947  0.51415  1.0000
  C   C2381     1.0  0.71297  0.17649  0.33129  1.0000
  H   H1905     1.0  0.67339  0.11484  0.61380  1.0000
  S   S340      1.0  0.77673  0.22601  0.43584  1.0000
  C   C2382     1.0  0.68883  0.21043  0.61031  1.0000
  C   C2383     1.0  0.60136  0.21332  0.57483  1.0000
  H   H1906     1.0  0.70732  0.13059  0.33578  1.0000
  C   C2384     1.0  0.57245  0.13881  0.30905  1.0000
  C   C2385     1.0  0.83711  0.09888  0.46973  1.0000
  C   C2386     1.0  0.66577  0.07552  0.62068  1.0000
  C   C2387     1.0  0.81063  0.08836  0.52214  1.0000
  H   H1907     1.0  0.74429  0.98696  0.62863  1.0000
  H   H1908     1.0  0.59699  0.18453  0.57829  1.0000
  H   H1909     1.0  0.88485  0.07666  0.48774  1.0000
  H   H1910     1.0  0.78969  0.16634  0.33585  1.0000
  C   C2388     1.0  0.76315  0.99573  0.57150  1.0000
  H   H1911     1.0  0.77879  0.10954  0.35543  1.0000
  C   C2389     1.0  0.76785  0.98492  0.45203  1.0000
  C   C2390     1.0  0.67838  0.98741  0.33013  1.0000
  H   H1912     1.0  0.50002  0.16245  0.62565  1.0000
  H   H1913     1.0  0.71205  0.08483  0.63283  1.0000
  C   C2391     1.0  0.74666  0.10839  0.62887  1.0000
  H   H1914     1.0  0.72841  0.98583  0.59728  1.0000
  C   C2392     1.0  0.78784  0.98256  0.44872  1.0000
  H   H1915     1.0  0.63120  0.99054  0.32890  1.0000
  H   H1916     1.0  0.76142  0.08072  0.62419  1.0000
  H   H1917     1.0  0.70144  0.05166  0.30367  1.0000
  C   C2393     1.0  0.75272  0.08900  0.63447  1.0000
  H   H1918     1.0  0.76498  0.98101  0.53039  1.0000
  H   H1919     1.0  0.79055  0.16554  0.61729  1.0000
  C   C2394     1.0  0.69097  0.22704  0.45001  1.0000
  C   C2395     1.0  0.77767  0.16486  0.62779  1.0000
  H   H1920     1.0  0.66742  0.98342  0.57855  1.0000
  C   C2396     1.0  0.71311  0.22856  0.46978  1.0000
  H   H1921     1.0  0.62765  0.22881  0.59943  1.0000
  S   S341      1.0  0.59280  0.07940  0.66387  1.0000
  S   S342      1.0  0.60922  0.11978  0.72724  1.0000
  S   S343      1.0  0.62953  0.10001  0.68140  1.0000
  C   C2397     1.0  0.62693  0.19595  0.65909  1.0000
  C   C2398     1.0  0.62170  0.19079  0.64388  1.0000
  Fe  Fe172     1.0  0.64217  0.21981  0.70712  1.0000
  H   H1922     1.0  0.58905  0.20824  0.74003  1.0000
  S   S344      1.0  0.65442  0.18842  0.71075  1.0000
  H   H1923     1.0  0.53471  0.22528  0.81326  1.0000
  C   C2399     1.0  0.60385  0.18519  0.64635  1.0000
  C   C2400     1.0  0.49357  0.20519  0.76623  1.0000
  H   H1924     1.0  0.64745  0.22312  0.76101  1.0000
  H   H1925     1.0  0.57766  0.18068  0.66546  1.0000
  C   C2401     1.0  0.51965  0.99993  0.71062  1.0000
  H   H1926     1.0  0.51710  0.07977  0.73871  1.0000
  P   P79       1.0  0.55696  0.00053  0.69072  1.0000
  C   C2402     1.0  0.70441  0.01203  0.67644  1.0000
  C   C2403     1.0  0.55772  0.00825  0.72627  1.0000
  C   C2404     1.0  0.69167  0.14141  0.65615  1.0000
  C   C2405     1.0  0.75006  0.01246  0.64867  1.0000
  H   H1927     1.0  0.64064  0.20012  0.65782  1.0000
  C   C2406     1.0  0.59680  0.19007  0.67872  1.0000
  H   H1928     1.0  0.51063  0.18296  0.78270  1.0000
  H   H1929     1.0  0.56452  0.98978  0.65348  1.0000
  C   C2407     1.0  0.52838  0.10419  0.72223  1.0000
  C   C2408     1.0  0.64024  0.00187  0.72286  1.0000
  C   C2409     1.0  0.58449  0.01838  0.73379  1.0000
  C   C2410     1.0  0.70475  0.15356  0.64727  1.0000
  C   C2411     1.0  0.63301  0.98537  0.73224  1.0000
  H   H1930     1.0  0.50880  0.16593  0.69683  1.0000
  C   C2412     1.0  0.58605  0.13108  0.65469  1.0000
  H   H1931     1.0  0.54721  0.17570  0.68887  1.0000
  C   C2413     1.0  0.52533  0.22175  0.82651  1.0000
  H   H1932     1.0  0.59361  0.01272  0.68831  1.0000
  H   H1933     1.0  0.49086  0.99968  0.72592  1.0000
  C   C2414     1.0  0.58551  0.01321  0.70230  1.0000
  H   H1934     1.0  0.71817  0.20773  0.65388  1.0000
  C   C2415     1.0  0.61450  0.19567  0.67637  1.0000
  C   C2416     1.0  0.59392  0.01848  0.71525  1.0000
  S   S345      1.0  0.64097  0.05387  0.68313  1.0000
  C   C2417     1.0  0.66597  0.07833  0.63879  1.0000
  C   C2418     1.0  0.69963  0.17298  0.64813  1.0000
  H   H1935     1.0  0.59123  0.02245  0.74376  1.0000
  C   C2419     1.0  0.56718  0.00829  0.70755  1.0000
  C   C2420     1.0  0.52796  0.03944  0.65278  1.0000
  H   H1936     1.0  0.67043  0.01932  0.66392  1.0000
  H   H1937     1.0  0.55431  0.08711  0.65535  1.0000
  H   H1938     1.0  0.57290  0.11291  0.72142  1.0000
  C   C2421     1.0  0.69709  0.03072  0.67934  1.0000
  C   C2422     1.0  0.57114  0.07290  0.67667  1.0000
  C   C2423     1.0  0.55417  0.07854  0.66918  1.0000
  C   C2424     1.0  0.53705  0.07282  0.67958  1.0000
  C   C2425     1.0  0.53697  0.06178  0.69755  1.0000
  C   C2426     1.0  0.55384  0.05652  0.70494  1.0000
  H   H1939     1.0  0.55902  0.01326  0.75369  1.0000
  H   H1940     1.0  0.69886  0.98995  0.72230  1.0000
  C   C2427     1.0  0.62156  0.13902  0.72222  1.0000
  C   C2428     1.0  0.64144  0.13622  0.71660  1.0000
  C   C2429     1.0  0.65123  0.15147  0.71356  1.0000
  C   C2430     1.0  0.64122  0.16980  0.71533  1.0000
  C   C2431     1.0  0.62126  0.17271  0.72069  1.0000
  C   C2432     1.0  0.61148  0.15730  0.72434  1.0000
  H   H1941     1.0  0.64932  0.12216  0.71510  1.0000
  H   H1942     1.0  0.66669  0.14906  0.70968  1.0000
  H   H1943     1.0  0.61347  0.18674  0.72231  1.0000
  H   H1944     1.0  0.59608  0.15951  0.72876  1.0000
  Fe  Fe173     1.0  0.65540  0.07773  0.68449  1.0000
  C   C2433     1.0  0.54558  0.07962  0.74306  1.0000
  H   H1945     1.0  0.65730  0.01439  0.69777  1.0000
  C   C2434     1.0  0.73094  0.11095  0.66081  1.0000
  H   H1946     1.0  0.52714  0.19653  0.87062  1.0000
  C   C2435     1.0  0.63079  0.18342  0.75985  1.0000
  C   C2436     1.0  0.64381  0.19559  0.75783  1.0000
  C   C2437     1.0  0.63744  0.21352  0.76281  1.0000
  C   C2438     1.0  0.54218  0.04932  0.64203  1.0000
  C   C2439     1.0  0.60477  0.20742  0.77130  1.0000
  C   C2440     1.0  0.61133  0.18933  0.76641  1.0000
  P   P80       1.0  0.57949  0.21507  0.77931  1.0000
  C   C2441     1.0  0.57123  0.19541  0.79605  1.0000
  C   C2442     1.0  0.67390  0.02102  0.64876  1.0000
  C   C2443     1.0  0.68274  0.08131  0.64330  1.0000
  H   H1947     1.0  0.54625  0.06633  0.75285  1.0000
  C   C2444     1.0  0.50496  0.20915  0.79349  1.0000
  C   C2445     1.0  0.50386  0.19772  0.78090  1.0000
  H   H1948     1.0  0.58818  0.12648  0.64128  1.0000
  C   C2446     1.0  0.55472  0.18899  0.79475  1.0000
  C   C2447     1.0  0.54889  0.17335  0.80746  1.0000
  C   C2448     1.0  0.55957  0.16392  0.82142  1.0000
  C   C2449     1.0  0.57617  0.17004  0.82262  1.0000
  C   C2450     1.0  0.58205  0.18565  0.80993  1.0000
  C   C2451     1.0  0.65590  0.98551  0.69682  1.0000
  H   H1949     1.0  0.61058  0.01149  0.65186  1.0000
  H   H1950     1.0  0.70926  0.18270  0.64085  1.0000
  H   H1951     1.0  0.56685  0.21810  0.65626  1.0000
  H   H1952     1.0  0.64461  0.03227  0.64558  1.0000
  H   H1953     1.0  0.57109  0.21787  0.71381  1.0000
  H   H1954     1.0  0.63579  0.16958  0.75579  1.0000
  H   H1955     1.0  0.65877  0.19123  0.75203  1.0000
  H   H1956     1.0  0.49217  0.20872  0.87416  1.0000
  C   C2452     1.0  0.57465  0.21614  0.74241  1.0000
  H   H1957     1.0  0.60140  0.17986  0.76738  1.0000
  C   C2453     1.0  0.56443  0.22141  0.72751  1.0000
  C   C2454     1.0  0.69288  0.01654  0.63952  1.0000
  H   H1958     1.0  0.54831  0.20470  0.84014  1.0000
  C   C2455     1.0  0.53215  0.02504  0.66786  1.0000
  H   H1959     1.0  0.80270  0.22723  0.64192  1.0000
  H   H1960     1.0  0.54654  0.19572  0.78374  1.0000
  H   H1961     1.0  0.53628  0.16827  0.80627  1.0000
  H   H1962     1.0  0.55519  0.15162  0.83107  1.0000
  H   H1963     1.0  0.58470  0.16247  0.83318  1.0000
  H   H1964     1.0  0.59519  0.19000  0.81078  1.0000
  C   C2456     1.0  0.57559  0.98152  0.66106  1.0000
  C   C2457     1.0  0.56642  0.01316  0.73934  1.0000
  H   H1965     1.0  0.51535  0.10980  0.71655  1.0000
  H   H1966     1.0  0.52081  0.01774  0.67583  1.0000
  P   P81       1.0  0.71227  0.00769  0.65260  1.0000
  H   H1967     1.0  0.68454  0.04909  0.69954  1.0000
  H   H1968     1.0  0.52405  0.07685  0.67372  1.0000
  C   C2458     1.0  0.52336  0.13907  0.68842  1.0000
  H   H1969     1.0  0.61865  0.19985  0.68794  1.0000
  C   C2459     1.0  0.59145  0.18492  0.66368  1.0000
  Fe  Fe174     1.0  0.61427  0.07599  0.68318  1.0000
  C   C2460     1.0  0.52916  0.08721  0.73513  1.0000
  C   C2461     1.0  0.53307  0.21014  0.84168  1.0000
  C   C2462     1.0  0.74742  0.08042  0.65311  1.0000
  C   C2463     1.0  0.69857  0.00134  0.71028  1.0000
  H   H1970     1.0  0.55706  0.12700  0.66203  1.0000
  H   H1971     1.0  0.51250  0.20284  0.80502  1.0000
  H   H1972     1.0  0.73144  0.16295  0.66533  1.0000
  C   C2464     1.0  0.70573  0.99742  0.69210  1.0000
  C   C2465     1.0  0.49239  0.15598  0.68127  1.0000
  H   H1973     1.0  0.57905  0.02766  0.66464  1.0000
  C   C2466     1.0  0.75835  0.17263  0.65705  1.0000
  H   H1974     1.0  0.57389  0.08333  0.74443  1.0000
  C   C2467     1.0  0.50143  0.21231  0.86083  1.0000
  S   S346      1.0  0.63494  0.02234  0.73355  1.0000
  H   H1975     1.0  0.55375  0.04830  0.71890  1.0000
  C   C2468     1.0  0.74641  0.15550  0.63846  1.0000
  C   C2469     1.0  0.61804  0.21937  0.76965  1.0000
  H   H1976     1.0  0.53263  0.11199  0.67924  1.0000
  C   C2470     1.0  0.52184  0.12467  0.67928  1.0000
  C   C2471     1.0  0.57560  0.98384  0.67944  1.0000
  H   H1977     1.0  0.62421  0.98524  0.74605  1.0000
  C   C2472     1.0  0.62169  0.00159  0.64492  1.0000
  H   H1978     1.0  0.58721  0.18979  0.69216  1.0000
  C   C2473     1.0  0.52113  0.20546  0.85884  1.0000
  C   C2474     1.0  0.50415  0.99120  0.72020  1.0000
  C   C2475     1.0  0.74417  0.16351  0.65464  1.0000
  H   H1979     1.0  0.50512  0.11500  0.66375  1.0000
  H   H1980     1.0  0.54366  0.00453  0.73097  1.0000
  H   H1981     1.0  0.73240  0.08481  0.68075  1.0000
  C   C2476     1.0  0.73658  0.09142  0.66629  1.0000
  C   C2477     1.0  0.69031  0.03463  0.69752  1.0000
  C   C2478     1.0  0.53674  0.98918  0.70265  1.0000
  H   H1982     1.0  0.65308  0.07820  0.64922  1.0000
  H   H1983     1.0  0.75168  0.06529  0.65736  1.0000
  H   H1984     1.0  0.68475  0.02289  0.72703  1.0000
  C   C2479     1.0  0.56479  0.03055  0.66151  1.0000
  S   S347      1.0  0.68321  0.08365  0.66629  1.0000
  C   C2480     1.0  0.69070  0.01991  0.71298  1.0000
  C   C2481     1.0  0.73539  0.11947  0.64189  1.0000
  C   C2482     1.0  0.54425  0.11353  0.71678  1.0000
  C   C2483     1.0  0.49105  0.14153  0.67225  1.0000
  H   H1985     1.0  0.54360  0.20169  0.70639  1.0000
  C   C2484     1.0  0.56059  0.10591  0.72503  1.0000
  C   C2485     1.0  0.55064  0.02043  0.67245  1.0000
  H   H1986     1.0  0.63650  0.99289  0.66837  1.0000
  C   C2486     1.0  0.56119  0.08909  0.73818  1.0000
  C   C2487     1.0  0.56835  0.13116  0.66673  1.0000
  C   C2488     1.0  0.50852  0.15488  0.68926  1.0000
  Fe  Fe175     1.0  0.63426  0.05121  0.71455  1.0000
  C   C2489     1.0  0.71496  0.22259  0.64789  1.0000
  H   H1987     1.0  0.51831  0.01512  0.70946  1.0000
  H   H1988     1.0  0.69635  0.04230  0.66750  1.0000
  H   H1989     1.0  0.72290  0.11930  0.67131  1.0000
  C   C2490     1.0  0.57088  0.06171  0.69442  1.0000
  H   H1990     1.0  0.57321  0.22062  0.81897  1.0000
  H   H1991     1.0  0.69476  0.12654  0.65492  1.0000
  H   H1992     1.0  0.64184  0.15480  0.64889  1.0000
  S   S348      1.0  0.60645  0.07183  0.71463  1.0000
  S   S349      1.0  0.65060  0.07375  0.71604  1.0000
  H   H1993     1.0  0.58392  0.05663  0.69993  1.0000
  C   C2491     1.0  0.65152  0.00189  0.70502  1.0000
  C   C2492     1.0  0.53990  0.15501  0.71365  1.0000
  C   C2493     1.0  0.54329  0.17301  0.70405  1.0000
  C   C2494     1.0  0.54129  0.18776  0.71398  1.0000
  C   C2495     1.0  0.53570  0.18469  0.73354  1.0000
  C   C2496     1.0  0.53207  0.16687  0.74313  1.0000
  C   C2497     1.0  0.53409  0.15208  0.73324  1.0000
  C   C2498     1.0  0.56576  0.13604  0.68462  1.0000
  H   H1994     1.0  0.66483  0.98571  0.68314  1.0000
  C   C2499     1.0  0.60126  0.13599  0.66031  1.0000
  C   C2500     1.0  0.59888  0.14079  0.67808  1.0000
  C   C2501     1.0  0.58124  0.14082  0.69018  1.0000
  P   P82       1.0  0.54315  0.13595  0.70072  1.0000
  H   H1995     1.0  0.53376  0.19619  0.74122  1.0000
  H   H1996     1.0  0.52739  0.16451  0.75819  1.0000
  H   H1997     1.0  0.53091  0.13848  0.74089  1.0000
  C   C2502     1.0  0.50597  0.12610  0.67093  1.0000
  H   H1998     1.0  0.61082  0.14403  0.68277  1.0000
  H   H1999     1.0  0.57986  0.14424  0.70403  1.0000
  C   C2503     1.0  0.68221  0.17993  0.65880  1.0000
  C   C2504     1.0  0.66973  0.16756  0.66839  1.0000
  C   C2505     1.0  0.67442  0.14834  0.66706  1.0000
  H   H2000     1.0  0.67855  0.19483  0.65997  1.0000
  H   H2001     1.0  0.65646  0.17282  0.67701  1.0000
  H   H2002     1.0  0.66469  0.13877  0.67454  1.0000
  Fe  Fe176     1.0  0.62336  0.09463  0.71283  1.0000
  S   S350      1.0  0.51639  0.05376  0.71121  1.0000
  H   H2003     1.0  0.60775  0.02285  0.71081  1.0000
  H   H2004     1.0  0.75626  0.17936  0.66923  1.0000
  C   C2506     1.0  0.63643  0.99112  0.65422  1.0000
  H   H2005     1.0  0.61508  0.13532  0.65118  1.0000
  H   H2006     1.0  0.75191  0.99930  0.65859  1.0000
  C   C2507     1.0  0.56638  0.22139  0.75997  1.0000
  S   S351      1.0  0.52567  0.22279  0.66412  1.0000
  S   S352      1.0  0.49940  0.21979  0.71455  1.0000
  H   H2007     1.0  0.51707  0.98963  0.66819  1.0000
  C   C2508     1.0  0.53255  0.98537  0.64056  1.0000
  C   C2509     1.0  0.65910  0.02814  0.63840  1.0000
  C   C2510     1.0  0.50552  0.22852  0.82835  1.0000
  C   C2511     1.0  0.76572  0.02170  0.64114  1.0000
  H   H2008     1.0  0.78577  0.18092  0.64520  1.0000
  C   C2512     1.0  0.77501  0.17346  0.64355  1.0000
  C   C2513     1.0  0.56062  0.04481  0.64635  1.0000
  C   C2514     1.0  0.49585  0.22823  0.79141  1.0000
  C   C2515     1.0  0.73220  0.02004  0.64320  1.0000
  H   H2009     1.0  0.77955  0.01561  0.64513  1.0000
  H   H2010     1.0  0.51356  0.04316  0.64959  1.0000
  Fe  Fe177     1.0  0.49747  0.22564  0.68413  1.0000
  H   H2011     1.0  0.71209  0.98301  0.69049  1.0000
  H   H2012     1.0  0.69084  0.22864  0.66994  1.0000
  H   H2013     1.0  0.65737  0.12201  0.64521  1.0000
  H   H2014     1.0  0.57155  0.05286  0.63844  1.0000
  C   C2516     1.0  0.49361  0.22375  0.84564  1.0000
  H   H2015     1.0  0.49252  0.19630  0.75657  1.0000
  C   C2517     1.0  0.71954  0.98293  0.65055  1.0000
  C   C2518     1.0  0.56155  0.22907  0.66473  1.0000
  C   C2519     1.0  0.62316  0.24217  0.22638  1.0000
  S   S353      1.0  0.61884  0.40012  0.98246  1.0000
  H   H2016     1.0  0.60723  0.25474  0.26179  1.0000
  Fe  Fe178     1.0  0.64665  0.35737  0.01177  1.0000
  S   S354      1.0  0.62597  0.38000  0.02520  1.0000
  S   S355      1.0  0.66283  0.33227  0.02894  1.0000
  Fe  Fe179     1.0  0.60755  0.37796  0.00520  1.0000
  S   S356      1.0  0.57593  0.38049  0.01541  1.0000
  Fe  Fe180     1.0  0.63930  0.39997  0.00120  1.0000
  S   S357      1.0  0.64600  0.42773  0.00364  1.0000
  S   S358      1.0  0.62716  0.35355  0.99324  1.0000
  S   S359      1.0  0.66165  0.37758  0.98905  1.0000
  Fe  Fe181     1.0  0.77316  0.45173  0.03114  1.0000
  S   S360      1.0  0.74179  0.46036  0.04136  1.0000
  S   S361      1.0  0.79745  0.44850  0.04698  1.0000
  Fe  Fe182     1.0  0.73802  0.43690  0.02808  1.0000
  S   S362      1.0  0.71834  0.41622  0.04221  1.0000
  S   S363      1.0  0.76948  0.42659  0.02033  1.0000
  Fe  Fe183     1.0  0.63264  0.37585  0.14645  1.0000
  S   S364      1.0  0.62956  0.34534  0.15492  1.0000
  S   S365      1.0  0.60854  0.39742  0.13535  1.0000
  Fe  Fe184     1.0  0.67454  0.36704  0.15098  1.0000
  S   S366      1.0  0.67457  0.33565  0.15891  1.0000
  S   S367      1.0  0.70291  0.37648  0.14838  1.0000
  Fe  Fe185     1.0  0.65763  0.33995  0.13568  1.0000
  S   S368      1.0  0.66209  0.31806  0.11706  1.0000
  Fe  Fe186     1.0  0.64654  0.34394  0.17727  1.0000
  S   S369      1.0  0.63631  0.32974  0.20703  1.0000
  S   S370      1.0  0.66013  0.37047  0.12600  1.0000
  S   S371      1.0  0.64721  0.37533  0.17062  1.0000
  H   H2017     1.0  0.79274  0.40736  0.08912  1.0000
  H   H2018     1.0  0.64541  0.25794  0.22573  1.0000
  H   H2019     1.0  0.72777  0.28115  0.28662  1.0000
  H   H2020     1.0  0.94159  0.42103  0.25921  1.0000
  Fe  Fe187     1.0  0.77711  0.45527  0.15514  1.0000
  H   H2021     1.0  0.50326  0.30799  0.10946  1.0000
  S   S372      1.0  0.79966  0.44111  0.13383  1.0000
  Fe  Fe188     1.0  0.77014  0.46377  0.19492  1.0000
  C   C2520     1.0  0.52662  0.29713  0.17613  1.0000
  H   H2022     1.0  0.49288  0.33009  0.24445  1.0000
  Fe  Fe189     1.0  0.73765  0.45557  0.17914  1.0000
  S   S373      1.0  0.71026  0.44335  0.18737  1.0000
  S   S374      1.0  0.76655  0.43883  0.18350  1.0000
  C   C2521     1.0  0.68262  0.47517  0.04268  1.0000
  C   C2522     1.0  0.51410  0.30335  0.04168  1.0000
  H   H2023     1.0  0.84361  0.47803  0.19717  1.0000
  H   H2024     1.0  0.59163  0.24353  0.19782  1.0000
  C   C2523     1.0  0.52056  0.32560  0.18975  1.0000
  Fe  Fe190     1.0  0.50513  0.35341  0.97149  1.0000
  C   C2524     1.0  0.71898  0.39039  0.21572  1.0000
  H   H2025     1.0  0.78675  0.43572  0.25891  1.0000
  H   H2026     1.0  0.59073  0.36676  0.98040  1.0000
  C   C2525     1.0  0.72940  0.31973  0.25157  1.0000
  H   H2027     1.0  0.79810  0.46213  0.28540  1.0000
  C   C2526     1.0  0.64332  0.47494  0.05355  1.0000
  Fe  Fe191     1.0  0.50268  0.37533  0.15208  1.0000
  H   H2028     1.0  0.50589  0.38332  0.04639  1.0000
  S   S375      1.0  0.52715  0.37376  0.16707  1.0000
  C   C2527     1.0  0.51243  0.34693  0.22514  1.0000
  H   H2029     1.0  0.53145  0.27346  0.29059  1.0000
  H   H2030     1.0  0.69429  0.37775  0.22826  1.0000
  C   C2528     1.0  0.71862  0.32916  0.17007  1.0000
  Fe  Fe192     1.0  0.66734  0.24004  0.27711  1.0000
  C   C2529     1.0  0.71294  0.31950  0.24452  1.0000
  C   C2530     1.0  0.49471  0.34382  0.23625  1.0000
  C   C2531     1.0  0.53884  0.29666  0.20433  1.0000
  H   H2031     1.0  0.51335  0.30301  0.01256  1.0000
  H   H2032     1.0  0.83734  0.44127  0.27959  1.0000
  H   H2033     1.0  0.49912  0.34035  0.09015  1.0000
  C   C2532     1.0  0.71591  0.29848  0.18927  1.0000
  C   C2533     1.0  0.56314  0.23933  0.21109  1.0000
  Fe  Fe193     1.0  0.62983  0.23190  0.30139  1.0000
  H   H2034     1.0  0.75817  0.36530  0.97904  1.0000
  H   H2035     1.0  0.49076  0.37170  0.02491  1.0000
  C   C2534     1.0  0.49451  0.25090  0.05559  1.0000
  S   S376      1.0  0.77353  0.47070  0.00279  1.0000
  Fe  Fe194     1.0  0.86618  0.45819  0.29600  1.0000
  C   C2535     1.0  0.53680  0.28735  0.19036  1.0000
  C   C2536     1.0  0.71953  0.30970  0.17158  1.0000
  H   H2036     1.0  0.92080  0.42515  0.23590  1.0000
  C   C2537     1.0  0.62958  0.27970  0.19029  1.0000
  C   C2538     1.0  0.60573  0.45801  0.12591  1.0000
  H   H2037     1.0  0.49386  0.43668  0.00117  1.0000
  P   P83       1.0  0.49539  0.28942  0.05143  1.0000
  H   H2038     1.0  0.53493  0.26886  0.05293  1.0000
  C   C2539     1.0  0.74771  0.36935  0.20450  1.0000
  H   H2039     1.0  0.54593  0.35554  0.23732  1.0000
  H   H2040     1.0  0.98712  0.44196  0.26729  1.0000
  C   C2540     1.0  0.58562  0.39149  0.14391  1.0000
  C   C2541     1.0  0.58096  0.38282  0.16260  1.0000
  C   C2542     1.0  0.56275  0.37801  0.16944  1.0000
  C   C2543     1.0  0.54919  0.38140  0.15761  1.0000
  C   C2544     1.0  0.55373  0.39018  0.13888  1.0000
  C   C2545     1.0  0.57190  0.39543  0.13209  1.0000
  H   H2041     1.0  0.59139  0.37995  0.17180  1.0000
  H   H2042     1.0  0.55919  0.37146  0.18396  1.0000
  H   H2043     1.0  0.54335  0.39282  0.12966  1.0000
  H   H2044     1.0  0.57547  0.40211  0.11759  1.0000
  C   C2546     1.0  0.65024  0.30963  0.21855  1.0000
  C   C2547     1.0  0.64566  0.30465  0.23817  1.0000
  C   C2548     1.0  0.65510  0.28780  0.24776  1.0000
  C   C2549     1.0  0.66975  0.27609  0.23784  1.0000
  C   C2550     1.0  0.67483  0.28136  0.21827  1.0000
  C   C2551     1.0  0.66505  0.29804  0.20862  1.0000
  H   H2045     1.0  0.63475  0.31392  0.24600  1.0000
  H   H2046     1.0  0.65122  0.28402  0.26285  1.0000
  H   H2047     1.0  0.68615  0.27233  0.21052  1.0000
  H   H2048     1.0  0.66878  0.30177  0.19350  1.0000
  C   C2552     1.0  0.70838  0.42483  0.17638  1.0000
  C   C2553     1.0  0.72408  0.41624  0.16461  1.0000
  C   C2554     1.0  0.72226  0.40123  0.15635  1.0000
  C   C2555     1.0  0.70472  0.39485  0.15964  1.0000
  C   C2556     1.0  0.68902  0.40344  0.17140  1.0000
  C   C2557     1.0  0.69088  0.41834  0.17980  1.0000
  H   H2049     1.0  0.73764  0.42109  0.16199  1.0000
  H   H2050     1.0  0.73447  0.39461  0.14730  1.0000
  H   H2051     1.0  0.67546  0.39865  0.17402  1.0000
  H   H2052     1.0  0.67872  0.42488  0.18896  1.0000
  C   C2558     1.0  0.79659  0.44697  0.07134  1.0000
  C   C2559     1.0  0.81407  0.44224  0.07782  1.0000
  C   C2560     1.0  0.81462  0.44049  0.09694  1.0000
  C   C2561     1.0  0.79773  0.44381  0.10991  1.0000
  C   C2562     1.0  0.78012  0.44866  0.10359  1.0000
  C   C2563     1.0  0.77950  0.45009  0.08429  1.0000
  H   H2053     1.0  0.82731  0.43974  0.06798  1.0000
  H   H2054     1.0  0.82828  0.43664  0.10169  1.0000
  H   H2055     1.0  0.76709  0.45101  0.11366  1.0000
  H   H2056     1.0  0.76592  0.45363  0.07942  1.0000
  C   C2564     1.0  0.56506  0.37174  0.00088  1.0000
  C   C2565     1.0  0.54561  0.37048  0.00595  1.0000
  C   C2566     1.0  0.53691  0.36293  0.99468  1.0000
  H   H2057     1.0  0.49551  0.27428  0.01770  1.0000
  H   H2058     1.0  0.71641  0.28340  0.19048  1.0000
  C   C2567     1.0  0.57579  0.36555  0.98451  1.0000
  H   H2059     1.0  0.53734  0.37511  0.01871  1.0000
  H   H2060     1.0  0.52206  0.36145  0.99897  1.0000
  P   P84       1.0  0.80461  0.42097  0.29313  1.0000
  H   H2061     1.0  0.71150  0.40465  0.21714  1.0000
  C   C2568     1.0  0.66202  0.32983  0.05343  1.0000
  C   C2569     1.0  0.65418  0.34462  0.06373  1.0000
  C   C2570     1.0  0.65416  0.34149  0.08334  1.0000
  C   C2571     1.0  0.66175  0.32351  0.09260  1.0000
  C   C2572     1.0  0.66943  0.30894  0.08219  1.0000
  C   C2573     1.0  0.66974  0.31212  0.06279  1.0000
  H   H2062     1.0  0.64830  0.35842  0.05663  1.0000
  H   H2063     1.0  0.64821  0.35288  0.09125  1.0000
  H   H2064     1.0  0.67533  0.29506  0.08917  1.0000
  H   H2065     1.0  0.67584  0.30065  0.05500  1.0000
  C   C2574     1.0  0.66605  0.42429  0.01444  1.0000
  C   C2575     1.0  0.67278  0.40654  0.02448  1.0000
  C   C2576     1.0  0.68892  0.40408  0.03298  1.0000
  C   C2577     1.0  0.69852  0.41924  0.03111  1.0000
  C   C2578     1.0  0.69183  0.43687  0.02092  1.0000
  C   C2579     1.0  0.67545  0.43949  0.01286  1.0000
  H   H2066     1.0  0.66539  0.39482  0.02595  1.0000
  H   H2067     1.0  0.69387  0.39050  0.04114  1.0000
  H   H2068     1.0  0.69899  0.44865  0.01963  1.0000
  H   H2069     1.0  0.67022  0.45325  0.00519  1.0000
  C   C2580     1.0  0.71091  0.33861  0.01815  1.0000
  P   P85       1.0  0.53255  0.32762  0.22268  1.0000
  C   C2581     1.0  0.72544  0.34750  0.06331  1.0000
  C   C2582     1.0  0.53940  0.31818  0.04613  1.0000
  C   C2583     1.0  0.56779  0.25797  0.23881  1.0000
  C   C2584     1.0  0.70927  0.37503  0.22197  1.0000
  H   H2070     1.0  0.52001  0.30505  0.06870  1.0000
  C   C2585     1.0  0.59554  0.33315  0.03580  1.0000
  C   C2586     1.0  0.61284  0.32244  0.04033  1.0000
  C   C2587     1.0  0.61566  0.31834  0.05899  1.0000
  C   C2588     1.0  0.60143  0.32535  0.07307  1.0000
  C   C2589     1.0  0.58438  0.33691  0.06845  1.0000
  C   C2590     1.0  0.58128  0.34018  0.04983  1.0000
  P   P86       1.0  0.56613  0.34708  0.08607  1.0000
  C   C2591     1.0  0.54672  0.33400  0.09106  1.0000
  C   C2592     1.0  0.57447  0.34556  0.10768  1.0000
  C   C2593     1.0  0.56258  0.34119  0.12512  1.0000
  C   C2594     1.0  0.56882  0.34079  0.14182  1.0000
  C   C2595     1.0  0.58673  0.34521  0.14120  1.0000
  C   C2596     1.0  0.59830  0.35036  0.12388  1.0000
  C   C2597     1.0  0.59214  0.35067  0.10718  1.0000
  C   C2598     1.0  0.52874  0.34263  0.08652  1.0000
  C   C2599     1.0  0.51312  0.33322  0.09306  1.0000
  C   C2600     1.0  0.51547  0.31501  0.10383  1.0000
  C   C2601     1.0  0.53363  0.30589  0.10739  1.0000
  C   C2602     1.0  0.54927  0.31530  0.10090  1.0000
  C   C2603     1.0  0.55868  0.37226  0.07902  1.0000
  C   C2604     1.0  0.56901  0.38252  0.06336  1.0000
  C   C2605     1.0  0.56335  0.40211  0.05843  1.0000
  C   C2606     1.0  0.54765  0.41168  0.06939  1.0000
  C   C2607     1.0  0.53769  0.40166  0.08537  1.0000
  C   C2608     1.0  0.54324  0.38205  0.09023  1.0000
  H   H2071     1.0  0.59335  0.33652  0.02131  1.0000
  C   C2609     1.0  0.58630  0.33832  0.19783  1.0000
  H   H2072     1.0  0.62911  0.31005  0.06245  1.0000
  H   H2073     1.0  0.60400  0.32192  0.08738  1.0000
  H   H2074     1.0  0.56811  0.34882  0.04601  1.0000
  H   H2075     1.0  0.54821  0.33873  0.12598  1.0000
  H   H2076     1.0  0.55937  0.33803  0.15521  1.0000
  H   H2077     1.0  0.59111  0.34559  0.15417  1.0000
  H   H2078     1.0  0.61175  0.35480  0.12327  1.0000
  H   H2079     1.0  0.60103  0.35521  0.09389  1.0000
  H   H2080     1.0  0.52662  0.35677  0.07832  1.0000
  H   H2081     1.0  0.50826  0.29949  0.24073  1.0000
  C   C2610     1.0  0.96535  0.42532  0.28095  1.0000
  H   H2082     1.0  0.53548  0.29174  0.11562  1.0000
  H   H2083     1.0  0.56318  0.30836  0.10428  1.0000
  H   H2084     1.0  0.58146  0.37557  0.05485  1.0000
  H   H2085     1.0  0.57109  0.40976  0.04596  1.0000
  H   H2086     1.0  0.54320  0.42682  0.06548  1.0000
  H   H2087     1.0  0.52549  0.40898  0.09391  1.0000
  H   H2088     1.0  0.53535  0.37454  0.10269  1.0000
  C   C2611     1.0  0.54525  0.32233  0.02668  1.0000
  H   H2089     1.0  0.80347  0.37260  0.09636  1.0000
  H   H2090     1.0  0.55712  0.32986  0.02082  1.0000
  C   C2612     1.0  0.71363  0.35555  0.09978  1.0000
  H   H2091     1.0  0.72275  0.30339  0.15901  1.0000
  C   C2613     1.0  0.53054  0.31582  0.20423  1.0000
  C   C2614     1.0  0.59605  0.28537  0.18777  1.0000
  H   H2092     1.0  0.88879  0.41581  0.24541  1.0000
  H   H2093     1.0  0.59970  0.30434  0.21880  1.0000
  H   H2094     1.0  0.51042  0.32374  0.16500  1.0000
  C   C2615     1.0  0.54643  0.30832  0.25554  1.0000
  C   C2616     1.0  0.55459  0.33704  0.21658  1.0000
  H   H2095     1.0  0.56937  0.26475  0.24992  1.0000
  C   C2617     1.0  0.70257  0.35776  0.01586  1.0000
  Fe  Fe195     1.0  0.64020  0.37610  0.97167  1.0000
  H   H2096     1.0  0.95394  0.43763  0.28072  1.0000
  S   S377      1.0  0.68221  0.25502  0.24949  1.0000
  H   H2097     1.0  0.52727  0.36783  0.20567  1.0000
  C   C2618     1.0  0.51806  0.28574  0.26641  1.0000
  H   H2098     1.0  0.54276  0.27247  0.19076  1.0000
  H   H2099     1.0  0.69055  0.41845  0.12871  1.0000
  C   C2619     1.0  0.80125  0.45763  0.29951  1.0000
  C   C2620     1.0  0.55712  0.35063  0.22627  1.0000
  C   C2621     1.0  0.52400  0.30859  0.05362  1.0000
  C   C2622     1.0  0.57404  0.35814  0.22162  1.0000
  H   H2100     1.0  0.70906  0.35847  0.11401  1.0000
  H   H2101     1.0  0.62209  0.30734  0.14835  1.0000
  H   H2102     1.0  0.68280  0.47005  0.12957  1.0000
  C   C2623     1.0  0.51872  0.29863  0.24953  1.0000
  H   H2103     1.0  0.49925  0.39331  0.20597  1.0000
  C   C2624     1.0  0.56929  0.33097  0.20226  1.0000
  S   S378      1.0  0.88610  0.45832  0.26828  1.0000
  H   H2104     1.0  0.55701  0.29313  0.28072  1.0000
  H   H2105     1.0  0.64122  0.27407  0.19793  1.0000
  C   C2625     1.0  0.53576  0.31677  0.01472  1.0000
  S   S379      1.0  0.50300  0.35424  0.13405  1.0000
  C   C2626     1.0  0.92143  0.40929  0.28270  1.0000
  H   H2106     1.0  0.66302  0.43981  0.11683  1.0000
  C   C2627     1.0  0.63729  0.47223  0.10301  1.0000
  C   C2628     1.0  0.89149  0.40648  0.27452  1.0000
  H   H2107     1.0  0.68809  0.34502  0.09990  1.0000
  H   H2108     1.0  0.59781  0.33341  0.18703  1.0000
  H   H2109     1.0  0.68892  0.30503  0.24798  1.0000
  C   C2629     1.0  0.77572  0.43304  0.27102  1.0000
  C   C2630     1.0  0.54833  0.24226  0.22626  1.0000
  S   S380      1.0  0.74800  0.47026  0.15001  1.0000
  C   C2631     1.0  0.63355  0.29074  0.17247  1.0000
  C   C2632     1.0  0.54616  0.29487  0.27212  1.0000
  S   S381      1.0  0.73531  0.45466  0.99987  1.0000
  H   H2110     1.0  0.70685  0.32926  0.03123  1.0000
  C   C2633     1.0  0.91600  0.41908  0.25040  1.0000
  H   H2111     1.0  0.67043  0.22978  0.23016  1.0000
  H   H2112     1.0  0.53924  0.25343  0.25197  1.0000
  C   C2634     1.0  0.71779  0.46702  0.10084  1.0000
  C   C2635     1.0  0.72671  0.45450  0.11489  1.0000
  C   C2636     1.0  0.73365  0.43553  0.11325  1.0000
  C   C2637     1.0  0.73133  0.42875  0.09777  1.0000
  C   C2638     1.0  0.72170  0.44084  0.08413  1.0000
  C   C2639     1.0  0.71504  0.45996  0.08555  1.0000
  H   H2113     1.0  0.55749  0.31693  0.25168  1.0000
  H   H2114     1.0  0.64802  0.29324  0.16667  1.0000
  H   H2115     1.0  0.55841  0.24846  0.30161  1.0000
  H   H2116     1.0  0.74741  0.30614  0.27213  1.0000
  H   H2117     1.0  0.72844  0.45941  0.12709  1.0000
  H   H2118     1.0  0.74097  0.42613  0.12394  1.0000
  H   H2119     1.0  0.73671  0.41404  0.09650  1.0000
  H   H2120     1.0  0.71955  0.43535  0.07236  1.0000
  C   C2640     1.0  0.54767  0.35665  0.97836  1.0000
  C   C2641     1.0  0.70178  0.34795  0.09185  1.0000
  C   C2642     1.0  0.60009  0.29629  0.16990  1.0000
  C   C2643     1.0  0.72821  0.34334  0.98615  1.0000
  C   C2644     1.0  0.58021  0.24592  0.20962  1.0000
  H   H2121     1.0  0.70878  0.29757  0.21891  1.0000
  C   C2645     1.0  0.52570  0.25867  0.05417  1.0000
  C   C2646     1.0  0.82157  0.42320  0.27138  1.0000
  H   H2122     1.0  0.73796  0.33747  0.97468  1.0000
  C   C2647     1.0  0.97636  0.39156  0.28956  1.0000
  C   C2648     1.0  0.72363  0.29187  0.27493  1.0000
  C   C2649     1.0  0.50261  0.23164  0.05739  1.0000
  H   H2123     1.0  0.73014  0.31651  0.00511  1.0000
  P   P87       1.0  0.60516  0.26305  0.22154  1.0000
  H   H2124     1.0  0.70792  0.46907  0.07464  1.0000
  H   H2125     1.0  0.58865  0.30296  0.16208  1.0000
  H   H2126     1.0  0.54898  0.23495  0.05603  1.0000
  H   H2127     1.0  0.72120  0.33792  0.15632  1.0000
  C   C2650     1.0  0.68716  0.41729  0.11545  1.0000
  C   C2651     1.0  0.69847  0.40365  0.10518  1.0000
  C   C2652     1.0  0.69429  0.40221  0.08801  1.0000
  C   C2653     1.0  0.67863  0.41415  0.08126  1.0000
  C   C2654     1.0  0.66723  0.42785  0.09143  1.0000
  C   C2655     1.0  0.67158  0.42944  0.10860  1.0000
  P   P88       1.0  0.64751  0.44328  0.08182  1.0000
  C   C2656     1.0  0.63241  0.45576  0.09979  1.0000
  C   C2657     1.0  0.65634  0.46073  0.06250  1.0000
  S   S382      1.0  0.50141  0.23885  0.28117  1.0000
  C   C2658     1.0  0.73814  0.38759  0.20692  1.0000
  H   H2128     1.0  0.62806  0.47509  0.05777  1.0000
  H   H2129     1.0  0.69787  0.47523  0.03837  1.0000
  C   C2659     1.0  0.67607  0.46101  0.05701  1.0000
  C   C2660     1.0  0.61651  0.44874  0.11137  1.0000
  C   C2661     1.0  0.52029  0.30728  0.02215  1.0000
  C   C2662     1.0  0.98418  0.42785  0.27341  1.0000
  S   S383      1.0  0.49481  0.38622  0.08542  1.0000
  H   H2130     1.0  0.53512  0.23710  0.22752  1.0000
  C   C2663     1.0  0.63488  0.42779  0.07490  1.0000
  C   C2664     1.0  0.63071  0.41133  0.08748  1.0000
  C   C2665     1.0  0.62076  0.39920  0.08269  1.0000
  C   C2666     1.0  0.61536  0.40310  0.06504  1.0000
  C   C2667     1.0  0.62017  0.41900  0.05210  1.0000
  C   C2668     1.0  0.62998  0.43128  0.05693  1.0000
  P   P89       1.0  0.93694  0.40467  0.29996  1.0000
  H   H2131     1.0  0.71064  0.39440  0.11043  1.0000
  H   H2132     1.0  0.70325  0.39207  0.07970  1.0000
  H   H2133     1.0  0.67548  0.41281  0.06799  1.0000
  H   H2134     1.0  0.97376  0.37745  0.29597  1.0000
  C   C2669     1.0  0.73469  0.30595  0.26673  1.0000
  C   C2670     1.0  0.70766  0.34393  0.07363  1.0000
  H   H2135     1.0  0.79007  0.35106  0.08326  1.0000
  C   C2671     1.0  0.73715  0.35584  0.07089  1.0000
  H   H2136     1.0  0.68651  0.45024  0.06353  1.0000
  H   H2137     1.0  0.61244  0.43598  0.10955  1.0000
  H   H2138     1.0  0.50682  0.27729  0.27061  1.0000
  C   C2672     1.0  0.71871  0.35664  0.21941  1.0000
  C   C2673     1.0  0.79255  0.37829  0.08770  1.0000
  C   C2674     1.0  0.70719  0.29161  0.26806  1.0000
  H   H2139     1.0  0.63504  0.40790  0.10114  1.0000
  H   H2140     1.0  0.61725  0.38680  0.09275  1.0000
  H   H2141     1.0  0.60772  0.39365  0.06132  1.0000
  H   H2142     1.0  0.61656  0.42166  0.03816  1.0000
  H   H2143     1.0  0.63400  0.44314  0.04644  1.0000
  C   C2675     1.0  0.70695  0.36976  0.99872  1.0000
  P   P90       1.0  0.76096  0.35842  0.05836  1.0000
  C   C2676     1.0  0.77067  0.37352  0.06901  1.0000
  C   C2677     1.0  0.77462  0.33460  0.06040  1.0000
  C   C2678     1.0  0.78535  0.32727  0.04450  1.0000
  C   C2679     1.0  0.79544  0.30863  0.04641  1.0000
  C   C2680     1.0  0.79472  0.29712  0.06413  1.0000
  C   C2681     1.0  0.78380  0.30419  0.07996  1.0000
  C   C2682     1.0  0.77372  0.32281  0.07811  1.0000
  C   C2683     1.0  0.76447  0.39322  0.06530  1.0000
  C   C2684     1.0  0.77255  0.40535  0.07237  1.0000
  C   C2685     1.0  0.78649  0.39790  0.08367  1.0000
  C   C2686     1.0  0.76176  0.37014  0.03413  1.0000
  C   C2687     1.0  0.74495  0.37783  0.02665  1.0000
  C   C2688     1.0  0.74586  0.38891  0.00870  1.0000
  C   C2689     1.0  0.76354  0.39232  0.99805  1.0000
  C   C2690     1.0  0.78035  0.38453  0.00523  1.0000
  C   C2691     1.0  0.77946  0.37373  0.02330  1.0000
  H   H2144     1.0  0.73011  0.34365  0.04949  1.0000
  H   H2145     1.0  0.78582  0.33570  0.03058  1.0000
  H   H2146     1.0  0.80373  0.30308  0.03410  1.0000
  H   H2147     1.0  0.80249  0.28267  0.06557  1.0000
  H   H2148     1.0  0.78305  0.29521  0.09369  1.0000
  H   H2149     1.0  0.76517  0.32801  0.09051  1.0000
  H   H2150     1.0  0.75365  0.39930  0.05658  1.0000
  H   H2151     1.0  0.76818  0.42058  0.06890  1.0000
  H   H2152     1.0  0.73099  0.37649  0.03497  1.0000
  H   H2153     1.0  0.73273  0.39570  0.00350  1.0000
  H   H2154     1.0  0.76425  0.40160  0.98454  1.0000
  H   H2155     1.0  0.79392  0.38789  0.99719  1.0000
  H   H2156     1.0  0.79250  0.36881  0.02913  1.0000
  C   C2692     1.0  0.53185  0.28371  0.27765  1.0000
  C   C2693     1.0  0.61887  0.29885  0.16219  1.0000
  H   H2157     1.0  0.60430  0.27545  0.28498  1.0000
  C   C2694     1.0  0.60011  0.29782  0.23327  1.0000
  C   C2695     1.0  0.71058  0.32628  0.20412  1.0000
  C   C2696     1.0  0.71387  0.33749  0.18620  1.0000
  P   P91       1.0  0.70565  0.33709  0.22496  1.0000
  C   C2697     1.0  0.80119  0.46822  0.22372  1.0000
  C   C2698     1.0  0.71954  0.36256  0.98357  1.0000
  C   C2699     1.0  0.73805  0.35393  0.21068  1.0000
  C   C2700     1.0  0.51868  0.31627  0.17576  1.0000
  C   C2701     1.0  0.75668  0.43711  0.26831  1.0000
  H   H2158     1.0  0.81006  0.40469  0.25906  1.0000
  C   C2702     1.0  0.68041  0.34624  0.23102  1.0000
  C   C2703     1.0  0.67184  0.34628  0.24997  1.0000
  C   C2704     1.0  0.65253  0.35420  0.25472  1.0000
  C   C2705     1.0  0.64176  0.36256  0.24059  1.0000
  C   C2706     1.0  0.65033  0.36307  0.22174  1.0000
  C   C2707     1.0  0.66955  0.35482  0.21690  1.0000
  H   H2159     1.0  0.51387  0.34032  0.18936  1.0000
  H   H2160     1.0  0.54039  0.31989  0.99962  1.0000
  H   H2161     1.0  0.71285  0.35270  0.18460  1.0000
  S   S384      1.0  0.78330  0.47878  0.16703  1.0000
  C   C2708     1.0  0.89793  0.41384  0.25575  1.0000
  C   C2709     1.0  0.72388  0.33143  0.00336  1.0000
  H   H2162     1.0  0.81352  0.46846  0.19450  1.0000
  S   S385      1.0  0.77991  0.46072  0.22273  1.0000
  H   H2163     1.0  0.68003  0.34034  0.26114  1.0000
  H   H2164     1.0  0.64594  0.35390  0.26935  1.0000
  H   H2165     1.0  0.62677  0.36861  0.24419  1.0000
  H   H2166     1.0  0.64188  0.36943  0.21087  1.0000
  H   H2167     1.0  0.67585  0.35521  0.20218  1.0000
  H   H2168     1.0  0.67243  0.46683  0.16399  1.0000
  H   H2169     1.0  0.74541  0.39966  0.20164  1.0000
  H   H2170     1.0  0.74547  0.33999  0.20815  1.0000
  C   C2710     1.0  0.83537  0.47901  0.22681  1.0000
  C   C2711     1.0  0.83600  0.43408  0.26869  1.0000
  C   C2712     1.0  0.84876  0.43605  0.25162  1.0000
  C   C2713     1.0  0.84720  0.42727  0.23711  1.0000
  C   C2714     1.0  0.83334  0.41585  0.23992  1.0000
  C   C2715     1.0  0.82078  0.41353  0.25711  1.0000
  H   H2171     1.0  0.76249  0.36728  0.19739  1.0000
  H   H2172     1.0  0.74015  0.36547  0.09582  1.0000
  C   C2716     1.0  0.96126  0.40713  0.28897  1.0000
  H   H2173     1.0  0.56769  0.32067  0.19444  1.0000
  C   C2717     1.0  0.53262  0.31036  0.24415  1.0000
  H   H2174     1.0  0.54662  0.28886  0.21534  1.0000
  C   C2718     1.0  0.55065  0.25157  0.24006  1.0000
  C   C2719     1.0  0.73122  0.35960  0.08934  1.0000
  H   H2175     1.0  0.73814  0.33049  0.24550  1.0000
  H   H2176     1.0  0.70006  0.38447  0.99734  1.0000
  C   C2720     1.0  0.58266  0.25530  0.22347  1.0000
  H   H2177     1.0  0.54690  0.32233  0.05538  1.0000
  H   H2178     1.0  0.69865  0.28062  0.27427  1.0000
  H   H2179     1.0  0.85943  0.44500  0.24940  1.0000
  H   H2180     1.0  0.85657  0.42956  0.22362  1.0000
  H   H2181     1.0  0.83206  0.40912  0.22862  1.0000
  H   H2182     1.0  0.58132  0.28409  0.19361  1.0000
  C   C2721     1.0  0.71149  0.30669  0.20548  1.0000
  H   H2183     1.0  0.62418  0.31753  0.02937  1.0000
  H   H2184     1.0  0.69847  0.33780  0.06765  1.0000
  C   C2722     1.0  0.70178  0.30543  0.25306  1.0000
  C   C2723     1.0  0.58863  0.35195  0.20743  1.0000
  C   C2724     1.0  0.81547  0.47086  0.20787  1.0000
  H   H2185     1.0  0.60178  0.35772  0.20382  1.0000
  C   C2725     1.0  0.78480  0.36611  0.08029  1.0000
  C   C2726     1.0  0.80397  0.47125  0.24099  1.0000
  H   H2186     1.0  0.52451  0.28987  0.16559  1.0000
  Fe  Fe196     1.0  0.76715  0.44616  0.99277  1.0000
  C   C2727     1.0  0.92772  0.41685  0.26379  1.0000
  C   C2728     1.0  0.59811  0.30944  0.24658  1.0000
  C   C2729     1.0  0.59946  0.30138  0.26525  1.0000
  C   C2730     1.0  0.60284  0.28168  0.27059  1.0000
  C   C2731     1.0  0.60466  0.27000  0.25735  1.0000
  C   C2732     1.0  0.56521  0.23692  0.29411  1.0000
  H   H2187     1.0  0.75347  0.44241  0.25424  1.0000
  H   H2188     1.0  0.57586  0.36880  0.22894  1.0000
  C   C2733     1.0  0.58476  0.22977  0.29366  1.0000
  C   C2734     1.0  0.61084  0.27649  0.19799  1.0000
  H   H2189     1.0  0.59633  0.32467  0.24219  1.0000
  H   H2190     1.0  0.59841  0.31036  0.27547  1.0000
  H   H2191     1.0  0.69212  0.36314  0.02721  1.0000
  C   C2735     1.0  0.60326  0.27803  0.23858  1.0000
  C   C2736     1.0  0.68110  0.47737  0.15657  1.0000
  H   H2192     1.0  0.72713  0.43786  0.28144  1.0000
  H   H2193     1.0  0.82279  0.47909  0.25591  1.0000
  S   S386      1.0  0.93109  0.47837  0.26997  1.0000
  H   H2194     1.0  0.79296  0.46931  0.25323  1.0000
  C   C2737     1.0  0.64184  0.24410  0.22695  1.0000
  C   C2738     1.0  0.50601  0.26457  0.05390  1.0000
  H   H2195     1.0  0.59371  0.45223  0.13496  1.0000
  H   H2196     1.0  0.87724  0.40296  0.27881  1.0000
  C   C2739     1.0  0.82088  0.47680  0.24252  1.0000
  H   H2197     1.0  0.94402  0.36809  0.28767  1.0000
  C   C2740     1.0  0.51394  0.36505  0.21461  1.0000
  C   C2741     1.0  0.83251  0.47627  0.20942  1.0000
  C   C2742     1.0  0.49268  0.37782  0.05169  1.0000
  H   H2198     1.0  0.67660  0.43531  0.97035  1.0000
  C   C2743     1.0  0.74187  0.43463  0.28364  1.0000
  H   H2199     1.0  0.56138  0.23186  0.20056  1.0000
  Fe  Fe197     1.0  0.74171  0.47738  0.01238  1.0000
  C   C2744     1.0  0.61066  0.47438  0.12902  1.0000
  C   C2745     1.0  0.56712  0.35789  0.97331  1.0000
  S   S387      1.0  0.64772  0.25390  0.30022  1.0000
  C   C2746     1.0  0.78016  0.42601  0.28910  1.0000
  H   H2200     1.0  0.70071  0.45426  0.97145  1.0000
  C   C2747     1.0  0.90322  0.40410  0.28793  1.0000
  C   C2748     1.0  0.49800  0.37962  0.21478  1.0000
  C   C2749     1.0  0.53375  0.23940  0.05595  1.0000
  C   C2750     1.0  0.74609  0.42822  0.30176  1.0000
  H   H2201     1.0  0.64974  0.47763  0.09452  1.0000
  H   H2202     1.0  0.53932  0.23471  0.28571  1.0000
  H   H2203     1.0  0.74725  0.47732  0.27055  1.0000
  C   C2751     1.0  0.68706  0.47921  0.13709  1.0000
  S   S388      1.0  0.74014  0.47932  0.19294  1.0000
  H   H2204     1.0  0.89792  0.39837  0.30242  1.0000
  C   C2752     1.0  0.93936  0.36577  0.30279  1.0000
  Fe  Fe198     1.0  0.88157  0.35247  0.60035  1.0000
  Fe  Fe199     1.0  0.88506  0.35192  0.55840  1.0000
  S   S389      1.0  0.89638  0.32063  0.56148  1.0000
  S   S390      1.0  0.88256  0.37035  0.52994  1.0000
  Fe  Fe200     1.0  0.87330  0.31819  0.58716  1.0000
  Fe  Fe201     1.0  0.91434  0.32639  0.58043  1.0000
  S   S391      1.0  0.94634  0.31555  0.57606  1.0000
  S   S392      1.0  0.86079  0.34937  0.58290  1.0000
  S   S393      1.0  0.90470  0.35790  0.57542  1.0000
  H   H2205     1.0  0.77859  0.32199  0.57969  1.0000
  C   C2753     1.0  0.96840  0.30278  0.48633  1.0000
  H   H2206     1.0  0.59721  0.24568  0.34712  1.0000
  H   H2207     1.0  0.95077  0.26689  0.41884  1.0000
  Fe  Fe202     1.0  0.87204  0.33997  0.43902  1.0000
  S   S394      1.0  0.88920  0.31966  0.41997  1.0000
  S   S395      1.0  0.86555  0.32847  0.47007  1.0000
  Fe  Fe203     1.0  0.86634  0.37264  0.40665  1.0000
  S   S396      1.0  0.85512  0.40380  0.39789  1.0000
  Fe  Fe204     1.0  0.86669  0.33210  0.40188  1.0000
  S   S397      1.0  0.85180  0.31886  0.38507  1.0000
  S   S398      1.0  0.84848  0.35068  0.42196  1.0000
  S   S399      1.0  0.88819  0.36377  0.42572  1.0000
  P   P92       1.0  0.76224  0.30083  0.61654  1.0000
  H   H2208     1.0  0.72670  0.29538  0.50538  1.0000
  C   C2754     1.0  0.81267  0.31868  0.47202  1.0000
  C   C2755     1.0  0.96098  0.35387  0.40926  1.0000
  C   C2756     1.0  0.72553  0.24456  0.33785  1.0000
  C   C2757     1.0  0.83174  0.26118  0.40298  1.0000
  H   H2209     1.0  0.71169  0.35779  0.46135  1.0000
  C   C2758     1.0  0.95404  0.44638  0.58663  1.0000
  C   C2759     1.0  0.96024  0.32273  0.58929  1.0000
  C   C2760     1.0  0.94296  0.42147  0.62833  1.0000
  C   C2761     1.0  0.85624  0.27644  0.56881  1.0000
  H   H2210     1.0  0.98500  0.36029  0.41838  1.0000
  H   H2211     1.0  0.73635  0.37746  0.44527  1.0000
  C   C2762     1.0  0.82534  0.25814  0.58729  1.0000
  C   C2763     1.0  0.77146  0.26136  0.61951  1.0000
  H   H2212     1.0  0.80047  0.26750  0.47583  1.0000
  C   C2764     1.0  0.94844  0.45086  0.56894  1.0000
  C   C2765     1.0  0.70192  0.24433  0.54670  1.0000
  C   C2766     1.0  0.80388  0.36541  0.31836  1.0000
  C   C2767     1.0  0.83046  0.29260  0.38381  1.0000
  C   C2768     1.0  0.84445  0.29648  0.39230  1.0000
  C   C2769     1.0  0.85237  0.28248  0.40595  1.0000
  C   C2770     1.0  0.84626  0.26477  0.41102  1.0000
  H   H2213     1.0  0.82472  0.30308  0.37283  1.0000
  H   H2214     1.0  0.86336  0.28522  0.41234  1.0000
  H   H2215     1.0  0.85258  0.25391  0.42141  1.0000
  C   C2771     1.0  0.85802  0.42262  0.33446  1.0000
  C   C2772     1.0  0.85852  0.40346  0.34247  1.0000
  C   C2773     1.0  0.85715  0.39764  0.36196  1.0000
  C   C2774     1.0  0.85543  0.41093  0.37355  1.0000
  C   C2775     1.0  0.85423  0.43018  0.36559  1.0000
  C   C2776     1.0  0.85563  0.43605  0.34605  1.0000
  H   H2216     1.0  0.85228  0.44047  0.37461  1.0000
  H   H2217     1.0  0.85474  0.45093  0.33997  1.0000
  C   C2777     1.0  0.71377  0.24180  0.37128  1.0000
  C   C2778     1.0  0.95293  0.33962  0.40532  1.0000
  H   H2218     1.0  0.95347  0.45703  0.61203  1.0000
  H   H2219     1.0  0.97040  0.34125  0.35654  1.0000
  C   C2779     1.0  0.81826  0.29165  0.51876  1.0000
  Fe  Fe205     1.0  0.75984  0.24200  0.38754  1.0000
  C   C2780     1.0  0.78094  0.33152  0.46468  1.0000
  H   H2220     1.0  0.88762  0.29789  0.53065  1.0000
  H   H2221     1.0  0.97854  0.26181  0.43509  1.0000
  C   C2781     1.0  0.92818  0.37777  0.33209  1.0000
  C   C2782     1.0  0.97006  0.37662  0.57098  1.0000
  C   C2783     1.0  0.98476  0.41354  0.48855  1.0000
  C   C2784     1.0  0.80147  0.47132  0.31006  1.0000
  C   C2785     1.0  0.87634  0.35930  0.51362  1.0000
  C   C2786     1.0  0.87204  0.34101  0.51884  1.0000
  C   C2787     1.0  0.86843  0.33190  0.50537  1.0000
  C   C2788     1.0  0.86926  0.34091  0.48657  1.0000
  C   C2789     1.0  0.87301  0.35943  0.48141  1.0000
  C   C2790     1.0  0.87633  0.36869  0.49498  1.0000
  H   H2222     1.0  0.87157  0.33382  0.53324  1.0000
  H   H2223     1.0  0.86550  0.31760  0.50942  1.0000
  H   H2224     1.0  0.87339  0.36659  0.46700  1.0000
  H   H2225     1.0  0.87937  0.38294  0.49094  1.0000
  H   H2226     1.0  0.82312  0.27459  0.60888  1.0000
  C   C2791     1.0  0.96725  0.32478  0.61942  1.0000
  H   H2227     1.0  0.77333  0.32390  0.54753  1.0000
  C   C2792     1.0  0.88868  0.42243  0.63347  1.0000
  S   S400      1.0  0.89245  0.32104  0.60648  1.0000
  C   C2793     1.0  0.93629  0.27206  0.50696  1.0000
  C   C2794     1.0  0.97513  0.40362  0.50497  1.0000
  C   C2795     1.0  0.78651  0.30149  0.48567  1.0000
  P   P93       1.0  0.82176  0.28470  0.49618  1.0000
  C   C2796     1.0  0.84664  0.28336  0.48530  1.0000
  C   C2797     1.0  0.84612  0.28085  0.58615  1.0000
  C   C2798     1.0  0.82584  0.30725  0.52029  1.0000
  C   C2799     1.0  0.82408  0.31239  0.53783  1.0000
  H   H2228     1.0  0.82630  0.34525  0.33037  1.0000
  C   C2800     1.0  0.86099  0.27959  0.49640  1.0000
  C   C2801     1.0  0.88031  0.27634  0.48808  1.0000
  C   C2802     1.0  0.88545  0.27657  0.46874  1.0000
  C   C2803     1.0  0.87129  0.28015  0.45763  1.0000
  C   C2804     1.0  0.85195  0.28339  0.46591  1.0000
  H   H2229     1.0  0.78082  0.28969  0.49508  1.0000
  H   H2230     1.0  0.83345  0.31518  0.50793  1.0000
  H   H2231     1.0  0.83064  0.32396  0.53906  1.0000
  H   H2232     1.0  0.92081  0.35707  0.35661  1.0000
  H   H2233     1.0  0.85733  0.27875  0.51151  1.0000
  H   H2234     1.0  0.89130  0.27345  0.49666  1.0000
  H   H2235     1.0  0.90038  0.27379  0.46240  1.0000
  H   H2236     1.0  0.87526  0.28027  0.44264  1.0000
  H   H2237     1.0  0.84117  0.28553  0.45727  1.0000
  C   C2805     1.0  0.97535  0.39077  0.57782  1.0000
  H   H2238     1.0  0.81333  0.30595  0.56749  1.0000
  C   C2806     1.0  0.74580  0.26851  0.50767  1.0000
  C   C2807     1.0  0.83078  0.27151  0.59536  1.0000
  C   C2808     1.0  0.80777  0.28203  0.53473  1.0000
  C   C2809     1.0  0.81419  0.30235  0.55382  1.0000
  H   H2239     1.0  0.93926  0.46488  0.37204  1.0000
  C   C2810     1.0  0.92974  0.42088  0.31650  1.0000
  C   C2811     1.0  0.87868  0.45940  0.43055  1.0000
  Fe  Fe206     1.0  0.79903  0.22966  0.56517  1.0000
  H   H2240     1.0  0.90006  0.39657  0.37450  1.0000
  Fe  Fe207     1.0  0.90375  0.34444  0.40548  1.0000
  H   H2241     1.0  0.68496  0.23237  0.43728  1.0000
  H   H2242     1.0  0.88779  0.42667  0.38596  1.0000
  C   C2812     1.0  0.72854  0.24481  0.35598  1.0000
  H   H2243     1.0  0.81290  0.41802  0.33148  1.0000
  C   C2813     1.0  0.80570  0.28746  0.55219  1.0000
  C   C2814     1.0  0.77534  0.27751  0.62435  1.0000
  H   H2244     1.0  0.70937  0.24790  0.44400  1.0000
  P   P94       1.0  0.96789  0.42349  0.59396  1.0000
  C   C2815     1.0  0.97804  0.32779  0.58052  1.0000
  C   C2816     1.0  0.81819  0.26083  0.49743  1.0000
  C   C2817     1.0  0.82382  0.27522  0.38939  1.0000
  S   S401      1.0  0.82917  0.23660  0.55959  1.0000
  H   H2245     1.0  0.92401  0.38929  0.33998  1.0000
  H   H2246     1.0  0.93919  0.33012  0.44532  1.0000
  C   C2818     1.0  0.89823  0.41475  0.53019  1.0000
  C   C2819     1.0  0.90088  0.42424  0.54370  1.0000
  C   C2820     1.0  0.91935  0.42598  0.54497  1.0000
  C   C2821     1.0  0.93525  0.41790  0.53298  1.0000
  C   C2822     1.0  0.93270  0.40826  0.51939  1.0000
  C   C2823     1.0  0.91401  0.40694  0.51799  1.0000
  P   P95       1.0  0.95298  0.39594  0.50506  1.0000
  C   C2824     1.0  0.94883  0.39973  0.48116  1.0000
  H   H2247     1.0  0.69451  0.33122  0.63101  1.0000
  H   H2248     1.0  0.85897  0.25933  0.54752  1.0000
  H   H2249     1.0  0.93089  0.41594  0.59063  1.0000
  C   C2825     1.0  0.96204  0.41729  0.61926  1.0000
  C   C2826     1.0  0.90123  0.29068  0.52403  1.0000
  H   H2250     1.0  0.80054  0.23440  0.47442  1.0000
  C   C2827     1.0  0.95758  0.38627  0.46959  1.0000
  C   C2828     1.0  0.95507  0.38955  0.45085  1.0000
  C   C2829     1.0  0.94356  0.40618  0.44359  1.0000
  C   C2830     1.0  0.93478  0.41967  0.45502  1.0000
  C   C2831     1.0  0.93755  0.41658  0.47369  1.0000
  C   C2832     1.0  0.95624  0.37088  0.51461  1.0000
  C   C2833     1.0  0.94098  0.36259  0.52595  1.0000
  C   C2834     1.0  0.94387  0.34331  0.53357  1.0000
  C   C2835     1.0  0.73439  0.28384  0.49821  1.0000
  C   C2836     1.0  0.94901  0.46002  0.59845  1.0000
  C   C2837     1.0  0.90302  0.42131  0.38428  1.0000
  H   H2251     1.0  0.88396  0.41285  0.52954  1.0000
  H   H2252     1.0  0.88862  0.42992  0.55342  1.0000
  H   H2253     1.0  0.92128  0.43312  0.55568  1.0000
  H   H2254     1.0  0.94942  0.41889  0.53464  1.0000
  H   H2255     1.0  0.91162  0.39912  0.50802  1.0000
  H   H2256     1.0  0.65994  0.24842  0.62711  1.0000
  H   H2257     1.0  0.80660  0.47638  0.33610  1.0000
  C   C2838     1.0  0.85107  0.26271  0.56089  1.0000
  H   H2258     1.0  0.94673  0.36537  0.56620  1.0000
  C   C2839     1.0  0.75822  0.30317  0.59270  1.0000
  C   C2840     1.0  0.80984  0.44651  0.33580  1.0000
  C   C2841     1.0  0.92622  0.35948  0.34161  1.0000
  H   H2259     1.0  0.94145  0.40856  0.42914  1.0000
  H   H2260     1.0  0.92591  0.43257  0.44942  1.0000
  H   H2261     1.0  0.93098  0.42737  0.48222  1.0000
  H   H2262     1.0  0.92680  0.37074  0.52914  1.0000
  H   H2263     1.0  0.60806  0.24061  0.57473  1.0000
  H   H2264     1.0  0.96848  0.37021  0.33215  1.0000
  C   C2842     1.0  0.92005  0.36749  0.46770  1.0000
  H   H2265     1.0  0.96420  0.31734  0.53661  1.0000
  H   H2266     1.0  0.80145  0.27019  0.53383  1.0000
  H   H2267     1.0  0.81294  0.27245  0.38286  1.0000
  H   H2268     1.0  0.92175  0.39087  0.57849  1.0000
  H   H2269     1.0  0.83638  0.24901  0.51831  1.0000
  H   H2270     1.0  0.76479  0.24190  0.50531  1.0000
  C   C2843     1.0  0.89394  0.42654  0.43085  1.0000
  H   H2271     1.0  0.90393  0.41548  0.42446  1.0000
  H   H2272     1.0  0.97703  0.38964  0.53349  1.0000
  H   H2273     1.0  0.98915  0.39352  0.32956  1.0000
  C   C2844     1.0  0.93271  0.28560  0.43687  1.0000
  H   H2274     1.0  0.77132  0.34258  0.45739  1.0000
  H   H2275     1.0  0.88393  0.40667  0.45509  1.0000
  H   H2276     1.0  0.75920  0.31452  0.47776  1.0000
  H   H2277     1.0  0.81837  0.27453  0.44451  1.0000
  C   C2845     1.0  0.91221  0.30043  0.50860  1.0000
  H   H2278     1.0  0.92917  0.33019  0.33928  1.0000
  S   S402      1.0  0.77190  0.24898  0.57503  1.0000
  H   H2279     1.0  0.86016  0.39305  0.33358  1.0000
  C   C2846     1.0  0.75215  0.30577  0.55582  1.0000
  S   S403      1.0  0.73784  0.27068  0.44709  1.0000
  C   C2847     1.0  0.92945  0.39643  0.37602  1.0000
  C   C2848     1.0  0.97989  0.35128  0.35512  1.0000
  H   H2280     1.0  0.72446  0.23500  0.47185  1.0000
  C   C2849     1.0  0.77729  0.34726  0.62886  1.0000
  H   H2281     1.0  0.94511  0.42979  0.39144  1.0000
  H   H2282     1.0  0.95416  0.36853  0.40628  1.0000
  C   C2850     1.0  0.80811  0.25649  0.48507  1.0000
  C   C2851     1.0  0.98511  0.32967  0.61071  1.0000
  H   H2283     1.0  0.78870  0.26778  0.43783  1.0000
  H   H2284     1.0  0.93086  0.36885  0.61396  1.0000
  C   C2852     1.0  0.91055  0.42950  0.32099  1.0000
  C   C2853     1.0  0.91558  0.43105  0.38900  1.0000
  C   C2854     1.0  0.89188  0.44557  0.42171  1.0000
  C   C2855     1.0  0.75391  0.25409  0.47935  1.0000
  S   S404      1.0  0.87318  0.36710  0.62592  1.0000
  C   C2856     1.0  0.80546  0.43825  0.30699  1.0000
  C   C2857     1.0  0.79501  0.31705  0.61008  1.0000
  C   C2858     1.0  0.94108  0.47691  0.42024  1.0000
  H   H2285     1.0  0.76137  0.24251  0.47217  1.0000
  P   P96       1.0  0.94504  0.30382  0.48089  1.0000
  S   S405      1.0  0.74650  0.26872  0.53142  1.0000
  C   C2859     1.0  0.86755  0.45424  0.44813  1.0000
  C   C2860     1.0  0.82833  0.24600  0.50881  1.0000
  H   H2286     1.0  0.90659  0.31498  0.50326  1.0000
  C   C2861     1.0  0.74444  0.29407  0.58920  1.0000
  C   C2862     1.0  0.92234  0.35888  0.48603  1.0000
  P   P97       1.0  0.90618  0.45243  0.39898  1.0000
  H   H2287     1.0  0.98245  0.32852  0.56549  1.0000
  H   H2288     1.0  0.81345  0.25116  0.59453  1.0000
  C   C2863     1.0  0.77412  0.31573  0.47613  1.0000
  C   C2864     1.0  0.76827  0.31435  0.57756  1.0000
  C   C2865     1.0  0.93740  0.34746  0.31238  1.0000
  H   H2289     1.0  0.86067  0.43121  0.47048  1.0000
  C   C2866     1.0  0.98393  0.39784  0.52094  1.0000
  H   H2290     1.0  0.86805  0.28354  0.56161  1.0000
  C   C2867     1.0  0.92542  0.46357  0.40129  1.0000
  C   C2868     1.0  0.90528  0.44151  0.33432  1.0000
  H   H2291     1.0  0.91747  0.36694  0.49738  1.0000
  H   H2292     1.0  0.75027  0.30620  0.54154  1.0000
  H   H2293     1.0  0.95642  0.30983  0.40496  1.0000
  C   C2869     1.0  0.70840  0.23960  0.51430  1.0000
  C   C2870     1.0  0.95078  0.37667  0.57111  1.0000
  C   C2871     1.0  0.76519  0.31565  0.55921  1.0000
  C   C2872     1.0  0.81327  0.30398  0.43158  1.0000
  C   C2873     1.0  0.80879  0.28578  0.43735  1.0000
  C   C2874     1.0  0.79223  0.28188  0.43333  1.0000
  C   C2875     1.0  0.78053  0.29600  0.42294  1.0000
  C   C2876     1.0  0.78543  0.31406  0.41632  1.0000
  C   C2877     1.0  0.80137  0.31821  0.42155  1.0000
  P   P98       1.0  0.77010  0.33205  0.40292  1.0000
  C   C2878     1.0  0.76166  0.32101  0.38732  1.0000
  C   C2879     1.0  0.75098  0.34094  0.42058  1.0000
  C   C2880     1.0  0.73730  0.32965  0.43014  1.0000
  C   C2881     1.0  0.72310  0.33580  0.44467  1.0000
  C   C2882     1.0  0.72263  0.35312  0.44999  1.0000
  C   C2883     1.0  0.73649  0.36422  0.44088  1.0000
  C   C2884     1.0  0.75075  0.35807  0.42635  1.0000
  C   C2885     1.0  0.74235  0.32508  0.38521  1.0000
  C   C2886     1.0  0.73598  0.31569  0.37367  1.0000
  C   C2887     1.0  0.74891  0.30249  0.36392  1.0000
  C   C2888     1.0  0.76827  0.29895  0.36540  1.0000
  C   C2889     1.0  0.77463  0.30816  0.37706  1.0000
  C   C2890     1.0  0.78263  0.35008  0.38777  1.0000
  C   C2891     1.0  0.77257  0.36825  0.38187  1.0000
  C   C2892     1.0  0.78240  0.38234  0.37062  1.0000
  C   C2893     1.0  0.80228  0.37828  0.36499  1.0000
  C   C2894     1.0  0.81223  0.36001  0.37012  1.0000
  C   C2895     1.0  0.80240  0.34589  0.38108  1.0000
  H   H2294     1.0  0.82620  0.30707  0.43444  1.0000
  H   H2295     1.0  0.95832  0.41762  0.32273  1.0000
  H   H2296     1.0  0.91796  0.30369  0.45680  1.0000
  H   H2297     1.0  0.76773  0.29274  0.41998  1.0000
  H   H2298     1.0  0.80495  0.33228  0.41763  1.0000
  H   H2299     1.0  0.73773  0.31590  0.42661  1.0000
  H   H2300     1.0  0.71262  0.32696  0.45194  1.0000
  C   C2896     1.0  0.83548  0.25361  0.57003  1.0000
  S   S406      1.0  0.85175  0.29787  0.59708  1.0000
  H   H2301     1.0  0.76181  0.36647  0.42004  1.0000
  H   H2302     1.0  0.73213  0.33526  0.39261  1.0000
  H   H2303     1.0  0.72098  0.31839  0.37248  1.0000
  H   H2304     1.0  0.74393  0.29476  0.35542  1.0000
  H   H2305     1.0  0.77821  0.28850  0.35803  1.0000
  H   H2306     1.0  0.78959  0.30486  0.37845  1.0000
  H   H2307     1.0  0.75717  0.37157  0.38605  1.0000
  H   H2308     1.0  0.77466  0.39644  0.36639  1.0000
  H   H2309     1.0  0.81002  0.38919  0.35657  1.0000
  H   H2310     1.0  0.82765  0.35671  0.36571  1.0000
  H   H2311     1.0  0.81040  0.33177  0.38448  1.0000
  C   C2897     1.0  0.93508  0.38101  0.31263  1.0000
  H   H2312     1.0  0.73686  0.24691  0.32592  1.0000
  C   C2898     1.0  0.88269  0.42143  0.44836  1.0000
  H   H2313     1.0  0.76079  0.26252  0.61099  1.0000
  H   H2314     1.0  0.85715  0.38291  0.36800  1.0000
  S   S407      1.0  0.75056  0.24970  0.35891  1.0000
  C   C2899     1.0  0.80605  0.30250  0.48306  1.0000
  C   C2900     1.0  0.94199  0.40525  0.58484  1.0000
  S   S408      1.0  0.74010  0.23316  0.41416  1.0000
  H   H2315     1.0  0.82746  0.32023  0.47059  1.0000
  H   H2316     1.0  0.95712  0.39976  0.37952  1.0000
  Fe  Fe208     1.0  0.79397  0.23641  0.40790  1.0000
  H   H2317     1.0  0.96163  0.29036  0.51582  1.0000
  S   S409      1.0  0.88302  0.35494  0.38546  1.0000
  C   C2901     1.0  0.93021  0.33966  0.48988  1.0000
  C   C2902     1.0  0.95467  0.32173  0.60873  1.0000
  C   C2903     1.0  0.96137  0.40540  0.58453  1.0000
  C   C2904     1.0  0.90994  0.40410  0.37782  1.0000
  C   C2905     1.0  0.93090  0.34432  0.33180  1.0000
  C   C2906     1.0  0.92642  0.46792  0.41867  1.0000
  H   H2318     1.0  0.97862  0.41782  0.47585  1.0000
  H   H2319     1.0  0.80546  0.34546  0.45417  1.0000
  H   H2320     1.0  0.94067  0.33574  0.30474  1.0000
  S   S410      1.0  0.93455  0.34569  0.39186  1.0000
  C   C2907     1.0  0.96220  0.32078  0.40855  1.0000
  C   C2908     1.0  0.98156  0.43127  0.39728  1.0000
  C   C2909     1.0  0.93675  0.39101  0.57803  1.0000
  H   H2321     1.0  0.72732  0.32845  0.61246  1.0000
  C   C2910     1.0  0.80016  0.33311  0.46282  1.0000
  H   H2322     1.0  0.79797  0.27972  0.56458  1.0000
  C   C2911     1.0  0.93514  0.42305  0.38739  1.0000
  H   H2323     1.0  0.72324  0.29601  0.47275  1.0000
  C   C2912     1.0  0.94347  0.42429  0.32567  1.0000
  S   S411      1.0  0.77157  0.26147  0.40036  1.0000
  S   S412      1.0  0.82421  0.23887  0.40975  1.0000
  C   C2913     1.0  0.88731  0.40082  0.61279  1.0000
  H   H2324     1.0  0.94893  0.43972  0.34521  1.0000
  H   H2325     1.0  0.93161  0.42770  0.62031  1.0000
  C   C2914     1.0  0.96198  0.33218  0.53022  1.0000
  C   C2915     1.0  0.74205  0.26938  0.47013  1.0000
  H   H2326     1.0  0.88926  0.39758  0.59882  1.0000
  H   H2327     1.0  0.95263  0.44070  0.55944  1.0000
  C   C2916     1.0  0.77549  0.31859  0.61816  1.0000
  H   H2328     1.0  0.69894  0.25379  0.55683  1.0000
  H   H2329     1.0  0.82066  0.32906  0.60532  1.0000
  H   H2330     1.0  0.71576  0.24220  0.38525  1.0000
  H   H2331     1.0  0.73031  0.25464  0.61028  1.0000
  C   C2917     1.0  0.97439  0.35948  0.51108  1.0000
  C   C2918     1.0  0.95383  0.36825  0.62857  1.0000
  C   C2919     1.0  0.80554  0.33047  0.61142  1.0000
  C   C2920     1.0  0.97970  0.31621  0.41505  1.0000
  C   C2921     1.0  0.83487  0.37236  0.31891  1.0000
  C   C2922     1.0  0.97723  0.34027  0.51901  1.0000
  C   C2923     1.0  0.93715  0.46841  0.56355  1.0000
  C   C2924     1.0  0.92519  0.26230  0.52230  1.0000
  H   H2332     1.0  0.98096  0.36547  0.56571  1.0000
  C   C2925     1.0  0.75576  0.25367  0.49815  1.0000
  C   C2926     1.0  0.93009  0.29134  0.50027  1.0000
  C   C2927     1.0  0.97250  0.29531  0.50447  1.0000
  H   H2333     1.0  0.89048  0.44813  0.33786  1.0000
  H   H2334     1.0  0.94104  0.31770  0.61563  1.0000
  C   C2928     1.0  0.93767  0.47750  0.59308  1.0000
  H   H2335     1.0  0.96626  0.37316  0.47500  1.0000
  H   H2336     1.0  0.96187  0.37899  0.44208  1.0000
  C   C2929     1.0  0.69612  0.23883  0.36845  1.0000
  C   C2930     1.0  0.76668  0.33383  0.62757  1.0000
  Fe  Fe209     1.0  0.75399  0.25019  0.42769  1.0000
  Fe  Fe210     1.0  0.76164  0.24404  0.55001  1.0000
  C   C2931     1.0  0.82208  0.35962  0.32324  1.0000
  H   H2337     1.0  0.93162  0.33313  0.50420  1.0000
  C   C2932     1.0  0.93819  0.43661  0.33865  1.0000
  C   C2933     1.0  0.73244  0.28421  0.47968  1.0000
  H   H2338     1.0  0.73593  0.28602  0.60067  1.0000
  H   H2339     1.0  0.93480  0.38300  0.37121  1.0000
  C   C2934     1.0  0.59937  0.23089  0.35375  1.0000
  C   C2935     1.0  0.80828  0.23761  0.48407  1.0000
  C   C2936     1.0  0.80592  0.46576  0.32814  1.0000
  C   C2937     1.0  0.89155  0.41791  0.61537  1.0000
  H   H2340     1.0  0.80218  0.30537  0.60287  1.0000
  H   H2341     1.0  0.98975  0.45558  0.37748  1.0000
  H   H2342     1.0  0.96397  0.37158  0.61585  1.0000
  C   C2938     1.0  0.91910  0.44527  0.34288  1.0000
  C   C2939     1.0  0.80956  0.43278  0.32531  1.0000
  H   H2343     1.0  0.97963  0.31625  0.45832  1.0000
  H   H2344     1.0  0.92062  0.28782  0.42974  1.0000
  H   H2345     1.0  0.91356  0.38228  0.46484  1.0000
  C   C2940     1.0  0.96407  0.28006  0.45504  1.0000
  H   H2346     1.0  0.63073  0.22976  0.41408  1.0000
  C   C2941     1.0  0.94714  0.29227  0.46105  1.0000
  C   C2942     1.0  0.74164  0.29514  0.57083  1.0000
  C   C2943     1.0  0.70377  0.25174  0.52751  1.0000
  C   C2944     1.0  0.97610  0.40804  0.63009  1.0000
  C   C2945     1.0  0.93132  0.29465  0.45212  1.0000
  C   C2946     1.0  0.70478  0.23574  0.45373  1.0000
  C   C2947     1.0  0.94204  0.40590  0.38077  1.0000
  H   H2347     1.0  0.73155  0.28747  0.56813  1.0000
  C   C2948     1.0  0.72200  0.24911  0.62346  1.0000
  H   H2348     1.0  0.89920  0.26419  0.54296  1.0000
  H   H2349     1.0  0.97381  0.43939  0.40807  1.0000
  H   H2350     1.0  0.93207  0.33701  0.54235  1.0000
  H   H2351     1.0  0.84903  0.36783  0.32259  1.0000
  H   H2352     1.0  0.86646  0.45383  0.39501  1.0000
  H   H2353     1.0  0.85720  0.46493  0.45479  1.0000
  H   H2354     1.0  0.91505  0.45504  0.35266  1.0000
  C   C2949     1.0  0.92634  0.35705  0.45308  1.0000
  C   C2950     1.0  0.93424  0.33782  0.45690  1.0000
  H   H2355     1.0  0.94984  0.26466  0.50047  1.0000
  C   C2951     1.0  0.87183  0.46550  0.38510  1.0000
  C   C2952     1.0  0.93559  0.32882  0.47547  1.0000
  C   C2953     1.0  0.93528  0.36663  0.62747  1.0000
  H   H2356     1.0  0.92502  0.36378  0.43877  1.0000
  H   H2357     1.0  0.89676  0.42783  0.60330  1.0000
  H   H2358     1.0  0.70229  0.26693  0.52281  1.0000
  C   C2954     1.0  0.90774  0.27166  0.53095  1.0000
  H   H2359     1.0  0.76822  0.41931  0.31863  1.0000
  H   H2360     1.0  0.71033  0.24580  0.49957  1.0000
  H   H2361     1.0  0.51580  0.23071  0.34736  1.0000
  C   C2955     1.0  0.94971  0.27378  0.43073  1.0000
  C   C2956     1.0  0.98261  0.31006  0.47229  1.0000
  S   S413      1.0  0.85995  0.42917  0.30999  1.0000
  H   H2362     1.0  0.96317  0.32322  0.63454  1.0000
  H   H2363     1.0  0.79406  0.35544  0.32157  1.0000
  C   C2957     1.0  0.97847  0.34925  0.41599  1.0000
  C   C2958     1.0  0.86951  0.43526  0.45700  1.0000
  C   C2959     1.0  0.98367  0.41154  0.40101  1.0000
  H   H2364     1.0  0.93015  0.24750  0.52760  1.0000
  H   H2365     1.0  0.73458  0.42655  0.31367  1.0000
  S   S414      1.0  0.67033  0.23552  0.34752  1.0000
  C   C2960     1.0  0.69307  0.23865  0.35034  1.0000
  C   C2961     1.0  0.96535  0.27095  0.43987  1.0000
  H   H2366     1.0  0.83957  0.40061  0.30639  1.0000
  C   C2962     1.0  0.89051  0.46860  0.38413  1.0000
  H   H2367     1.0  0.91592  0.46450  0.43104  1.0000
  H   H2368     1.0  0.81354  0.44218  0.34973  1.0000
  C   C2963     1.0  0.70677  0.26106  0.63281  1.0000
  H   H2369     1.0  0.93244  0.47165  0.55007  1.0000
  C   C2964     1.0  0.93942  0.46831  0.38559  1.0000
  S   S415      1.0  0.59757  0.23989  0.30553  1.0000
  C   C2965     1.0  0.82944  0.39092  0.30981  1.0000
  H   H2370     1.0  0.49050  0.25135  0.62846  1.0000
  H   H2371     1.0  0.97785  0.40441  0.41474  1.0000
  H   H2372     1.0  0.84554  0.47483  0.37394  1.0000
  C   C2966     1.0  0.70793  0.24134  0.33503  1.0000
  H   H2373     1.0  0.98717  0.30168  0.41672  1.0000
  C   C2967     1.0  0.72431  0.31841  0.62529  1.0000
  C   C2968     1.0  0.79671  0.34557  0.62081  1.0000
  H   H2374     1.0  0.80501  0.35585  0.62194  1.0000
  C   C2969     1.0  0.97873  0.36768  0.34148  1.0000
  C   C2970     1.0  0.81105  0.39698  0.30517  1.0000
  Fe  Fe211     1.0  0.66403  0.23159  0.31985  1.0000
  H   H2375     1.0  0.68473  0.23695  0.38037  1.0000
  C   C2971     1.0  0.66409  0.23467  0.62273  1.0000
  H   H2376     1.0  0.69359  0.23751  0.61329  1.0000
  H   H2377     1.0  0.97634  0.27758  0.46194  1.0000
  C   C2972     1.0  0.98811  0.33044  0.41834  1.0000
  C   C2973     1.0  0.76514  0.42406  0.30450  1.0000
  C   C2974     1.0  0.78124  0.24331  0.62588  1.0000
  H   H2378     1.0  0.89963  0.42704  0.31431  1.0000
  C   C2975     1.0  0.73879  0.30365  0.63113  1.0000
  C   C2976     1.0  0.87981  0.38829  0.62831  1.0000
  S   S416      1.0  0.88054  0.47761  0.30598  1.0000
  H   H2379     1.0  0.70361  0.27597  0.62693  1.0000
  H   H2380     1.0  0.62549  0.23214  0.36256  1.0000
  C   C2977     1.0  0.79842  0.38396  0.30920  1.0000
  H   H2381     1.0  0.70576  0.24125  0.32101  1.0000
  H   H2382     1.0  0.98649  0.36537  0.50235  1.0000
  S   S417      1.0  0.97445  0.47496  0.33653  1.0000
  H   H2383     1.0  0.87687  0.47414  0.42377  1.0000
  H   H2384     1.0  0.78447  0.38790  0.30511  1.0000
  S   S418      1.0  0.89354  0.44436  0.63601  1.0000
  H   H2385     1.0  0.77815  0.23094  0.62200  1.0000
  H   H2386     1.0  0.75175  0.33534  0.63410  1.0000
  C   C2978     1.0  0.85988  0.47739  0.37321  1.0000
  C   C2979     1.0  0.70573  0.32006  0.63575  1.0000
  C   C2980     1.0  0.96240  0.47924  0.31734  1.0000
  C   C2981     1.0  0.95359  0.47791  0.38708  1.0000
  C   C2982     1.0  0.72616  0.22984  0.63101  1.0000
  C   C2983     1.0  0.78876  0.27519  0.63623  1.0000
  H   H2387     1.0  0.77051  0.35893  0.63624  1.0000
  Fe  Fe212     1.0  0.89296  0.45195  0.66456  1.0000
  S   S419      1.0  0.89768  0.43291  0.69191  1.0000
  C   C2984     1.0  0.66831  0.30382  0.70066  1.0000
  S   S420      1.0  0.89714  0.47142  0.70912  1.0000
  C   C2985     1.0  0.57619  0.26946  0.78702  1.0000
  C   C2986     1.0  0.65765  0.33455  0.71989  1.0000
  Fe  Fe213     1.0  0.91881  0.45108  0.69296  1.0000
  S   S421      1.0  0.94916  0.43949  0.69827  1.0000
  Fe  Fe214     1.0  0.87547  0.45492  0.70575  1.0000
  S   S422      1.0  0.84932  0.44622  0.72648  1.0000
  H   H2388     1.0  0.49108  0.30295  0.86922  1.0000
  H   H2389     1.0  0.57312  0.28008  0.81272  1.0000
  C   C2987     1.0  0.50947  0.26158  0.79832  1.0000
  H   H2390     1.0  0.50990  0.28747  0.65647  1.0000
  C   C2988     1.0  0.67654  0.32473  0.71789  1.0000
  Fe  Fe215     1.0  0.74784  0.44458  0.83670  1.0000
  S   S423      1.0  0.77382  0.44226  0.85003  1.0000
  S   S424      1.0  0.73579  0.41737  0.84081  1.0000
  Fe  Fe216     1.0  0.75752  0.46778  0.86249  1.0000
  H   H2391     1.0  0.52042  0.39508  0.86940  1.0000
  Fe  Fe217     1.0  0.78355  0.46294  0.82410  1.0000
  S   S425      1.0  0.81437  0.46379  0.80916  1.0000
  S   S426      1.0  0.73114  0.46864  0.85090  1.0000
  S   S427      1.0  0.75862  0.46374  0.81010  1.0000
  Fe  Fe218     1.0  0.65381  0.37467  0.81982  1.0000
  S   S428      1.0  0.67041  0.34518  0.82568  1.0000
  S   S429      1.0  0.66777  0.40080  0.80802  1.0000
  Fe  Fe219     1.0  0.61522  0.36040  0.83043  1.0000
  S   S430      1.0  0.58296  0.36967  0.83652  1.0000
  Fe  Fe220     1.0  0.64772  0.34151  0.85156  1.0000
  S   S431      1.0  0.65329  0.32795  0.88094  1.0000
  C   C2989     1.0  0.68114  0.47600  0.88687  1.0000
  S   S432      1.0  0.63227  0.37148  0.84654  1.0000
  S   S433      1.0  0.63511  0.36667  0.80299  1.0000
  C   C2990     1.0  0.93123  0.34665  0.72054  1.0000
  C   C2991     1.0  0.56132  0.32276  0.89534  1.0000
  C   C2992     1.0  0.64388  0.32892  0.71245  1.0000
  S   S434      1.0  0.52540  0.33515  0.80498  1.0000
  H   H2392     1.0  0.57211  0.28813  0.71587  1.0000
  C   C2993     1.0  0.58069  0.29861  0.71575  1.0000
  H   H2393     1.0  0.96320  0.28777  0.67341  1.0000
  C   C2994     1.0  0.60384  0.32500  0.71529  1.0000
  Fe  Fe221     1.0  0.65029  0.33669  0.81060  1.0000
  C   C2995     1.0  0.56752  0.35858  0.82859  1.0000
  C   C2996     1.0  0.54789  0.36166  0.83608  1.0000
  C   C2997     1.0  0.53484  0.35468  0.82890  1.0000
  C   C2998     1.0  0.54139  0.34423  0.81430  1.0000
  C   C2999     1.0  0.56116  0.34035  0.80736  1.0000
  C   C3000     1.0  0.57421  0.34742  0.81455  1.0000
  H   H2394     1.0  0.54278  0.36936  0.84760  1.0000
  H   H2395     1.0  0.51974  0.35726  0.83476  1.0000
  H   H2396     1.0  0.56640  0.33200  0.79626  1.0000
  H   H2397     1.0  0.58938  0.34449  0.80905  1.0000
  C   C3001     1.0  0.65089  0.34303  0.89744  1.0000
  C   C3002     1.0  0.65252  0.36211  0.89149  1.0000
  H   H2398     1.0  0.89042  0.37190  0.74200  1.0000
  H   H2399     1.0  0.65518  0.36787  0.87664  1.0000
  S   S435      1.0  0.62924  0.32997  0.83719  1.0000
  C   C3003     1.0  0.71574  0.41428  0.83236  1.0000
  C   C3004     1.0  0.70646  0.39896  0.84141  1.0000
  C   C3005     1.0  0.69194  0.39450  0.83401  1.0000
  C   C3006     1.0  0.68648  0.40543  0.81745  1.0000
  C   C3007     1.0  0.69572  0.42080  0.80837  1.0000
  C   C3008     1.0  0.71026  0.42527  0.81581  1.0000
  H   H2400     1.0  0.71059  0.39043  0.85421  1.0000
  H   H2401     1.0  0.68490  0.38269  0.84118  1.0000
  H   H2402     1.0  0.69161  0.42931  0.79552  1.0000
  H   H2403     1.0  0.71750  0.43691  0.80853  1.0000
  C   C3009     1.0  0.75923  0.46440  0.91170  1.0000
  C   C3010     1.0  0.77196  0.44712  0.91209  1.0000
  C   C3011     1.0  0.77857  0.43792  0.92888  1.0000
  C   C3012     1.0  0.77262  0.44607  0.94523  1.0000
  C   C3013     1.0  0.75983  0.46327  0.94481  1.0000
  C   C3014     1.0  0.54755  0.23159  0.76249  1.0000
  H   H2404     1.0  0.77684  0.44100  0.89943  1.0000
  H   H2405     1.0  0.78846  0.42459  0.92915  1.0000
  S   S436      1.0  0.63789  0.23558  0.67824  1.0000
  H   H2406     1.0  0.87934  0.41301  0.66298  1.0000
  C   C3015     1.0  0.95280  0.41071  0.65864  1.0000
  C   C3016     1.0  0.52772  0.30956  0.92056  1.0000
  H   H2407     1.0  0.51425  0.29906  0.83987  1.0000
  C   C3017     1.0  0.96974  0.38032  0.69673  1.0000
  H   H2408     1.0  0.73875  0.39170  0.81059  1.0000
  H   H2409     1.0  0.78288  0.35856  0.77593  1.0000
  C   C3018     1.0  0.64664  0.34737  0.93016  1.0000
  C   C3019     1.0  0.83950  0.45221  0.74907  1.0000
  C   C3020     1.0  0.82175  0.44719  0.75830  1.0000
  C   C3021     1.0  0.81366  0.45105  0.77650  1.0000
  C   C3022     1.0  0.82333  0.45986  0.78574  1.0000
  C   C3023     1.0  0.84094  0.46512  0.77642  1.0000
  C   C3024     1.0  0.84896  0.46142  0.75813  1.0000
  H   H2410     1.0  0.81434  0.44007  0.75139  1.0000
  H   H2411     1.0  0.80017  0.44681  0.78355  1.0000
  S   S437      1.0  0.53709  0.34673  0.96445  1.0000
  H   H2412     1.0  0.54088  0.23576  0.77590  1.0000
  C   C3025     1.0  0.96415  0.45675  0.69350  1.0000
  H   H2413     1.0  0.67232  0.29176  0.69339  1.0000
  H   H2414     1.0  0.95976  0.44839  0.65773  1.0000
  H   H2415     1.0  0.56221  0.34760  0.87343  1.0000
  C   C3026     1.0  0.79065  0.29790  0.79544  1.0000
  P   P99       1.0  0.72435  0.37747  0.96080  1.0000
  H   H2416     1.0  0.57546  0.35305  0.96068  1.0000
  P   P100      1.0  0.49566  0.24283  0.80842  1.0000
  C   C3027     1.0  0.70591  0.33874  0.78241  1.0000
  H   H2417     1.0  0.58380  0.38926  0.67084  1.0000
  C   C3028     1.0  0.57624  0.23573  0.79023  1.0000
  C   C3029     1.0  0.78610  0.30359  0.81300  1.0000
  C   C3030     1.0  0.66140  0.29751  0.76154  1.0000
  C   C3031     1.0  0.88167  0.40966  0.64900  1.0000
  C   C3032     1.0  0.57046  0.33598  0.88169  1.0000
  C   C3033     1.0  0.93405  0.35893  0.70321  1.0000
  P   P101      1.0  0.74749  0.35290  0.80391  1.0000
  H   H2418     1.0  0.56584  0.29735  0.91629  1.0000
  C   C3034     1.0  0.71407  0.34504  0.85626  1.0000
  H   H2419     1.0  0.63927  0.30936  0.69633  1.0000
  H   H2420     1.0  0.62623  0.30554  0.79896  1.0000
  C   C3035     1.0  0.75185  0.39037  0.80046  1.0000
  C   C3036     1.0  0.73810  0.35260  0.82868  1.0000
  Fe  Fe222     1.0  0.61208  0.25260  0.69359  1.0000
  H   H2421     1.0  0.71231  0.28184  0.67041  1.0000
  H   H2422     1.0  0.65339  0.38817  0.90008  1.0000
  H   H2423     1.0  0.69379  0.33652  0.93494  1.0000
  H   H2424     1.0  0.72006  0.38506  0.78815  1.0000
  C   C3037     1.0  0.52171  0.28410  0.77156  1.0000
  C   C3038     1.0  0.75947  0.37305  0.79429  1.0000
  C   C3039     1.0  0.50549  0.38511  0.90757  1.0000
  C   C3040     1.0  0.90260  0.36825  0.73123  1.0000
  S   S438      1.0  0.64784  0.38181  0.93978  1.0000
  H   H2425     1.0  0.72964  0.32390  0.79563  1.0000
  C   C3041     1.0  0.96680  0.29687  0.68147  1.0000
  C   C3042     1.0  0.53720  0.23639  0.74767  1.0000
  C   C3043     1.0  0.54392  0.47582  0.89063  1.0000
  C   C3044     1.0  0.69508  0.35633  0.77646  1.0000
  C   C3045     1.0  0.64947  0.31370  0.70255  1.0000
  C   C3046     1.0  0.70626  0.35455  0.94677  1.0000
  C   C3047     1.0  0.54768  0.25858  0.68517  1.0000
  C   C3048     1.0  0.59240  0.30609  0.90245  1.0000
  C   C3049     1.0  0.69536  0.25373  0.64956  1.0000
  C   C3050     1.0  0.96388  0.32825  0.68893  1.0000
  C   C3051     1.0  0.91553  0.35131  0.73447  1.0000
  C   C3052     1.0  0.53483  0.24918  0.68054  1.0000
  C   C3053     1.0  0.70803  0.38588  0.92843  1.0000
  H   H2426     1.0  0.63128  0.44327  0.96835  1.0000
  H   H2427     1.0  0.74518  0.27893  0.65243  1.0000
  C   C3054     1.0  0.69539  0.36344  0.91681  1.0000
  H   H2428     1.0  0.54620  0.35375  0.91453  1.0000
  C   C3055     1.0  0.70148  0.30696  0.65207  1.0000
  C   C3056     1.0  0.61733  0.36063  0.69517  1.0000
  S   S439      1.0  0.67611  0.26897  0.66083  1.0000
  C   C3057     1.0  0.59041  0.33409  0.87834  1.0000
  C   C3058     1.0  0.57245  0.30776  0.90569  1.0000
  C   C3059     1.0  0.52332  0.37762  0.91290  1.0000
  C   C3060     1.0  0.59937  0.36843  0.68998  1.0000
  C   C3061     1.0  0.92112  0.37606  0.70016  1.0000
  H   H2429     1.0  0.70078  0.33987  0.86254  1.0000
  H   H2430     1.0  0.64751  0.36257  0.68884  1.0000
  H   H2431     1.0  0.62770  0.46103  0.83150  1.0000
  C   C3062     1.0  0.90539  0.38059  0.71408  1.0000
  H   H2432     1.0  0.64446  0.34161  0.94504  1.0000
  C   C3063     1.0  0.58751  0.30962  0.69878  1.0000
  H   H2433     1.0  0.94938  0.32164  0.66888  1.0000
  H   H2434     1.0  0.80076  0.28497  0.79342  1.0000
  H   H2435     1.0  0.59743  0.34428  0.86779  1.0000
  H   H2436     1.0  0.58976  0.23373  0.66584  1.0000
  H   H2437     1.0  0.86262  0.46534  0.75121  1.0000
  S   S440      1.0  0.58291  0.26552  0.68596  1.0000
  H   H2438     1.0  0.75517  0.46965  0.95733  1.0000
  C   C3064     1.0  0.97649  0.32058  0.70175  1.0000
  C   C3065     1.0  0.52885  0.31711  0.87973  1.0000
  H   H2439     1.0  0.50486  0.26420  0.76978  1.0000
  C   C3066     1.0  0.72109  0.34562  0.83703  1.0000
  C   C3067     1.0  0.59920  0.32264  0.69848  1.0000
  Fe  Fe223     1.0  0.49326  0.34177  0.81520  1.0000
  H   H2440     1.0  0.66041  0.28110  0.74066  1.0000
  H   H2441     1.0  0.98123  0.40165  0.70475  1.0000
  C   C3068     1.0  0.62106  0.44897  0.83198  1.0000
  C   C3069     1.0  0.62814  0.43729  0.81842  1.0000
  C   C3070     1.0  0.62018  0.42127  0.81945  1.0000
  C   C3071     1.0  0.60501  0.41701  0.83386  1.0000
  C   C3072     1.0  0.59734  0.42904  0.84710  1.0000
  C   C3073     1.0  0.60588  0.44471  0.84646  1.0000
  P   P102      1.0  0.57748  0.42345  0.86535  1.0000
  C   C3074     1.0  0.55951  0.41675  0.85570  1.0000
  C   C3075     1.0  0.58742  0.40533  0.88309  1.0000
  C   C3076     1.0  0.58527  0.38636  0.88517  1.0000
  C   C3077     1.0  0.59239  0.37279  0.89960  1.0000
  C   C3078     1.0  0.60211  0.37792  0.91164  1.0000
  C   C3079     1.0  0.60497  0.39660  0.90918  1.0000
  C   C3080     1.0  0.59776  0.41025  0.89489  1.0000
  C   C3081     1.0  0.54530  0.40742  0.86765  1.0000
  C   C3082     1.0  0.53093  0.40289  0.86030  1.0000
  C   C3083     1.0  0.53052  0.40778  0.84104  1.0000
  C   C3084     1.0  0.54429  0.41750  0.82914  1.0000
  C   C3085     1.0  0.55858  0.42222  0.83644  1.0000
  C   C3086     1.0  0.56486  0.44402  0.87539  1.0000
  C   C3087     1.0  0.98901  0.44849  0.64381  1.0000
  C   C3088     1.0  0.97940  0.28938  0.69417  1.0000
  H   H2442     1.0  0.80931  0.25551  0.65123  1.0000
  C   C3089     1.0  0.71150  0.37240  0.94448  1.0000
  C   C3090     1.0  0.96967  0.45649  0.64791  1.0000
  C   C3091     1.0  0.51764  0.26931  0.80999  1.0000
  H   H2443     1.0  0.64025  0.44021  0.80748  1.0000
  H   H2444     1.0  0.62607  0.41189  0.80928  1.0000
  H   H2445     1.0  0.59922  0.40434  0.83461  1.0000
  H   H2446     1.0  0.60097  0.45360  0.85713  1.0000
  H   H2447     1.0  0.57828  0.38194  0.87565  1.0000
  H   H2448     1.0  0.59055  0.35821  0.90149  1.0000
  H   H2449     1.0  0.60771  0.36734  0.92272  1.0000
  H   H2450     1.0  0.61289  0.40037  0.91835  1.0000
  H   H2451     1.0  0.60013  0.42466  0.89314  1.0000
  H   H2452     1.0  0.54542  0.40350  0.88261  1.0000
  C   C3092     1.0  0.73445  0.29066  0.64769  1.0000
  H   H2453     1.0  0.51981  0.40361  0.83526  1.0000
  H   H2454     1.0  0.54410  0.42111  0.81418  1.0000
  H   H2455     1.0  0.56888  0.43003  0.82695  1.0000
  H   H2456     1.0  0.51627  0.30963  0.96769  1.0000
  H   H2457     1.0  0.69639  0.30146  0.70714  1.0000
  H   H2458     1.0  0.74669  0.38102  0.92229  1.0000
  C   C3093     1.0  0.56752  0.25277  0.68031  1.0000
  H   H2459     1.0  0.56007  0.42890  0.90412  1.0000
  C   C3094     1.0  0.66993  0.44001  0.84806  1.0000
  C   C3095     1.0  0.65715  0.42728  0.85438  1.0000
  C   C3096     1.0  0.65053  0.42233  0.87358  1.0000
  C   C3097     1.0  0.65718  0.42958  0.88658  1.0000
  C   C3098     1.0  0.67046  0.44204  0.88034  1.0000
  C   C3099     1.0  0.67681  0.44713  0.86094  1.0000
  P   P103      1.0  0.67980  0.45138  0.89667  1.0000
  C   C3100     1.0  0.66449  0.44915  0.91943  1.0000
  C   C3101     1.0  0.70333  0.43847  0.89985  1.0000
  C   C3102     1.0  0.71124  0.44070  0.91486  1.0000
  C   C3103     1.0  0.73008  0.43223  0.91653  1.0000
  C   C3104     1.0  0.74108  0.42118  0.90349  1.0000
  C   C3105     1.0  0.73313  0.41841  0.88887  1.0000
  C   C3106     1.0  0.71435  0.42709  0.88695  1.0000
  C   C3107     1.0  0.63478  0.28213  0.76158  1.0000
  H   H2460     1.0  0.91336  0.34180  0.74781  1.0000
  C   C3108     1.0  0.49857  0.28413  0.65089  1.0000
  H   H2461     1.0  0.76974  0.32439  0.82935  1.0000
  C   C3109     1.0  0.66424  0.43116  0.93068  1.0000
  C   C3110     1.0  0.64099  0.46299  0.94379  1.0000
  Fe  Fe224     1.0  0.63284  0.25601  0.72464  1.0000
  H   H2462     1.0  0.49429  0.29692  0.74293  1.0000
  H   H2463     1.0  0.98553  0.27441  0.69603  1.0000
  H   H2464     1.0  0.52316  0.28996  0.75669  1.0000
  H   H2465     1.0  0.49778  0.39871  0.91093  1.0000
  H   H2466     1.0  0.67488  0.44402  0.83314  1.0000
  H   H2467     1.0  0.65260  0.42100  0.84440  1.0000
  H   H2468     1.0  0.64045  0.41260  0.87832  1.0000
  H   H2469     1.0  0.65197  0.42525  0.90137  1.0000
  H   H2470     1.0  0.68729  0.45643  0.85573  1.0000
  H   H2471     1.0  0.70312  0.44964  0.92483  1.0000
  H   H2472     1.0  0.73640  0.43479  0.92755  1.0000
  H   H2473     1.0  0.75586  0.41509  0.90453  1.0000
  H   H2474     1.0  0.74174  0.41001  0.87863  1.0000
  H   H2475     1.0  0.70874  0.42520  0.87515  1.0000
  C   C3111     1.0  0.54753  0.45831  0.90238  1.0000
  H   H2476     1.0  0.95555  0.38486  0.70429  1.0000
  C   C3112     1.0  0.97339  0.36564  0.68620  1.0000
  H   H2477     1.0  0.67313  0.41862  0.92587  1.0000
  C   C3113     1.0  0.61390  0.39067  0.66471  1.0000
  C   C3114     1.0  0.75652  0.37672  0.93216  1.0000
  H   H2478     1.0  0.68697  0.32884  0.72408  1.0000
  C   C3115     1.0  0.75301  0.47227  0.92817  1.0000
  S   S441      1.0  0.91575  0.46829  0.66466  1.0000
  C   C3116     1.0  0.95967  0.36462  0.64603  1.0000
  H   H2479     1.0  0.64690  0.32088  0.92154  1.0000
  P   P104      1.0  0.95452  0.35340  0.68522  1.0000
  C   C3117     1.0  0.92820  0.35806  0.66134  1.0000
  H   H2480     1.0  0.84855  0.47189  0.78347  1.0000
  H   H2481     1.0  0.79893  0.47382  0.87612  1.0000
  H   H2482     1.0  0.58426  0.30748  0.68579  1.0000
  C   C3118     1.0  0.59769  0.38335  0.67478  1.0000
  H   H2483     1.0  0.60496  0.33045  0.68508  1.0000
  C   C3119     1.0  0.64051  0.44497  0.95470  1.0000
  C   C3120     1.0  0.57448  0.23792  0.67011  1.0000
  C   C3121     1.0  0.74797  0.35895  0.83991  1.0000
  C   C3122     1.0  0.74093  0.35833  0.85914  1.0000
  C   C3123     1.0  0.72404  0.35131  0.86733  1.0000
  H   H2484     1.0  0.91813  0.35367  0.67377  1.0000
  H   H2485     1.0  0.54224  0.45699  0.91739  1.0000
  C   C3124     1.0  0.76118  0.40595  0.79385  1.0000
  C   C3125     1.0  0.77822  0.40441  0.78080  1.0000
  C   C3126     1.0  0.78585  0.38729  0.77433  1.0000
  C   C3127     1.0  0.77655  0.37164  0.78105  1.0000
  H   H2486     1.0  0.76103  0.36453  0.83381  1.0000
  H   H2487     1.0  0.74840  0.36364  0.86762  1.0000
  H   H2488     1.0  0.71853  0.35096  0.88218  1.0000
  H   H2489     1.0  0.67547  0.30066  0.75510  1.0000
  H   H2490     1.0  0.75527  0.41914  0.79905  1.0000
  H   H2491     1.0  0.78553  0.41647  0.77578  1.0000
  H   H2492     1.0  0.79907  0.38615  0.76420  1.0000
  H   H2493     1.0  0.97432  0.36527  0.64638  1.0000
  C   C3128     1.0  0.59440  0.37543  0.75437  1.0000
  C   C3129     1.0  0.60191  0.36556  0.77029  1.0000
  C   C3130     1.0  0.61452  0.34835  0.76946  1.0000
  C   C3131     1.0  0.61969  0.34104  0.75272  1.0000
  C   C3132     1.0  0.61265  0.35109  0.73650  1.0000
  C   C3133     1.0  0.59970  0.36824  0.73753  1.0000
  P   P105      1.0  0.61937  0.34143  0.71493  1.0000
  H   H2494     1.0  0.68694  0.30779  0.65982  1.0000
  C   C3134     1.0  0.52540  0.29097  0.92067  1.0000
  C   C3135     1.0  0.74976  0.37322  0.95163  1.0000
  H   H2495     1.0  0.94105  0.33349  0.72337  1.0000
  C   C3136     1.0  0.58560  0.30055  0.73242  1.0000
  C   C3137     1.0  0.59714  0.31366  0.73225  1.0000
  H   H2496     1.0  0.92313  0.38590  0.68700  1.0000
  C   C3138     1.0  0.49727  0.37472  0.89855  1.0000
  H   H2497     1.0  0.65306  0.47918  0.91797  1.0000
  H   H2498     1.0  0.58442  0.38865  0.75513  1.0000
  H   H2499     1.0  0.59787  0.37117  0.78331  1.0000
  H   H2500     1.0  0.62033  0.34065  0.78182  1.0000
  H   H2501     1.0  0.62922  0.32754  0.75241  1.0000
  H   H2502     1.0  0.59363  0.37614  0.72546  1.0000
  H   H2503     1.0  0.89532  0.39371  0.71161  1.0000
  H   H2504     1.0  0.58100  0.29140  0.74538  1.0000
  H   H2505     1.0  0.60121  0.31444  0.74529  1.0000
  H   H2506     1.0  0.61134  0.28573  0.78472  1.0000
  H   H2507     1.0  0.52946  0.38538  0.92041  1.0000
  H   H2508     1.0  0.51593  0.26406  0.82497  1.0000
  C   C3139     1.0  0.98383  0.45118  0.69408  1.0000
  H   H2509     1.0  0.81774  0.46017  0.92948  1.0000
  C   C3140     1.0  0.51854  0.30443  0.95459  1.0000
  C   C3141     1.0  0.71696  0.40211  0.96317  1.0000
  H   H2510     1.0  0.68678  0.40227  0.96484  1.0000
  H   H2511     1.0  0.55622  0.31791  0.86086  1.0000
  C   C3142     1.0  0.81131  0.47051  0.91875  1.0000
  C   C3143     1.0  0.64804  0.33567  0.91683  1.0000
  H   H2512     1.0  0.56540  0.46288  0.84853  1.0000
  C   C3144     1.0  0.60137  0.31921  0.88873  1.0000
  C   C3145     1.0  0.50675  0.35673  0.89508  1.0000
  H   H2513     1.0  0.58664  0.36300  0.69775  1.0000
  H   H2514     1.0  0.57987  0.25510  0.76366  1.0000
  C   C3146     1.0  0.54173  0.23445  0.67023  1.0000
  H   H2515     1.0  0.69741  0.39183  0.90224  1.0000
  H   H2516     1.0  0.71170  0.39978  0.92647  1.0000
  H   H2517     1.0  0.87127  0.38317  0.65846  1.0000
  C   C3147     1.0  0.71584  0.29233  0.65807  1.0000
  P   P106      1.0  0.53564  0.32467  0.89877  1.0000
  H   H2518     1.0  0.68221  0.35700  0.77093  1.0000
  H   H2519     1.0  0.49994  0.34886  0.88839  1.0000
  H   H2520     1.0  0.51956  0.25355  0.68474  1.0000
  H   H2521     1.0  0.60098  0.29463  0.91052  1.0000
  S   S442      1.0  0.78117  0.43444  0.96606  1.0000
  C   C3148     1.0  0.95900  0.31621  0.67889  1.0000
  H   H2522     1.0  0.78571  0.30450  0.76684  1.0000
  S   S443      1.0  0.62341  0.26806  0.75202  1.0000
  C   C3149     1.0  0.51842  0.30379  0.85107  1.0000
  C   C3150     1.0  0.94684  0.35968  0.66261  1.0000
  C   C3151     1.0  0.87708  0.39278  0.64639  1.0000
  C   C3152     1.0  0.54569  0.23144  0.73019  1.0000
  S   S444      1.0  0.62839  0.27412  0.69690  1.0000
  C   C3153     1.0  0.76440  0.33134  0.80069  1.0000
  C   C3154     1.0  0.77304  0.32026  0.81564  1.0000
  H   H2523     1.0  0.71311  0.34069  0.82877  1.0000
  C   C3155     1.0  0.71663  0.37202  0.78621  1.0000
  Fe  Fe225     1.0  0.65460  0.25556  0.68401  1.0000
  C   C3156     1.0  0.63180  0.38309  0.66986  1.0000
  H   H2524     1.0  0.52842  0.28532  0.90775  1.0000
  S   S445      1.0  0.66053  0.23896  0.71209  1.0000
  C   C3157     1.0  0.72772  0.35438  0.79203  1.0000
  C   C3158     1.0  0.76911  0.32555  0.78306  1.0000
  H   H2525     1.0  0.69172  0.38658  0.77429  1.0000
  H   H2526     1.0  0.76269  0.33397  0.77131  1.0000
  H   H2527     1.0  0.79268  0.29507  0.82460  1.0000
  C   C3159     1.0  0.72201  0.33773  0.79035  1.0000
  S   S446      1.0  0.66287  0.31937  0.78704  1.0000
  C   C3160     1.0  0.70047  0.37295  0.77834  1.0000
  C   C3161     1.0  0.63353  0.36815  0.68505  1.0000
  C   C3162     1.0  0.65144  0.37366  0.90477  1.0000
  C   C3163     1.0  0.65290  0.28642  0.75331  1.0000
  C   C3164     1.0  0.63372  0.30028  0.78627  1.0000
  H   H2528     1.0  0.61260  0.40225  0.65294  1.0000
  H   H2529     1.0  0.92371  0.42188  0.65486  1.0000
  H   H2530     1.0  0.65186  0.41511  0.95659  1.0000
  H   H2531     1.0  0.70143  0.32584  0.78139  1.0000
  C   C3165     1.0  0.93839  0.41820  0.64795  1.0000
  H   H2532     1.0  0.54221  0.27020  0.69288  1.0000
  C   C3166     1.0  0.51047  0.31278  0.88184  1.0000
  C   C3167     1.0  0.52449  0.31606  0.93769  1.0000
  H   H2533     1.0  0.90830  0.35972  0.64294  1.0000
  C   C3168     1.0  0.62529  0.28907  0.77812  1.0000
  C   C3169     1.0  0.65290  0.46511  0.92617  1.0000
  C   C3170     1.0  0.64841  0.36643  0.92410  1.0000
  H   H2534     1.0  0.68917  0.35994  0.90617  1.0000
  H   H2535     1.0  0.51656  0.26006  0.63998  1.0000
  H   H2536     1.0  0.81548  0.45073  0.89982  1.0000
  C   C3171     1.0  0.52753  0.28441  0.80247  1.0000
  C   C3172     1.0  0.78217  0.30889  0.78047  1.0000
  H   H2537     1.0  0.50016  0.31435  0.89462  1.0000
  C   C3173     1.0  0.65182  0.30466  0.77794  1.0000
  C   C3174     1.0  0.53280  0.35962  0.90952  1.0000
  C   C3175     1.0  0.53678  0.30786  0.84890  1.0000
  H   H2538     1.0  0.78130  0.37803  0.91018  1.0000
  H   H2539     1.0  0.63211  0.47529  0.94904  1.0000
  C   C3176     1.0  0.77619  0.37507  0.92521  1.0000
  C   C3177     1.0  0.69167  0.42916  0.96813  1.0000
  C   C3178     1.0  0.52447  0.34889  0.90080  1.0000
  S   S447      1.0  0.75070  0.47683  0.89108  1.0000
  H   H2540     1.0  0.70824  0.34398  0.95914  1.0000
  H   H2541     1.0  0.57770  0.28306  0.77821  1.0000
  H   H2542     1.0  0.51063  0.27739  0.96764  1.0000
  C   C3179     1.0  0.65213  0.42908  0.94812  1.0000
  H   H2543     1.0  0.98045  0.32960  0.70964  1.0000
  H   H2544     1.0  0.61682  0.31785  0.88616  1.0000
  H   H2545     1.0  0.53347  0.29069  0.81145  1.0000
  C   C3180     1.0  0.97161  0.40544  0.64968  1.0000
  H   H2546     1.0  0.53695  0.30374  0.77761  1.0000
  C   C3181     1.0  0.70008  0.38139  0.91461  1.0000
  C   C3182     1.0  0.57372  0.23414  0.80986  1.0000
  C   C3183     1.0  0.54199  0.31460  0.86310  1.0000
  C   C3184     1.0  0.81001  0.46518  0.90205  1.0000
  C   C3185     1.0  0.98420  0.30122  0.70435  1.0000
  C   C3186     1.0  0.52956  0.29180  0.78329  1.0000
  H   H2547     1.0  0.52665  0.33008  0.93808  1.0000
  H   H2548     1.0  0.65382  0.34639  0.72740  1.0000
  H   H2549     1.0  0.94934  0.40916  0.67382  1.0000
  C   C3187     1.0  0.51910  0.27946  0.93758  1.0000
  C   C3188     1.0  0.50530  0.30617  0.86755  1.0000
  H   H2550     1.0  0.57062  0.24881  0.83307  1.0000
  S   S448      1.0  0.86960  0.47289  0.67808  1.0000
  H   H2551     1.0  0.54683  0.30635  0.83595  1.0000
  C   C3189     1.0  0.98438  0.38985  0.69718  1.0000
  H   H2552     1.0  0.49122  0.42150  0.85658  1.0000
  C   C3190     1.0  0.78925  0.36995  0.93762  1.0000
  C   C3191     1.0  0.79496  0.24121  0.63720  1.0000
  C   C3192     1.0  0.56073  0.46153  0.86361  1.0000
  H   H2553     1.0  0.51695  0.26530  0.93753  1.0000
  C   C3193     1.0  0.57732  0.25358  0.77887  1.0000
  H   H2554     1.0  0.80447  0.36898  0.93223  1.0000
  C   C3194     1.0  0.78266  0.36630  0.95700  1.0000
  H   H2555     1.0  0.64436  0.38881  0.66211  1.0000
  C   C3195     1.0  0.51146  0.26926  0.77907  1.0000
  H   H2556     1.0  0.52262  0.24406  0.74950  1.0000
  C   C3196     1.0  0.95662  0.47606  0.68914  1.0000
  C   C3197     1.0  0.51558  0.28623  0.95454  1.0000
  C   C3198     1.0  0.57372  0.26775  0.80653  1.0000
  C   C3199     1.0  0.55783  0.44242  0.89480  1.0000
  C   C3200     1.0  0.69816  0.35016  0.93300  1.0000
  C   C3201     1.0  0.68185  0.30930  0.70838  1.0000
  C   C3202     1.0  0.79866  0.25713  0.64245  1.0000
  C   C3203     1.0  0.73052  0.41306  0.96353  1.0000
  C   C3204     1.0  0.57233  0.25012  0.81795  1.0000
  H   H2557     1.0  0.70979  0.47482  0.89212  1.0000
  C   C3205     1.0  0.69948  0.23443  0.65702  1.0000
  C   C3206     1.0  0.80076  0.47821  0.88867  1.0000
  C   C3207     1.0  0.55044  0.47741  0.87124  1.0000
  H   H2558     1.0  0.98289  0.39958  0.65779  1.0000
  H   H2559     1.0  0.79174  0.28725  0.64069  1.0000
  C   C3208     1.0  0.96318  0.47508  0.63970  1.0000
  H   H2560     1.0  0.61356  0.23334  0.77332  1.0000
  C   C3209     1.0  0.50234  0.26863  0.64162  1.0000
  S   S449      1.0  0.61500  0.23526  0.72203  1.0000
  C   C3210     1.0  0.92252  0.36145  0.64384  1.0000
  H   H2561     1.0  0.98981  0.43628  0.69721  1.0000
  H   H2562     1.0  0.79276  0.36256  0.96664  1.0000
  H   H2563     1.0  0.53763  0.23531  0.71877  1.0000
  C   C3211     1.0  0.76301  0.36786  0.96398  1.0000
  H   H2564     1.0  0.74566  0.40736  0.96144  1.0000
  C   C3212     1.0  0.69749  0.41040  0.96518  1.0000
  C   C3213     1.0  0.72464  0.43179  0.96642  1.0000
  H   H2565     1.0  0.73520  0.44006  0.96677  1.0000
  C   C3214     1.0  0.70523  0.43983  0.96885  1.0000
  C   C3215     1.0  0.81932  0.49970  0.09571  1.0000
  S   S450      1.0  0.74543  0.52302  0.15032  1.0000
  C   C3216     1.0  0.97747  0.52305  0.25309  1.0000
  H   H2566     1.0  0.77797  0.49793  0.08766  1.0000
  H   H2567     1.0  0.76205  0.51927  0.05022  1.0000
  C   C3217     1.0  0.83487  0.59488  0.25686  1.0000
  C   C3218     1.0  0.84547  0.54879  0.10098  1.0000
  S   S451      1.0  0.90647  0.61872  0.26378  1.0000
  C   C3219     1.0  0.86202  0.57210  0.10638  1.0000
  H   H2568     1.0  0.60237  0.48141  0.14043  1.0000
  S   S452      1.0  0.89571  0.66394  0.26528  1.0000
  C   C3220     1.0  0.93216  0.53170  0.27519  1.0000
  Fe  Fe226     1.0  0.88131  0.64203  0.25933  1.0000
  S   S453      1.0  0.87124  0.64737  0.23116  1.0000
  Fe  Fe227     1.0  0.91956  0.64008  0.27216  1.0000
  H   H2569     1.0  0.90903  0.56592  0.21955  1.0000
  S   S454      1.0  0.86564  0.63540  0.28910  1.0000
  C   C3221     1.0  0.74825  0.49520  0.09457  1.0000
  Fe  Fe228     1.0  0.75307  0.61397  0.18095  1.0000
  S   S455      1.0  0.78505  0.60859  0.17839  1.0000
  S   S456      1.0  0.73643  0.59034  0.19481  1.0000
  Fe  Fe229     1.0  0.75127  0.65641  0.16653  1.0000
  S   S457      1.0  0.78310  0.65424  0.16334  1.0000
  S   S458      1.0  0.73543  0.68556  0.15629  1.0000
  Fe  Fe230     1.0  0.78447  0.62856  0.15060  1.0000
  S   S459      1.0  0.80581  0.62378  0.12402  1.0000
  Fe  Fe231     1.0  0.78067  0.63475  0.19129  1.0000
  S   S460      1.0  0.79098  0.63517  0.21824  1.0000
  S   S461      1.0  0.75283  0.63178  0.15222  1.0000
  S   S462      1.0  0.74849  0.63902  0.19545  1.0000
  C   C3222     1.0  0.71403  0.69559  0.16965  1.0000
  S   S463      1.0  0.74499  0.60958  0.05593  1.0000
  H   H2570     1.0  0.63244  0.67738  0.04547  1.0000
  C   C3223     1.0  0.84833  0.64529  0.22780  1.0000
  C   C3224     1.0  0.84487  0.64731  0.20938  1.0000
  C   C3225     1.0  0.82734  0.64440  0.20613  1.0000
  C   C3226     1.0  0.81299  0.63979  0.22132  1.0000
  C   C3227     1.0  0.81614  0.63857  0.23970  1.0000
  C   C3228     1.0  0.83375  0.64123  0.24296  1.0000
  H   H2571     1.0  0.85592  0.65083  0.19754  1.0000
  H   H2572     1.0  0.82497  0.64566  0.19191  1.0000
  H   H2573     1.0  0.80503  0.63517  0.25153  1.0000
  H   H2574     1.0  0.83614  0.63984  0.25718  1.0000
  H   H2575     1.0  0.83367  0.58027  0.21655  1.0000
  C   C3229     1.0  0.97203  0.60535  0.23319  1.0000
  H   H2576     1.0  0.84453  0.61026  0.18970  1.0000
  C   C3230     1.0  0.49927  0.71362  0.13741  1.0000
  C   C3231     1.0  0.80646  0.55257  0.05446  1.0000
  C   C3232     1.0  0.96533  0.67936  0.28387  1.0000
  C   C3233     1.0  0.84065  0.58910  0.15429  1.0000
  C   C3234     1.0  0.75532  0.58874  0.10073  1.0000
  H   H2577     1.0  0.82916  0.48893  0.08873  1.0000
  C   C3235     1.0  0.90543  0.72543  0.29003  1.0000
  C   C3236     1.0  0.79346  0.52733  0.11362  1.0000
  S   S464      1.0  0.95163  0.63796  0.26279  1.0000
  C   C3237     1.0  0.81328  0.63227  0.08559  1.0000
  C   C3238     1.0  0.79902  0.62950  0.10147  1.0000
  C   C3239     1.0  0.78031  0.63000  0.09888  1.0000
  C   C3240     1.0  0.77624  0.63198  0.08058  1.0000
  H   H2578     1.0  0.82774  0.63213  0.08733  1.0000
  H   H2579     1.0  0.76905  0.62852  0.11095  1.0000
  H   H2580     1.0  0.76197  0.63159  0.07873  1.0000
  H   H2581     1.0  0.77159  0.59494  0.13851  1.0000
  C   C3241     1.0  0.51095  0.70350  0.15031  1.0000
  C   C3242     1.0  0.83072  0.58191  0.09746  1.0000
  C   C3243     1.0  0.80662  0.55848  0.03516  1.0000
  H   H2582     1.0  0.74501  0.52331  0.97425  1.0000
  H   H2583     1.0  0.58327  0.69821  0.98547  1.0000
  H   H2584     1.0  0.80281  0.52969  0.97263  1.0000
  Fe  Fe232     1.0  0.89888  0.47951  0.27720  1.0000
  C   C3244     1.0  0.70050  0.69772  0.25231  1.0000
  C   C3245     1.0  0.69986  0.58065  0.97665  1.0000
  C   C3246     1.0  0.74356  0.54117  0.16320  1.0000
  C   C3247     1.0  0.74288  0.55981  0.15350  1.0000
  C   C3248     1.0  0.74074  0.57488  0.16320  1.0000
  C   C3249     1.0  0.73927  0.57140  0.18268  1.0000
  C   C3250     1.0  0.73958  0.55276  0.19254  1.0000
  C   C3251     1.0  0.74200  0.53759  0.18279  1.0000
  H   H2585     1.0  0.74377  0.56256  0.13841  1.0000
  H   H2586     1.0  0.73966  0.58930  0.15577  1.0000
  H   H2587     1.0  0.73820  0.55003  0.20767  1.0000
  H   H2588     1.0  0.74239  0.52324  0.19040  1.0000
  C   C3252     1.0  0.73275  0.54076  0.01032  1.0000
  C   C3253     1.0  0.95484  0.66875  0.27735  1.0000
  H   H2589     1.0  0.65785  0.52866  0.05310  1.0000
  C   C3254     1.0  0.67882  0.64546  0.02515  1.0000
  C   C3255     1.0  0.69979  0.67518  0.97573  1.0000
  H   H2590     1.0  0.49208  0.54518  0.05168  1.0000
  C   C3256     1.0  0.67915  0.71234  0.18955  1.0000
  C   C3257     1.0  0.83714  0.60251  0.16607  1.0000
  H   H2591     1.0  0.87709  0.55836  0.17229  1.0000
  H   H2592     1.0  0.74379  0.49076  0.23747  1.0000
  C   C3258     1.0  0.97233  0.48000  0.29884  1.0000
  C   C3259     1.0  0.89924  0.54192  0.27045  1.0000
  S   S465      1.0  0.63240  0.67895  0.00621  1.0000
  H   H2593     1.0  0.64539  0.52035  0.08723  1.0000
  C   C3260     1.0  0.80999  0.57662  0.02652  1.0000
  H   H2594     1.0  0.72524  0.54656  0.99865  1.0000
  H   H2595     1.0  0.82017  0.63760  0.05531  1.0000
  H   H2596     1.0  0.53957  0.69635  0.15654  1.0000
  C   C3261     1.0  0.66758  0.52151  0.06269  1.0000
  H   H2597     1.0  0.58364  0.63837  0.99614  1.0000
  H   H2598     1.0  0.78309  0.53764  0.12076  1.0000
  C   C3262     1.0  0.86567  0.57047  0.17107  1.0000
  H   H2599     1.0  0.73830  0.56770  0.01306  1.0000
  H   H2600     1.0  0.86653  0.54240  0.20330  1.0000
  C   C3263     1.0  0.90262  0.62577  0.19119  1.0000
  H   H2601     1.0  0.81479  0.60336  0.03069  1.0000
  S   S466      1.0  0.72356  0.60459  0.02295  1.0000
  C   C3264     1.0  0.88954  0.52244  0.21408  1.0000
  Fe  Fe233     1.0  0.62418  0.70817  0.01338  1.0000
  C   C3265     1.0  0.83960  0.58490  0.22672  1.0000
  H   H2602     1.0  0.69190  0.63689  0.01933  1.0000
  H   H2603     1.0  0.77043  0.52635  0.99065  1.0000
  H   H2604     1.0  0.49788  0.68161  0.98730  1.0000
  H   H2605     1.0  0.54635  0.70292  0.00424  1.0000
  H   H2606     1.0  0.91199  0.57595  0.17740  1.0000
  C   C3266     1.0  0.67317  0.50760  0.09433  1.0000
  C   C3267     1.0  0.74610  0.51352  0.03130  1.0000
  H   H2607     1.0  0.82631  0.61510  0.16389  1.0000
  C   C3268     1.0  0.71781  0.70345  0.05919  1.0000
  C   C3269     1.0  0.64524  0.66832  0.03979  1.0000
  C   C3270     1.0  0.75175  0.49705  0.24467  1.0000
  C   C3271     1.0  0.85903  0.58653  0.22348  1.0000
  C   C3272     1.0  0.50719  0.72436  0.12069  1.0000
  H   H2608     1.0  0.91319  0.50564  0.22683  1.0000
  C   C3273     1.0  0.66533  0.65470  0.01365  1.0000
  C   C3274     1.0  0.69086  0.70333  0.11917  1.0000
  H   H2609     1.0  0.81882  0.59315  0.09463  1.0000
  H   H2610     1.0  0.79973  0.57368  0.12525  1.0000
  C   C3275     1.0  0.90612  0.51986  0.22177  1.0000
  C   C3276     1.0  0.64862  0.66629  0.02090  1.0000
  C   C3277     1.0  0.81316  0.58302  0.05644  1.0000
  C   C3278     1.0  0.66791  0.69227  0.25710  1.0000
  H   H2611     1.0  0.95363  0.58899  0.20229  1.0000
  H   H2612     1.0  0.92251  0.57929  0.25944  1.0000
  H   H2613     1.0  0.80271  0.53888  0.06088  1.0000
  C   C3279     1.0  0.86158  0.58345  0.18355  1.0000
  H   H2614     1.0  0.74284  0.59293  0.09409  1.0000
  C   C3280     1.0  0.74029  0.55266  0.01833  1.0000
  Fe  Fe234     1.0  0.72024  0.62527  0.04210  1.0000
  C   C3281     1.0  0.66768  0.61272  0.98124  1.0000
  H   H2615     1.0  0.74857  0.49843  0.03631  1.0000
  C   C3282     1.0  0.87990  0.54074  0.20827  1.0000
  P   P107      1.0  0.87486  0.58038  0.20242  1.0000
  H   H2616     1.0  0.77132  0.57249  0.07974  1.0000
  C   C3283     1.0  0.90370  0.55390  0.21753  1.0000
  C   C3284     1.0  0.53473  0.70533  0.05783  1.0000
  C   C3285     1.0  0.75945  0.52522  0.08666  1.0000
  C   C3286     1.0  0.74053  0.53482  0.08852  1.0000
  C   C3287     1.0  0.65835  0.65846  0.05148  1.0000
  H   H2617     1.0  0.57975  0.66861  0.00777  1.0000
  H   H2618     1.0  0.71495  0.50459  0.06260  1.0000
  C   C3288     1.0  0.66057  0.51679  0.08192  1.0000
  C   C3289     1.0  0.95733  0.56342  0.28923  1.0000
  H   H2619     1.0  0.70997  0.66997  0.18934  1.0000
  H   H2620     1.0  0.93010  0.62890  0.17409  1.0000
  C   C3290     1.0  0.92296  0.60166  0.17450  1.0000
  S   S467      1.0  0.73389  0.63210  0.97372  1.0000
  H   H2621     1.0  0.77109  0.53319  0.08247  1.0000
  H   H2622     1.0  0.73767  0.55018  0.08581  1.0000
  H   H2623     1.0  0.72671  0.68644  0.03725  1.0000
  C   C3291     1.0  0.82998  0.56310  0.09667  1.0000
  C   C3292     1.0  0.68686  0.68598  0.25982  1.0000
  C   C3293     1.0  0.73640  0.71332  0.10635  1.0000
  C   C3294     1.0  0.66259  0.71034  0.24697  1.0000
  H   H2624     1.0  0.55376  0.71493  0.12691  1.0000
  H   H2625     1.0  0.87334  0.54219  0.10899  1.0000
  C   C3295     1.0  0.79239  0.50815  0.11980  1.0000
  C   C3296     1.0  0.98360  0.64552  0.27159  1.0000
  C   C3297     1.0  0.97043  0.59042  0.24841  1.0000
  C   C3298     1.0  0.68730  0.48829  0.16672  1.0000
  H   H2626     1.0  0.84672  0.60095  0.10319  1.0000
  C   C3299     1.0  0.80538  0.49434  0.11099  1.0000
  C   C3300     1.0  0.77343  0.52668  0.97558  1.0000
  C   C3301     1.0  0.73438  0.71529  0.22266  1.0000
  C   C3302     1.0  0.90239  0.56051  0.26463  1.0000
  S   S468      1.0  0.73714  0.64526  0.02144  1.0000
  C   C3303     1.0  0.70540  0.50301  0.13793  1.0000
  C   C3304     1.0  0.86626  0.59212  0.23723  1.0000
  P   P108      1.0  0.95883  0.55614  0.26703  1.0000
  H   H2627     1.0  0.74667  0.58406  0.97303  1.0000
  H   H2628     1.0  0.61859  0.69784  0.97247  1.0000
  Fe  Fe235     1.0  0.88178  0.65589  0.29546  1.0000
  H   H2629     1.0  0.76028  0.70237  0.12089  1.0000
  H   H2630     1.0  0.70046  0.66175  0.98536  1.0000
  H   H2631     1.0  0.68040  0.68509  0.14444  1.0000
  H   H2632     1.0  0.66752  0.69104  0.06336  1.0000
  H   H2633     1.0  0.92545  0.53354  0.23040  1.0000
  H   H2634     1.0  0.71546  0.51245  0.13132  1.0000
  H   H2635     1.0  0.89057  0.57178  0.26180  1.0000
  H   H2636     1.0  0.67491  0.49956  0.02209  1.0000
  C   C3305     1.0  0.96401  0.65177  0.27116  1.0000
  H   H2637     1.0  0.85979  0.60114  0.26413  1.0000
  H   H2638     1.0  0.88504  0.53890  0.27159  1.0000
  H   H2639     1.0  0.97734  0.61763  0.23457  1.0000
  C   C3306     1.0  0.76613  0.68901  0.20960  1.0000
  C   C3307     1.0  0.49029  0.67678  0.97853  1.0000
  C   C3308     1.0  0.71616  0.58552  0.98045  1.0000
  H   H2640     1.0  0.62630  0.54243  0.98015  1.0000
  C   C3309     1.0  0.96258  0.47987  0.28431  1.0000
  P   P109      1.0  0.67659  0.58821  0.99016  1.0000
  C   C3310     1.0  0.67902  0.58520  0.01458  1.0000
  H   H2641     1.0  0.70024  0.72614  0.27352  1.0000
  C   C3311     1.0  0.64853  0.62074  0.98732  1.0000
  C   C3312     1.0  0.85226  0.56216  0.30089  1.0000
  C   C3313     1.0  0.76465  0.49714  0.27228  1.0000
  C   C3314     1.0  0.66962  0.48894  0.03349  1.0000
  S   S469      1.0  0.64793  0.72136  0.01711  1.0000
  C   C3315     1.0  0.67129  0.59977  0.02516  1.0000
  C   C3316     1.0  0.67421  0.59750  0.04368  1.0000
  C   C3317     1.0  0.68517  0.58088  0.05170  1.0000
  C   C3318     1.0  0.69287  0.56630  0.04133  1.0000
  C   C3319     1.0  0.68964  0.56840  0.02295  1.0000
  C   C3320     1.0  0.66009  0.57393  0.98762  1.0000
  C   C3321     1.0  0.65733  0.55715  0.00035  1.0000
  C   C3322     1.0  0.64513  0.54588  0.99767  1.0000
  C   C3323     1.0  0.98477  0.67273  0.28487  1.0000
  C   C3324     1.0  0.94281  0.47967  0.28815  1.0000
  C   C3325     1.0  0.90353  0.70883  0.26544  1.0000
  H   H2642     1.0  0.71519  0.69255  0.25437  1.0000
  C   C3326     1.0  0.69285  0.50307  0.08749  1.0000
  C   C3327     1.0  0.67619  0.72211  0.23941  1.0000
  H   H2643     1.0  0.71492  0.59351  0.99151  1.0000
  C   C3328     1.0  0.55420  0.72539  0.01430  1.0000
  H   H2644     1.0  0.63916  0.61241  0.99760  1.0000
  C   C3329     1.0  0.76916  0.71687  0.09277  1.0000
  C   C3330     1.0  0.96592  0.60490  0.21662  1.0000
  H   H2645     1.0  0.97504  0.59127  0.26116  1.0000
  S   S470      1.0  0.60508  0.71516  0.03989  1.0000
  H   H2646     1.0  0.66342  0.61312  0.01915  1.0000
  H   H2647     1.0  0.66852  0.60893  0.05164  1.0000
  H   H2648     1.0  0.68801  0.57951  0.06578  1.0000
  H   H2649     1.0  0.70182  0.55360  0.04733  1.0000
  H   H2650     1.0  0.69564  0.55700  0.01511  1.0000
  H   H2651     1.0  0.66466  0.55254  0.01223  1.0000
  H   H2652     1.0  0.64324  0.53286  0.00742  1.0000
  P   P110      1.0  0.70554  0.72655  0.08685  1.0000
  H   H2653     1.0  0.78122  0.50402  0.13126  1.0000
  C   C3331     1.0  0.69057  0.72205  0.10963  1.0000
  C   C3332     1.0  0.72911  0.65904  0.08464  1.0000
  C   C3333     1.0  0.74022  0.66618  0.09383  1.0000
  C   C3334     1.0  0.73602  0.66460  0.11336  1.0000
  C   C3335     1.0  0.72086  0.65572  0.12372  1.0000
  C   C3336     1.0  0.70989  0.64803  0.11463  1.0000
  C   C3337     1.0  0.71386  0.65032  0.09492  1.0000
  P   P111      1.0  0.69063  0.63574  0.12779  1.0000
  C   C3338     1.0  0.66939  0.64625  0.11767  1.0000
  C   C3339     1.0  0.69670  0.61076  0.12584  1.0000
  C   C3340     1.0  0.69624  0.59647  0.14192  1.0000
  C   C3341     1.0  0.70118  0.57733  0.14015  1.0000
  C   C3342     1.0  0.70627  0.57217  0.12237  1.0000
  C   C3343     1.0  0.70590  0.58618  0.10632  1.0000
  C   C3344     1.0  0.70113  0.60534  0.10803  1.0000
  C   C3345     1.0  0.66596  0.66575  0.11046  1.0000
  C   C3346     1.0  0.64915  0.67411  0.10339  1.0000
  C   C3347     1.0  0.63573  0.66305  0.10324  1.0000
  C   C3348     1.0  0.63908  0.64360  0.11027  1.0000
  C   C3349     1.0  0.65580  0.63522  0.11757  1.0000
  C   C3350     1.0  0.68633  0.63883  0.15214  1.0000
  C   C3351     1.0  0.66960  0.65039  0.15969  1.0000
  C   C3352     1.0  0.97879  0.53717  0.26275  1.0000
  H   H2654     1.0  0.93600  0.59701  0.16515  1.0000
  C   C3353     1.0  0.82040  0.51890  0.08937  1.0000
  C   C3354     1.0  0.70020  0.63033  0.16351  1.0000
  H   H2655     1.0  0.73249  0.65999  0.06950  1.0000
  H   H2656     1.0  0.75221  0.67274  0.08585  1.0000
  H   H2657     1.0  0.74462  0.67015  0.12054  1.0000
  H   H2658     1.0  0.71778  0.65528  0.13874  1.0000
  H   H2659     1.0  0.70506  0.64564  0.08737  1.0000
  H   H2660     1.0  0.69206  0.59984  0.15592  1.0000
  H   H2661     1.0  0.70138  0.56644  0.15262  1.0000
  H   H2662     1.0  0.71055  0.55732  0.12111  1.0000
  H   H2663     1.0  0.70962  0.58226  0.09247  1.0000
  H   H2664     1.0  0.70079  0.61581  0.09537  1.0000
  H   H2665     1.0  0.67621  0.67453  0.11029  1.0000
  H   H2666     1.0  0.64656  0.68919  0.09788  1.0000
  H   H2667     1.0  0.62287  0.66959  0.09747  1.0000
  H   H2668     1.0  0.62873  0.63501  0.11000  1.0000
  H   H2669     1.0  0.65807  0.62017  0.12312  1.0000
  H   H2670     1.0  0.65868  0.65727  0.15133  1.0000
  H   H2671     1.0  0.49095  0.71492  0.04429  1.0000
  H   H2672     1.0  0.65433  0.66298  0.18373  1.0000
  C   C3355     1.0  0.88734  0.55661  0.20925  1.0000
  H   H2673     1.0  0.71327  0.62143  0.15803  1.0000
  H   H2674     1.0  0.67913  0.68477  0.20695  1.0000
  C   C3356     1.0  0.81757  0.54782  0.26506  1.0000
  C   C3357     1.0  0.83560  0.53917  0.25697  1.0000
  C   C3358     1.0  0.83751  0.53064  0.24132  1.0000
  C   C3359     1.0  0.82150  0.53110  0.23342  1.0000
  C   C3360     1.0  0.80340  0.54033  0.24108  1.0000
  C   C3361     1.0  0.80152  0.54844  0.25717  1.0000
  P   P112      1.0  0.78240  0.54041  0.23157  1.0000
  C   C3362     1.0  0.77149  0.52025  0.24395  1.0000
  C   C3363     1.0  0.76582  0.56210  0.23496  1.0000
  C   C3364     1.0  0.77258  0.57934  0.23151  1.0000
  C   C3365     1.0  0.75984  0.59615  0.23421  1.0000
  C   C3366     1.0  0.74029  0.59594  0.24024  1.0000
  C   C3367     1.0  0.73344  0.57887  0.24368  1.0000
  C   C3368     1.0  0.74614  0.56199  0.24106  1.0000
  C   C3369     1.0  0.77351  0.51248  0.26266  1.0000
  C   C3370     1.0  0.81308  0.58895  0.03719  1.0000
  H   H2675     1.0  0.70462  0.50926  0.16530  1.0000
  S   S471      1.0  0.50546  0.71386  0.00400  1.0000
  C   C3371     1.0  0.76044  0.51247  0.23507  1.0000
  C   C3372     1.0  0.78868  0.53913  0.20675  1.0000
  C   C3373     1.0  0.78486  0.55522  0.19303  1.0000
  C   C3374     1.0  0.78856  0.55370  0.17398  1.0000
  C   C3375     1.0  0.79606  0.53611  0.16848  1.0000
  C   C3376     1.0  0.80021  0.52008  0.18201  1.0000
  C   C3377     1.0  0.79657  0.52159  0.20105  1.0000
  H   H2676     1.0  0.81612  0.55395  0.27755  1.0000
  H   H2677     1.0  0.84801  0.53884  0.26307  1.0000
  H   H2678     1.0  0.85135  0.52327  0.23554  1.0000
  H   H2679     1.0  0.82335  0.52401  0.22154  1.0000
  H   H2680     1.0  0.78763  0.55507  0.26375  1.0000
  H   H2681     1.0  0.78764  0.57986  0.22644  1.0000
  H   H2682     1.0  0.76507  0.60943  0.23126  1.0000
  H   H2683     1.0  0.73042  0.60909  0.24176  1.0000
  H   H2684     1.0  0.71822  0.57881  0.24781  1.0000
  H   H2685     1.0  0.74046  0.54902  0.24343  1.0000
  H   H2686     1.0  0.78193  0.51816  0.26986  1.0000
  C   C3378     1.0  0.91442  0.71580  0.27505  1.0000
  C   C3379     1.0  0.76331  0.50541  0.08955  1.0000
  H   H2687     1.0  0.91120  0.51333  0.28151  1.0000
  H   H2688     1.0  0.75863  0.51818  0.22066  1.0000
  H   H2689     1.0  0.77832  0.56885  0.19693  1.0000
  H   H2690     1.0  0.78492  0.56608  0.16359  1.0000
  H   H2691     1.0  0.79832  0.53484  0.15379  1.0000
  H   H2692     1.0  0.80587  0.50638  0.17781  1.0000
  H   H2693     1.0  0.79948  0.50898  0.21140  1.0000
  H   H2694     1.0  0.81240  0.58886  0.24532  1.0000
  S   S472      1.0  0.87911  0.50408  0.26380  1.0000
  C   C3380     1.0  0.70424  0.68479  0.18517  1.0000
  H   H2695     1.0  0.72643  0.70793  0.11836  1.0000
  H   H2696     1.0  0.65563  0.65989  0.06611  1.0000
  S   S473      1.0  0.78613  0.63896  0.04138  1.0000
  C   C3381     1.0  0.64996  0.48886  0.03895  1.0000
  C   C3382     1.0  0.75369  0.52536  0.03925  1.0000
  C   C3383     1.0  0.75535  0.59533  0.11710  1.0000
  H   H2697     1.0  0.89985  0.63972  0.19507  1.0000
  C   C3384     1.0  0.85422  0.59629  0.25384  1.0000
  H   H2698     1.0  0.87520  0.70528  0.26381  1.0000
  C   C3385     1.0  0.80747  0.53289  0.09827  1.0000
  C   C3386     1.0  0.94806  0.58173  0.29208  1.0000
  C   C3387     1.0  0.80902  0.63524  0.06741  1.0000
  C   C3388     1.0  0.69529  0.71583  0.24191  1.0000
  S   S474      1.0  0.75867  0.55958  0.04446  1.0000
  H   H2699     1.0  0.70009  0.69179  0.11294  1.0000
  H   H2700     1.0  0.52436  0.70362  0.05001  1.0000
  C   C3389     1.0  0.72921  0.50468  0.09650  1.0000
  C   C3390     1.0  0.79058  0.63484  0.06475  1.0000
  C   C3391     1.0  0.68684  0.69319  0.19512  1.0000
  C   C3392     1.0  0.58290  0.66838  0.99279  1.0000
  H   H2701     1.0  0.68337  0.48621  0.18191  1.0000
  H   H2702     1.0  0.81491  0.59310  0.06444  1.0000
  H   H2703     1.0  0.95073  0.56250  0.22903  1.0000
  H   H2704     1.0  0.95840  0.69264  0.28831  1.0000
  H   H2705     1.0  0.57209  0.71114  0.08581  1.0000
  H   H2706     1.0  0.83234  0.59124  0.14317  1.0000
  S   S475      1.0  0.69168  0.63535  0.05887  1.0000
  C   C3393     1.0  0.75038  0.54499  0.03314  1.0000
  C   C3394     1.0  0.81016  0.56465  0.06522  1.0000
  H   H2707     1.0  0.64804  0.71502  0.24430  1.0000
  Fe  Fe236     1.0  0.76249  0.62769  0.03379  1.0000
  C   C3395     1.0  0.86377  0.57496  0.30201  1.0000
  C   C3396     1.0  0.86144  0.55330  0.10575  1.0000
  H   H2708     1.0  0.94147  0.59162  0.28116  1.0000
  H   H2709     1.0  0.58014  0.68689  0.06542  1.0000
  H   H2710     1.0  0.92985  0.71360  0.27080  1.0000
  H   H2711     1.0  0.82547  0.59854  0.26956  1.0000
  C   C3397     1.0  0.68718  0.51703  0.05582  1.0000
  C   C3398     1.0  0.70660  0.71484  0.16441  1.0000
  C   C3399     1.0  0.66703  0.65367  0.17813  1.0000
  C   C3400     1.0  0.67523  0.64717  0.04414  1.0000
  C   C3401     1.0  0.73515  0.52128  0.01719  1.0000
  C   C3402     1.0  0.82752  0.58941  0.24321  1.0000
  C   C3403     1.0  0.73281  0.70363  0.21043  1.0000
  C   C3404     1.0  0.53022  0.71936  0.06907  1.0000
  Fe  Fe237     1.0  0.75306  0.49256  0.16418  1.0000
  C   C3405     1.0  0.58492  0.68518  0.98006  1.0000
  H   H2712     1.0  0.93975  0.67373  0.27697  1.0000
  Fe  Fe238     1.0  0.75019  0.59076  0.03448  1.0000
  C   C3406     1.0  0.71492  0.69192  0.04751  1.0000
  Fe  Fe239     1.0  0.74221  0.62343  0.00266  1.0000
  H   H2713     1.0  0.69464  0.67832  0.04016  1.0000
  C   C3407     1.0  0.68164  0.69428  0.06238  1.0000
  H   H2714     1.0  0.74293  0.60478  0.12294  1.0000
  C   C3408     1.0  0.96218  0.57511  0.24728  1.0000
  H   H2715     1.0  0.71084  0.53226  0.09464  1.0000
  H   H2716     1.0  0.84535  0.53414  0.10075  1.0000
  C   C3409     1.0  0.74866  0.69071  0.20377  1.0000
  C   C3410     1.0  0.90934  0.58977  0.18146  1.0000
  H   H2717     1.0  0.75361  0.72197  0.23821  1.0000
  H   H2718     1.0  0.87582  0.61906  0.20683  1.0000
  H   H2719     1.0  0.91055  0.70131  0.25398  1.0000
  H   H2720     1.0  0.65903  0.71137  0.15894  1.0000
  H   H2721     1.0  0.68801  0.72264  0.97557  1.0000
  C   C3411     1.0  0.68094  0.64519  0.18927  1.0000
  C   C3412     1.0  0.91963  0.61963  0.17946  1.0000
  H   H2722     1.0  0.88114  0.59358  0.23503  1.0000
  S   S476      1.0  0.72450  0.50670  0.00811  1.0000
  C   C3413     1.0  0.78790  0.57193  0.10117  1.0000
  H   H2723     1.0  0.69105  0.67188  0.26750  1.0000
  H   H2724     1.0  0.75151  0.47996  0.09681  1.0000
  C   C3414     1.0  0.84751  0.59971  0.18066  1.0000
  C   C3415     1.0  0.88898  0.61396  0.19801  1.0000
  C   C3416     1.0  0.85495  0.57312  0.15675  1.0000
  S   S477      1.0  0.76940  0.60780  0.01275  1.0000
  H   H2725     1.0  0.85772  0.56279  0.14752  1.0000
  H   H2726     1.0  0.67901  0.64787  0.20348  1.0000
  H   H2727     1.0  0.80317  0.54929  0.02710  1.0000
  H   H2728     1.0  0.96432  0.52300  0.24841  1.0000
  C   C3417     1.0  0.89237  0.59576  0.19351  1.0000
  C   C3418     1.0  0.69945  0.49189  0.12763  1.0000
  S   S478      1.0  0.65665  0.72208  0.20139  1.0000
  C   C3419     1.0  0.91306  0.53558  0.22371  1.0000
  H   H2729     1.0  0.88386  0.51020  0.21311  1.0000
  C   C3420     1.0  0.72543  0.52462  0.09333  1.0000
  H   H2730     1.0  0.62713  0.64623  0.98613  1.0000
  H   H2731     1.0  0.66814  0.65330  0.99903  1.0000
  Fe  Fe240     1.0  0.89207  0.61374  0.29389  1.0000
  C   C3421     1.0  0.63561  0.55126  0.98229  1.0000
  C   C3422     1.0  0.54378  0.72196  0.07886  1.0000
  C   C3423     1.0  0.87464  0.72042  0.28595  1.0000
  Fe  Fe241     1.0  0.86455  0.48265  0.25743  1.0000
  C   C3424     1.0  0.65047  0.57921  0.97218  1.0000
  C   C3425     1.0  0.95674  0.57439  0.23032  1.0000
  C   C3426     1.0  0.56164  0.70983  0.07785  1.0000
  C   C3427     1.0  0.69686  0.68729  0.04916  1.0000
  H   H2732     1.0  0.55639  0.68321  0.04729  1.0000
  C   C3428     1.0  0.55278  0.69376  0.05636  1.0000
  C   C3429     1.0  0.56617  0.69591  0.06648  1.0000
  H   H2733     1.0  0.69274  0.52057  0.04091  1.0000
  H   H2734     1.0  0.98759  0.47993  0.29586  1.0000
  C   C3430     1.0  0.92050  0.56469  0.26354  1.0000
  C   C3431     1.0  0.70256  0.71050  0.07256  1.0000
  Fe  Fe242     1.0  0.85993  0.50085  0.29197  1.0000
  H   H2735     1.0  0.76633  0.49113  0.28665  1.0000
  H   H2736     1.0  0.94326  0.52054  0.28017  1.0000
  H   H2737     1.0  0.63986  0.49949  0.03181  1.0000
  C   C3432     1.0  0.88546  0.72751  0.29553  1.0000
  C   C3433     1.0  0.75382  0.48940  0.26326  1.0000
  H   H2738     1.0  0.63038  0.49405  0.12012  1.0000
  C   C3434     1.0  0.69931  0.50120  0.15738  1.0000
  H   H2739     1.0  0.97036  0.47964  0.27015  1.0000
  C   C3435     1.0  0.75203  0.71356  0.22843  1.0000
  C   C3436     1.0  0.69977  0.50791  0.06816  1.0000
  C   C3437     1.0  0.53854  0.71466  0.12970  1.0000
  C   C3438     1.0  0.68445  0.70582  0.07405  1.0000
  H   H2740     1.0  0.80949  0.58138  0.01169  1.0000
  C   C3439     1.0  0.93567  0.55023  0.26833  1.0000
  H   H2741     1.0  0.78138  0.69888  0.22653  1.0000
  H   H2742     1.0  0.73193  0.70674  0.05763  1.0000
  H   H2743     1.0  0.70829  0.62685  0.19061  1.0000
  C   C3440     1.0  0.88364  0.71116  0.27087  1.0000
  C   C3441     1.0  0.77153  0.57714  0.09268  1.0000
  C   C3442     1.0  0.68927  0.72323  0.17440  1.0000
  C   C3443     1.0  0.69339  0.69216  0.98264  1.0000
  H   H2744     1.0  0.85932  0.72144  0.29067  1.0000
  H   H2745     1.0  0.66756  0.50420  0.10918  1.0000
  C   C3444     1.0  0.62643  0.48150  0.11755  1.0000
  P   P113      1.0  0.80916  0.55768  0.09037  1.0000
  C   C3445     1.0  0.95844  0.58933  0.21511  1.0000
  C   C3446     1.0  0.54123  0.71599  0.00971  1.0000
  C   C3447     1.0  0.91402  0.52756  0.27602  1.0000
  C   C3448     1.0  0.67961  0.69948  0.13691  1.0000
  H   H2746     1.0  0.68868  0.69191  0.99764  1.0000
  C   C3449     1.0  0.69747  0.63344  0.18199  1.0000
  C   C3450     1.0  0.76782  0.70043  0.22190  1.0000
  C   C3451     1.0  0.58518  0.65137  0.98622  1.0000
  H   H2747     1.0  0.62769  0.72226  0.11177  1.0000
  H   H2748     1.0  0.65739  0.68305  0.26255  1.0000
  C   C3452     1.0  0.77143  0.58978  0.12586  1.0000
  H   H2749     1.0  0.83128  0.52286  0.07748  1.0000
  H   H2750     1.0  0.77831  0.67867  0.20472  1.0000
  H   H2751     1.0  0.71925  0.70445  0.20612  1.0000
  C   C3453     1.0  0.78751  0.57786  0.11814  1.0000
  P   P114      1.0  0.70957  0.49168  0.10309  1.0000
  C   C3454     1.0  0.53059  0.70392  0.14640  1.0000
  H   H2752     1.0  0.74734  0.68190  0.19419  1.0000
  H   H2753     1.0  0.71409  0.72324  0.15239  1.0000
  S   S479      1.0  0.90684  0.63365  0.30263  1.0000
  C   C3455     1.0  0.84658  0.58637  0.10237  1.0000
  H   H2754     1.0  0.78417  0.71421  0.09397  1.0000
  S   S480      1.0  0.63443  0.72354  0.07203  1.0000
  H   H2755     1.0  0.50473  0.69560  0.16348  1.0000
  C   C3456     1.0  0.75574  0.71016  0.10790  1.0000
  H   H2756     1.0  0.80445  0.47949  0.11586  1.0000
  H   H2757     1.0  0.96676  0.61675  0.20507  1.0000
  C   C3457     1.0  0.66774  0.71429  0.14514  1.0000
  C   C3458     1.0  0.64157  0.63977  0.98070  1.0000
  C   C3459     1.0  0.73030  0.72323  0.08958  1.0000
  H   H2758     1.0  0.67235  0.71147  0.08390  1.0000
  H   H2759     1.0  0.87433  0.57563  0.11012  1.0000
  H   H2760     1.0  0.85913  0.59005  0.29806  1.0000
  H   H2761     1.0  0.56931  0.71943  0.01265  1.0000
  C   C3460     1.0  0.52170  0.72399  0.01156  1.0000
  C   C3461     1.0  0.52681  0.72524  0.11692  1.0000
  H   H2762     1.0  0.64909  0.70748  0.97211  1.0000
  S   S481      1.0  0.84375  0.48126  0.28457  1.0000
  S   S482      1.0  0.85735  0.48473  0.22854  1.0000
  H   H2763     1.0  0.51618  0.72817  0.07010  1.0000
  H   H2764     1.0  0.83881  0.56744  0.29590  1.0000
  H   H2765     1.0  0.96191  0.72695  0.29635  1.0000
  C   C3462     1.0  0.76321  0.72697  0.07611  1.0000
  H   H2766     1.0  0.97076  0.53603  0.30274  1.0000
  C   C3463     1.0  0.69308  0.70942  0.97021  1.0000
  H   H2767     1.0  0.96586  0.48912  0.40555  1.0000
  C   C3464     1.0  0.88126  0.61676  0.34553  1.0000
  C   C3465     1.0  0.86734  0.70018  0.33888  1.0000
  H   H2768     1.0  0.91529  0.54817  0.38518  1.0000
  C   C3466     1.0  0.91332  0.64358  0.56425  1.0000
  C   C3467     1.0  0.89227  0.67263  0.33685  1.0000
  S   S483      1.0  0.89595  0.58376  0.31012  1.0000
  C   C3468     1.0  0.98034  0.49359  0.56417  1.0000
  H   H2769     1.0  0.95150  0.68164  0.35893  1.0000
  H   H2770     1.0  0.94844  0.71602  0.35874  1.0000
  H   H2771     1.0  0.92472  0.61895  0.58298  1.0000
  C   C3469     1.0  0.88636  0.66237  0.63473  1.0000
  C   C3470     1.0  0.98477  0.52563  0.56316  1.0000
  H   H2772     1.0  0.83719  0.71316  0.52883  1.0000
  C   C3471     1.0  0.86641  0.49248  0.36023  1.0000
  C   C3472     1.0  0.87420  0.70417  0.35388  1.0000
  C   C3473     1.0  0.85899  0.71975  0.56278  1.0000
  H   H2773     1.0  0.90027  0.54334  0.31912  1.0000
  H   H2774     1.0  0.88996  0.64284  0.38261  1.0000
  C   C3474     1.0  0.89875  0.67632  0.35213  1.0000
  C   C3475     1.0  0.89667  0.67066  0.61778  1.0000
  H   H2775     1.0  0.90944  0.66243  0.61094  1.0000
  H   H2776     1.0  0.86649  0.68963  0.52378  1.0000
  C   C3476     1.0  0.91238  0.62983  0.58059  1.0000
  C   C3477     1.0  0.84803  0.71143  0.53742  1.0000
  H   H2777     1.0  0.96391  0.48210  0.37473  1.0000
  C   C3478     1.0  0.95912  0.62931  0.36222  1.0000
  C   C3479     1.0  0.89580  0.63058  0.59428  1.0000
  H   H2778     1.0  0.95421  0.57937  0.33691  1.0000
  C   C3480     1.0  0.95494  0.57486  0.32372  1.0000
  H   H2779     1.0  0.85491  0.70928  0.33401  1.0000
  C   C3481     1.0  0.94402  0.71126  0.34764  1.0000
  H   H2780     1.0  0.91753  0.48056  0.30949  1.0000
  C   C3482     1.0  0.98108  0.68671  0.60792  1.0000
  C   C3483     1.0  0.89084  0.68975  0.61001  1.0000
  C   C3484     1.0  0.88682  0.54862  0.31412  1.0000
  C   C3485     1.0  0.96351  0.55637  0.32129  1.0000
  S   S484      1.0  0.86621  0.72436  0.60967  1.0000
  H   H2781     1.0  0.89918  0.69625  0.59736  1.0000
  C   C3486     1.0  0.92745  0.68334  0.56220  1.0000
  H   H2782     1.0  0.85725  0.50154  0.35082  1.0000
  S   S485      1.0  0.89805  0.69519  0.38067  1.0000
  C   C3487     1.0  0.87554  0.53580  0.31259  1.0000
  C   C3488     1.0  0.86492  0.69824  0.53442  1.0000
  C   C3489     1.0  0.94398  0.68934  0.56392  1.0000
  C   C3490     1.0  0.94254  0.48008  0.32094  1.0000
  S   S486      1.0  0.90691  0.72084  0.41695  1.0000
  C   C3491     1.0  0.94583  0.69189  0.34772  1.0000
  H   H2783     1.0  0.96030  0.62655  0.37696  1.0000
  H   H2784     1.0  0.90956  0.60077  0.34624  1.0000
  C   C3492     1.0  0.96448  0.55055  0.30419  1.0000
  C   C3493     1.0  0.97587  0.48551  0.62704  1.0000
  C   C3494     1.0  0.87422  0.70037  0.61873  1.0000
  H   H2785     1.0  0.88974  0.50783  0.34947  1.0000
  C   C3495     1.0  0.94254  0.62866  0.33723  1.0000
  C   C3496     1.0  0.93990  0.68577  0.33357  1.0000
  H   H2786     1.0  0.95009  0.53480  0.38066  1.0000
  H   H2787     1.0  0.89924  0.66034  0.33055  1.0000
  C   C3497     1.0  0.90847  0.66264  0.48340  1.0000
  C   C3498     1.0  0.93162  0.48165  0.57569  1.0000
  S   S487      1.0  0.86645  0.67889  0.31256  1.0000
  C   C3499     1.0  0.86363  0.69183  0.63528  1.0000
  C   C3500     1.0  0.86726  0.63125  0.35215  1.0000
  H   H2788     1.0  0.85980  0.65191  0.37050  1.0000
  C   C3501     1.0  0.90760  0.65270  0.51701  1.0000
  C   C3502     1.0  0.90466  0.68159  0.48566  1.0000
  H   H2789     1.0  0.87083  0.55950  0.63507  1.0000
  H   H2790     1.0  0.94802  0.68724  0.57762  1.0000
  H   H2791     1.0  0.97899  0.70139  0.57977  1.0000
  C   C3503     1.0  0.98163  0.72866  0.44795  1.0000
  H   H2792     1.0  0.90430  0.58264  0.38302  1.0000
  C   C3504     1.0  0.95729  0.63574  0.32396  1.0000
  H   H2793     1.0  0.96943  0.54654  0.33266  1.0000
  C   C3505     1.0  0.90242  0.68611  0.50353  1.0000
  C   C3506     1.0  0.94708  0.58747  0.30918  1.0000
  C   C3507     1.0  0.94332  0.62536  0.35647  1.0000
  H   H2794     1.0  0.89534  0.62047  0.60735  1.0000
  H   H2795     1.0  0.97130  0.69794  0.61424  1.0000
  H   H2796     1.0  0.92252  0.49509  0.57174  1.0000
  C   C3508     1.0  0.87048  0.64035  0.36570  1.0000
  C   C3509     1.0  0.88984  0.69207  0.36074  1.0000
  H   H2797     1.0  0.87868  0.59165  0.63152  1.0000
  C   C3510     1.0  0.95868  0.56198  0.37631  1.0000
  H   H2798     1.0  0.98232  0.54058  0.55716  1.0000
  C   C3511     1.0  0.90385  0.67174  0.51939  1.0000
  H   H2799     1.0  0.88656  0.70504  0.56850  1.0000
  H   H2800     1.0  0.96927  0.51784  0.54491  1.0000
  C   C3512     1.0  0.90994  0.64820  0.49906  1.0000
  C   C3513     1.0  0.97739  0.51283  0.55627  1.0000
  H   H2801     1.0  0.96695  0.70437  0.54966  1.0000
  C   C3514     1.0  0.87612  0.70694  0.55949  1.0000
  C   C3515     1.0  0.98702  0.70084  0.37986  1.0000
  H   H2802     1.0  0.86731  0.64562  0.60230  1.0000
  H   H2803     1.0  0.91910  0.67652  0.57473  1.0000
  H   H2804     1.0  0.92557  0.65193  0.38231  1.0000
  H   H2805     1.0  0.86704  0.71625  0.36049  1.0000
  C   C3516     1.0  0.91899  0.64919  0.41225  1.0000
  C   C3517     1.0  0.91483  0.63714  0.42936  1.0000
  C   C3518     1.0  0.91443  0.61809  0.42962  1.0000
  C   C3519     1.0  0.91804  0.61110  0.41274  1.0000
  C   C3520     1.0  0.92237  0.62310  0.39550  1.0000
  C   C3521     1.0  0.92280  0.64221  0.39540  1.0000
  P   P115      1.0  0.92503  0.61479  0.37358  1.0000
  P   P116      1.0  0.90055  0.67811  0.54242  1.0000
  C   C3522     1.0  0.93294  0.58935  0.37685  1.0000
  S   S488      1.0  0.84386  0.52673  0.30404  1.0000
  C   C3523     1.0  0.89875  0.61172  0.35199  1.0000
  C   C3524     1.0  0.94527  0.54995  0.37993  1.0000
  C   C3525     1.0  0.97377  0.63658  0.34892  1.0000
  C   C3526     1.0  0.95258  0.58159  0.37484  1.0000
  H   H2806     1.0  0.87870  0.60974  0.33502  1.0000
  C   C3527     1.0  0.95465  0.69897  0.54820  1.0000
  H   H2807     1.0  0.97451  0.48364  0.55898  1.0000
  H   H2808     1.0  0.90851  0.64132  0.52892  1.0000
  H   H2809     1.0  0.91881  0.66412  0.41190  1.0000
  H   H2810     1.0  0.91163  0.64267  0.44237  1.0000
  H   H2811     1.0  0.91097  0.60882  0.44289  1.0000
  H   H2812     1.0  0.91717  0.59645  0.41318  1.0000
  C   C3528     1.0  0.88781  0.63518  0.37244  1.0000
  C   C3529     1.0  0.87997  0.64479  0.59144  1.0000
  H   H2813     1.0  0.91066  0.48760  0.37038  1.0000
  C   C3530     1.0  0.98539  0.68871  0.58831  1.0000
  H   H2814     1.0  0.98400  0.64583  0.31953  1.0000
  H   H2815     1.0  0.96331  0.59056  0.37175  1.0000
  C   C3531     1.0  0.94899  0.70228  0.53071  1.0000
  H   H2816     1.0  0.91017  0.65921  0.46952  1.0000
  C   C3532     1.0  0.92571  0.55749  0.38244  1.0000
  H   H2817     1.0  0.90328  0.69287  0.47358  1.0000
  H   H2818     1.0  0.86850  0.66966  0.57362  1.0000
  H   H2819     1.0  0.89925  0.70090  0.50499  1.0000
  H   H2820     1.0  0.98340  0.70068  0.39488  1.0000
  C   C3533     1.0  0.88111  0.56820  0.30858  1.0000
  C   C3534     1.0  0.91449  0.71953  0.63027  1.0000
  C   C3535     1.0  0.87626  0.68429  0.33041  1.0000
  C   C3536     1.0  0.98966  0.67058  0.61921  1.0000
  H   H2821     1.0  0.92660  0.64336  0.55422  1.0000
  C   C3537     1.0  0.93263  0.69605  0.52890  1.0000
  C   C3538     1.0  0.87930  0.69614  0.54521  1.0000
  C   C3539     1.0  0.92161  0.68658  0.54463  1.0000
  C   C3540     1.0  0.88476  0.49598  0.35944  1.0000
  H   H2822     1.0  0.92845  0.69929  0.51525  1.0000
  H   H2823     1.0  0.91277  0.63350  0.49729  1.0000
  C   C3541     1.0  0.90224  0.62099  0.36546  1.0000
  C   C3542     1.0  0.88080  0.65850  0.57508  1.0000
  C   C3543     1.0  0.91954  0.57709  0.38107  1.0000
  C   C3544     1.0  0.89762  0.65820  0.56144  1.0000
  H   H2824     1.0  0.94104  0.67082  0.33377  1.0000
  H   H2825     1.0  0.95687  0.71025  0.51859  1.0000
  C   C3545     1.0  0.97281  0.63989  0.32980  1.0000
  S   S489      1.0  0.91325  0.72837  0.57086  1.0000
  H   H2826     1.0  0.93059  0.62580  0.33238  1.0000
  H   H2827     1.0  0.91481  0.70805  0.62302  1.0000
  C   C3546     1.0  0.95459  0.48201  0.40442  1.0000
  C   C3547     1.0  0.89668  0.48427  0.37142  1.0000
  H   H2828     1.0  0.88025  0.52071  0.31646  1.0000
  H   H2829     1.0  0.91074  0.66681  0.35734  1.0000
  H   H2830     1.0  0.85406  0.63567  0.34652  1.0000
  C   C3548     1.0  0.93156  0.69894  0.31966  1.0000
  H   H2831     1.0  0.97052  0.49991  0.62080  1.0000
  C   C3549     1.0  0.93614  0.72446  0.33346  1.0000
  H   H2832     1.0  0.97388  0.55614  0.37428  1.0000
  H   H2833     1.0  0.95654  0.63825  0.30915  1.0000
  H   H2834     1.0  0.93999  0.60164  0.31114  1.0000
  H   H2835     1.0  0.93326  0.48766  0.60262  1.0000
  H   H2836     1.0  0.92640  0.69382  0.30928  1.0000
  H   H2837     1.0  0.98593  0.63956  0.35343  1.0000
  H   H2838     1.0  0.97521  0.72091  0.44069  1.0000
  C   C3550     1.0  0.92978  0.71840  0.31942  1.0000
  H   H2839     1.0  0.94384  0.72209  0.61905  1.0000
  C   C3551     1.0  0.85824  0.54256  0.30595  1.0000
  H   H2840     1.0  0.94187  0.48009  0.43370  1.0000
  Fe  Fe243     1.0  0.89247  0.72272  0.39236  1.0000
  H   H2841     1.0  0.79871  0.48625  0.30402  1.0000
  C   C3552     1.0  0.98746  0.68462  0.37259  1.0000
  H   H2842     1.0  0.98459  0.67167  0.38200  1.0000
  H   H2843     1.0  0.98764  0.59851  0.31373  1.0000
  C   C3553     1.0  0.93276  0.48034  0.30641  1.0000
  H   H2844     1.0  0.85639  0.72767  0.57415  1.0000
  C   C3554     1.0  0.84507  0.72218  0.55162  1.0000
  C   C3555     1.0  0.93084  0.72753  0.62791  1.0000
  H   H2845     1.0  0.95091  0.66121  0.63485  1.0000
  H   H2846     1.0  0.93473  0.48009  0.33513  1.0000
  Fe  Fe244     1.0  0.76774  0.61209  0.87254  1.0000
  S   S490      1.0  0.73686  0.62349  0.87078  1.0000
  S   S491      1.0  0.78067  0.60334  0.89906  1.0000
  Fe  Fe245     1.0  0.77981  0.61537  0.82972  1.0000
  S   S492      1.0  0.74982  0.62753  0.82447  1.0000
  S   S493      1.0  0.80632  0.60569  0.80905  1.0000
  Fe  Fe246     1.0  0.74804  0.64486  0.84682  1.0000
  S   S494      1.0  0.73675  0.67630  0.84541  1.0000
  Fe  Fe247     1.0  0.74111  0.60503  0.84889  1.0000
  S   S495      1.0  0.71708  0.58976  0.84910  1.0000
  S   S496      1.0  0.77896  0.63467  0.84993  1.0000
  S   S497      1.0  0.77109  0.59168  0.85273  1.0000
  Fe  Fe248     1.0  0.86869  0.63898  0.71518  1.0000
  S   S498      1.0  0.87123  0.61703  0.69721  1.0000
  S   S499      1.0  0.84007  0.65208  0.73057  1.0000
  Fe  Fe249     1.0  0.91185  0.63947  0.70640  1.0000
  S   S500      1.0  0.91795  0.61724  0.68821  1.0000
  S   S501      1.0  0.93445  0.65489  0.70991  1.0000
  Fe  Fe250     1.0  0.89188  0.63346  0.67638  1.0000
  Fe  Fe251     1.0  0.89689  0.60292  0.71050  1.0000
  S   S502      1.0  0.90168  0.57193  0.72299  1.0000
  S   S503      1.0  0.88708  0.65679  0.69310  1.0000
  S   S504      1.0  0.89301  0.62375  0.72995  1.0000
  C   C3556     1.0  0.49020  0.65018  0.89882  1.0000
  C   C3557     1.0  0.94484  0.57547  0.73999  1.0000
  S   S505      1.0  0.64706  0.70760  0.85979  1.0000
  H   H2847     1.0  0.90559  0.68978  0.67197  1.0000
  C   C3558     1.0  0.74445  0.57656  0.79331  1.0000
  H   H2848     1.0  0.86182  0.66675  0.65656  1.0000
  H   H2849     1.0  0.68184  0.65131  0.95141  1.0000
  C   C3559     1.0  0.82818  0.54062  0.75494  1.0000
  C   C3560     1.0  0.94283  0.58976  0.76726  1.0000
  C   C3561     1.0  0.86763  0.58693  0.64284  1.0000
  C   C3562     1.0  0.83389  0.58323  0.71660  1.0000
  S   S506      1.0  0.89421  0.63867  0.64471  1.0000
  H   H2850     1.0  0.75557  0.58229  0.65739  1.0000
  C   C3563     1.0  0.98155  0.56653  0.67372  1.0000
  C   C3564     1.0  0.75063  0.68635  0.79222  1.0000
  H   H2851     1.0  0.94081  0.54679  0.71080  1.0000
  H   H2852     1.0  0.74191  0.66985  0.93861  1.0000
  C   C3565     1.0  0.82037  0.50450  0.82588  1.0000
  H   H2853     1.0  0.84325  0.59708  0.73509  1.0000
  P   P117      1.0  0.98520  0.66901  0.64451  1.0000
  H   H2854     1.0  0.77398  0.65350  0.92693  1.0000
  H   H2855     1.0  0.92934  0.70142  0.68425  1.0000
  H   H2856     1.0  0.74185  0.62372  0.90849  1.0000
  H   H2857     1.0  0.80634  0.50372  0.72550  1.0000
  H   H2858     1.0  0.82350  0.50803  0.79593  1.0000
  C   C3566     1.0  0.83661  0.50277  0.71672  1.0000
  C   C3567     1.0  0.79659  0.52777  0.84098  1.0000
  H   H2859     1.0  0.86598  0.50609  0.70657  1.0000
  C   C3568     1.0  0.85114  0.51304  0.70774  1.0000
  H   H2860     1.0  0.84829  0.57962  0.70892  1.0000
  S   S507      1.0  0.76976  0.48817  0.83804  1.0000
  C   C3569     1.0  0.85644  0.55366  0.75410  1.0000
  H   H2861     1.0  0.73864  0.57955  0.88609  1.0000
  H   H2862     1.0  0.76872  0.56601  0.89810  1.0000
  C   C3570     1.0  0.94983  0.55846  0.68188  1.0000
  H   H2863     1.0  0.72956  0.57489  0.79656  1.0000
  C   C3571     1.0  0.81586  0.51369  0.80841  1.0000
  C   C3572     1.0  0.77825  0.56274  0.78681  1.0000
  H   H2864     1.0  0.93703  0.47965  0.75825  1.0000
  C   C3573     1.0  0.95365  0.68817  0.66629  1.0000
  H   H2865     1.0  0.93913  0.57524  0.72768  1.0000
  H   H2866     1.0  0.85365  0.53795  0.73369  1.0000
  H   H2867     1.0  0.96480  0.57774  0.78405  1.0000
  C   C3574     1.0  0.97831  0.63398  0.66643  1.0000
  H   H2868     1.0  0.66406  0.72757  0.94362  1.0000
  C   C3575     1.0  0.74923  0.59420  0.79261  1.0000
  H   H2869     1.0  0.69614  0.54636  0.81923  1.0000
  C   C3576     1.0  0.66772  0.50607  0.86919  1.0000
  C   C3577     1.0  0.84670  0.54357  0.74633  1.0000
  C   C3578     1.0  0.80570  0.55714  0.90561  1.0000
  H   H2870     1.0  0.50634  0.69416  0.89407  1.0000
  C   C3579     1.0  0.78789  0.50792  0.77903  1.0000
  H   H2871     1.0  0.82108  0.53248  0.74882  1.0000
  C   C3580     1.0  0.75200  0.52514  0.90114  1.0000
  C   C3581     1.0  0.67188  0.65545  0.90639  1.0000
  C   C3582     1.0  0.80137  0.52977  0.80710  1.0000
  C   C3583     1.0  0.73499  0.53296  0.89428  1.0000
  H   H2872     1.0  0.93591  0.60046  0.77581  1.0000
  C   C3584     1.0  0.79187  0.53687  0.82351  1.0000
  H   H2873     1.0  0.73055  0.70134  0.81216  1.0000
  C   C3585     1.0  0.64269  0.71124  0.95951  1.0000
  H   H2874     1.0  0.96375  0.69292  0.67234  1.0000
  C   C3586     1.0  0.75332  0.70191  0.75970  1.0000
  H   H2875     1.0  0.80997  0.52976  0.93841  1.0000
  H   H2876     1.0  0.66267  0.64715  0.90318  1.0000
  C   C3587     1.0  0.84781  0.56054  0.77068  1.0000
  H   H2877     1.0  0.81445  0.50432  0.85557  1.0000
  H   H2878     1.0  0.89346  0.55845  0.66340  1.0000
  H   H2879     1.0  0.72386  0.63436  0.93785  1.0000
  H   H2880     1.0  0.78087  0.54943  0.82292  1.0000
  H   H2881     1.0  0.76604  0.49746  0.74701  1.0000
  H   H2882     1.0  0.79517  0.56231  0.91702  1.0000
  H   H2883     1.0  0.68614  0.52709  0.86032  1.0000
  C   C3588     1.0  0.89536  0.55262  0.67768  1.0000
  C   C3589     1.0  0.89671  0.56465  0.68960  1.0000
  C   C3590     1.0  0.89958  0.55712  0.70800  1.0000
  C   C3591     1.0  0.90107  0.53754  0.71443  1.0000
  C   C3592     1.0  0.89939  0.52554  0.70256  1.0000
  H   H2884     1.0  0.89581  0.57971  0.68445  1.0000
  H   H2885     1.0  0.90350  0.53163  0.72861  1.0000
  C   C3593     1.0  0.95720  0.64177  0.71348  1.0000
  C   C3594     1.0  0.95991  0.62213  0.71927  1.0000
  C   C3595     1.0  0.98805  0.48417  0.68713  1.0000
  C   C3596     1.0  0.96441  0.56563  0.66846  1.0000
  C   C3597     1.0  0.75893  0.68648  0.77333  1.0000
  C   C3598     1.0  0.97268  0.65125  0.71105  1.0000
  H   H2886     1.0  0.94812  0.61477  0.72083  1.0000
  C   C3599     1.0  0.96287  0.51059  0.72787  1.0000
  H   H2887     1.0  0.75002  0.56749  0.94622  1.0000
  H   H2888     1.0  0.97066  0.66646  0.70659  1.0000
  C   C3600     1.0  0.72068  0.56860  0.83998  1.0000
  P   P118      1.0  0.79653  0.54191  0.78424  1.0000
  C   C3601     1.0  0.70565  0.56504  0.83284  1.0000
  C   C3602     1.0  0.64306  0.72710  0.92728  1.0000
  H   H2889     1.0  0.69250  0.57530  0.83277  1.0000
  C   C3603     1.0  0.71179  0.68460  0.85009  1.0000
  C   C3604     1.0  0.69860  0.67242  0.85300  1.0000
  C   C3605     1.0  0.67880  0.67960  0.85626  1.0000
  C   C3606     1.0  0.67205  0.69903  0.85635  1.0000
  C   C3607     1.0  0.68528  0.71118  0.85344  1.0000
  C   C3608     1.0  0.70505  0.70396  0.85045  1.0000
  H   H2890     1.0  0.70363  0.65747  0.85267  1.0000
  H   H2891     1.0  0.66868  0.67009  0.85848  1.0000
  C   C3609     1.0  0.65354  0.65081  0.96768  1.0000
  H   H2892     1.0  0.71516  0.71345  0.84832  1.0000
  C   C3610     1.0  0.81536  0.61921  0.78753  1.0000
  C   C3611     1.0  0.83353  0.61231  0.77792  1.0000
  C   C3612     1.0  0.84120  0.62225  0.76047  1.0000
  C   C3613     1.0  0.83068  0.63917  0.75240  1.0000
  C   C3614     1.0  0.81249  0.64614  0.76204  1.0000
  C   C3615     1.0  0.80485  0.63622  0.77960  1.0000
  H   H2893     1.0  0.84180  0.59929  0.78408  1.0000
  H   H2894     1.0  0.85529  0.61686  0.75332  1.0000
  H   H2895     1.0  0.80434  0.65927  0.75590  1.0000
  H   H2896     1.0  0.79083  0.64164  0.78693  1.0000
  C   C3616     1.0  0.76743  0.61095  0.91992  1.0000
  C   C3617     1.0  0.77598  0.60719  0.93599  1.0000
  C   C3618     1.0  0.76586  0.61348  0.95268  1.0000
  C   C3619     1.0  0.74706  0.62341  0.95339  1.0000
  C   C3620     1.0  0.73844  0.62685  0.93741  1.0000
  C   C3621     1.0  0.74859  0.62074  0.92072  1.0000
  H   H2897     1.0  0.79054  0.59957  0.93549  1.0000
  H   H2898     1.0  0.83793  0.68685  0.70042  1.0000
  C   C3622     1.0  0.81749  0.51178  0.71835  1.0000
  C   C3623     1.0  0.76299  0.52506  0.94700  1.0000
  C   C3624     1.0  0.74706  0.67189  0.92361  1.0000
  C   C3625     1.0  0.71989  0.56626  0.95065  1.0000
  H   H2899     1.0  0.68033  0.72613  0.85346  1.0000
  C   C3626     1.0  0.85804  0.59879  0.65569  1.0000
  C   C3627     1.0  0.74280  0.68498  0.89149  1.0000
  P   P119      1.0  0.71057  0.69235  0.91861  1.0000
  C   C3628     1.0  0.49275  0.70965  0.91691  1.0000
  C   C3629     1.0  0.70530  0.71627  0.90595  1.0000
  H   H2900     1.0  0.53591  0.48811  0.89653  1.0000
  H   H2901     1.0  0.78780  0.57760  0.71964  1.0000
  H   H2902     1.0  0.69742  0.64168  0.89034  1.0000
  H   H2903     1.0  0.61690  0.68729  0.88256  1.0000
  H   H2904     1.0  0.65321  0.48218  0.87873  1.0000
  C   C3630     1.0  0.77947  0.53590  0.75621  1.0000
  C   C3631     1.0  0.93563  0.58885  0.75145  1.0000
  H   H2905     1.0  0.85532  0.56833  0.77675  1.0000
  H   H2906     1.0  0.82350  0.56193  0.79293  1.0000
  H   H2907     1.0  0.75524  0.50997  0.90555  1.0000
  C   C3632     1.0  0.69573  0.67750  0.91394  1.0000
  C   C3633     1.0  0.68450  0.51305  0.86809  1.0000
  H   H2908     1.0  0.97321  0.60744  0.68395  1.0000
  C   C3634     1.0  0.70339  0.66334  0.90284  1.0000
  C   C3635     1.0  0.60552  0.69488  0.90993  1.0000
  H   H2909     1.0  0.95039  0.53101  0.76715  1.0000
  H   H2910     1.0  0.78569  0.50645  0.88143  1.0000
  H   H2911     1.0  0.86160  0.61276  0.65419  1.0000
  H   H2912     1.0  0.96240  0.50458  0.68311  1.0000
  C   C3636     1.0  0.95910  0.57699  0.77186  1.0000
  C   C3637     1.0  0.82956  0.55719  0.77962  1.0000
  C   C3638     1.0  0.74242  0.56434  0.89032  1.0000
  H   H2913     1.0  0.72559  0.52375  0.89314  1.0000
  C   C3639     1.0  0.84404  0.59260  0.67056  1.0000
  C   C3640     1.0  0.83113  0.59298  0.73157  1.0000
  C   C3641     1.0  0.69147  0.65236  0.89916  1.0000
  C   C3642     1.0  0.73936  0.53820  0.83313  1.0000
  H   H2914     1.0  0.73397  0.69304  0.88134  1.0000
  C   C3643     1.0  0.81082  0.51156  0.84214  1.0000
  S   S508      1.0  0.89214  0.51898  0.66945  1.0000
  C   C3644     1.0  0.80481  0.54033  0.89983  1.0000
  H   H2915     1.0  0.71844  0.66070  0.89683  1.0000
  C   C3645     1.0  0.76846  0.59622  0.78881  1.0000
  C   C3646     1.0  0.78291  0.58059  0.78592  1.0000
  H   H2916     1.0  0.78906  0.53327  0.85357  1.0000
  H   H2917     1.0  0.73803  0.60617  0.79539  1.0000
  H   H2918     1.0  0.77224  0.60982  0.78855  1.0000
  H   H2919     1.0  0.79757  0.58264  0.78329  1.0000
  H   H2920     1.0  0.94834  0.48155  0.64328  1.0000
  Fe  Fe252     1.0  0.74431  0.48771  0.82591  1.0000
  H   H2921     1.0  0.76493  0.53192  0.73510  1.0000
  C   C3647     1.0  0.85840  0.70325  0.70275  1.0000
  C   C3648     1.0  0.79168  0.52856  0.96539  1.0000
  H   H2922     1.0  0.93485  0.50297  0.77896  1.0000
  C   C3649     1.0  0.92072  0.68632  0.66637  1.0000
  C   C3650     1.0  0.96851  0.48968  0.68601  1.0000
  H   H2923     1.0  0.94153  0.48055  0.68855  1.0000
  C   C3651     1.0  0.73605  0.57098  0.95475  1.0000
  C   C3652     1.0  0.94273  0.50509  0.76471  1.0000
  C   C3653     1.0  0.84488  0.69898  0.69412  1.0000
  C   C3654     1.0  0.98395  0.61552  0.67565  1.0000
  C   C3655     1.0  0.58946  0.68510  0.96061  1.0000
  C   C3656     1.0  0.96818  0.56338  0.76061  1.0000
  H   H2924     1.0  0.86191  0.69432  0.71569  1.0000
  H   H2925     1.0  0.61894  0.72671  0.91519  1.0000
  H   H2926     1.0  0.77615  0.55046  0.65883  1.0000
  H   H2927     1.0  0.75981  0.70201  0.74506  1.0000
  H   H2928     1.0  0.75176  0.52331  0.94026  1.0000
  H   H2929     1.0  0.78628  0.65637  0.89264  1.0000
  H   H2930     1.0  0.55096  0.71220  0.95483  1.0000
  C   C3657     1.0  0.67610  0.68021  0.92146  1.0000
  C   C3658     1.0  0.84658  0.53225  0.70018  1.0000
  C   C3659     1.0  0.77966  0.56125  0.66490  1.0000
  H   H2931     1.0  0.81069  0.60499  0.75357  1.0000
  C   C3660     1.0  0.79475  0.50233  0.90835  1.0000
  C   C3661     1.0  0.50643  0.70576  0.90097  1.0000
  C   C3662     1.0  0.65270  0.72024  0.80817  1.0000
  C   C3663     1.0  0.58974  0.70614  0.88289  1.0000
  C   C3664     1.0  0.67248  0.64282  0.96134  1.0000
  H   H2932     1.0  0.75491  0.67445  0.80291  1.0000
  H   H2933     1.0  0.54743  0.49093  0.86209  1.0000
  H   H2934     1.0  0.73532  0.72896  0.75416  1.0000
  H   H2935     1.0  0.97053  0.51257  0.71354  1.0000
  C   C3665     1.0  0.84940  0.56254  0.65982  1.0000
  C   C3666     1.0  0.94395  0.49195  0.75309  1.0000
  C   C3667     1.0  0.98411  0.56027  0.69241  1.0000
  P   P120      1.0  0.82162  0.56621  0.69198  1.0000
  C   C3668     1.0  0.73548  0.68296  0.91086  1.0000
  H   H2936     1.0  0.72138  0.55900  0.93893  1.0000
  H   H2937     1.0  0.83653  0.60220  0.68010  1.0000
  H   H2938     1.0  0.63104  0.57202  0.95752  1.0000
  C   C3669     1.0  0.89634  0.53310  0.68419  1.0000
  C   C3670     1.0  0.81938  0.54758  0.77161  1.0000
  C   C3671     1.0  0.88512  0.55513  0.80763  1.0000
  C   C3672     1.0  0.89149  0.55487  0.78845  1.0000
  C   C3673     1.0  0.89334  0.57182  0.77595  1.0000
  C   C3674     1.0  0.88878  0.58905  0.78252  1.0000
  C   C3675     1.0  0.88254  0.58947  0.80179  1.0000
  C   C3676     1.0  0.88085  0.57232  0.81432  1.0000
  P   P121      1.0  0.87914  0.61130  0.81080  1.0000
  C   C3677     1.0  0.90155  0.61368  0.81626  1.0000
  C   C3678     1.0  0.87231  0.63152  0.79325  1.0000
  C   C3679     1.0  0.88618  0.63784  0.77813  1.0000
  C   C3680     1.0  0.88107  0.65343  0.76446  1.0000
  C   C3681     1.0  0.86212  0.66296  0.76587  1.0000
  C   C3682     1.0  0.84834  0.65708  0.78109  1.0000
  C   C3683     1.0  0.85333  0.64136  0.79468  1.0000
  C   C3684     1.0  0.90483  0.63167  0.81714  1.0000
  C   C3685     1.0  0.92241  0.63377  0.82063  1.0000
  C   C3686     1.0  0.93682  0.61795  0.82330  1.0000
  C   C3687     1.0  0.93364  0.59999  0.82257  1.0000
  C   C3688     1.0  0.91608  0.59783  0.81908  1.0000
  C   C3689     1.0  0.86055  0.61101  0.83148  1.0000
  C   C3690     1.0  0.86167  0.61925  0.84666  1.0000
  C   C3691     1.0  0.84667  0.61977  0.86213  1.0000
  C   C3692     1.0  0.83046  0.61215  0.86251  1.0000
  C   C3693     1.0  0.82933  0.60381  0.84753  1.0000
  C   C3694     1.0  0.84429  0.60323  0.83210  1.0000
  H   H2939     1.0  0.88361  0.54198  0.81732  1.0000
  H   H2940     1.0  0.89485  0.54158  0.78318  1.0000
  H   H2941     1.0  0.89826  0.57160  0.76109  1.0000
  H   H2942     1.0  0.89025  0.60191  0.77245  1.0000
  H   H2943     1.0  0.87643  0.57218  0.82929  1.0000
  H   H2944     1.0  0.90094  0.63059  0.77672  1.0000
  H   H2945     1.0  0.89173  0.65790  0.75254  1.0000
  H   H2946     1.0  0.85800  0.67464  0.75496  1.0000
  H   H2947     1.0  0.83358  0.66428  0.78199  1.0000
  H   H2948     1.0  0.84220  0.63682  0.80597  1.0000
  H   H2949     1.0  0.89385  0.64411  0.81499  1.0000
  H   H2950     1.0  0.92490  0.64772  0.82113  1.0000
  H   H2951     1.0  0.95048  0.61963  0.82590  1.0000
  H   H2952     1.0  0.94484  0.58773  0.82465  1.0000
  H   H2953     1.0  0.91402  0.58380  0.81847  1.0000
  H   H2954     1.0  0.87392  0.62551  0.84655  1.0000
  H   H2955     1.0  0.84746  0.62631  0.87373  1.0000
  H   H2956     1.0  0.81864  0.61283  0.87431  1.0000
  H   H2957     1.0  0.81665  0.59809  0.84772  1.0000
  H   H2958     1.0  0.84293  0.59710  0.82043  1.0000
  H   H2959     1.0  0.92311  0.59877  0.74776  1.0000
  H   H2960     1.0  0.87069  0.55606  0.74730  1.0000
  H   H2961     1.0  0.66725  0.69207  0.81741  1.0000
  P   P122      1.0  0.97267  0.54474  0.73020  1.0000
  C   C3695     1.0  0.80045  0.57111  0.68143  1.0000
  C   C3696     1.0  0.73022  0.55256  0.88880  1.0000
  C   C3697     1.0  0.61654  0.71121  0.94369  1.0000
  H   H2962     1.0  0.97963  0.59698  0.72809  1.0000
  P   P123      1.0  0.59272  0.70692  0.94454  1.0000
  C   C3698     1.0  0.60505  0.69513  0.89106  1.0000
  H   H2963     1.0  0.87803  0.72162  0.70153  1.0000
  C   C3699     1.0  0.81821  0.57823  0.71167  1.0000
  H   H2964     1.0  0.50051  0.63708  0.89950  1.0000
  H   H2965     1.0  0.79802  0.53788  0.71230  1.0000
  H   H2966     1.0  0.71716  0.55864  0.88321  1.0000
  C   C3700     1.0  0.78121  0.52719  0.93662  1.0000
  C   C3701     1.0  0.95160  0.52100  0.75793  1.0000
  H   H2967     1.0  0.78313  0.59488  0.74599  1.0000
  C   C3702     1.0  0.59057  0.70554  0.92089  1.0000
  C   C3703     1.0  0.76467  0.53680  0.90216  1.0000
  C   C3704     1.0  0.70767  0.54861  0.82524  1.0000
  C   C3705     1.0  0.79308  0.49667  0.89184  1.0000
  H   H2968     1.0  0.77891  0.55092  0.75091  1.0000
  C   C3706     1.0  0.76810  0.57919  0.66404  1.0000
  H   H2969     1.0  0.83029  0.70661  0.67042  1.0000
  H   H2970     1.0  0.96316  0.63976  0.66799  1.0000
  C   C3707     1.0  0.69942  0.50172  0.87664  1.0000
  H   H2971     1.0  0.55676  0.72254  0.83899  1.0000
  C   C3708     1.0  0.86753  0.71878  0.69460  1.0000
  C   C3709     1.0  0.78909  0.58926  0.68005  1.0000
  C   C3710     1.0  0.82743  0.54126  0.70118  1.0000
  C   C3711     1.0  0.75956  0.55654  0.89702  1.0000
  H   H2972     1.0  0.79354  0.50090  0.79160  1.0000
  C   C3712     1.0  0.55561  0.72417  0.95785  1.0000
  C   C3713     1.0  0.94639  0.67034  0.64533  1.0000
  H   H2973     1.0  0.75478  0.54716  0.79191  1.0000
  C   C3714     1.0  0.77288  0.59322  0.67153  1.0000
  H   H2974     1.0  0.71017  0.66208  0.95134  1.0000
  H   H2975     1.0  0.59134  0.63795  0.96180  1.0000
  C   C3715     1.0  0.57476  0.71671  0.89366  1.0000
  H   H2976     1.0  0.80492  0.54341  0.67356  1.0000
  H   H2977     1.0  0.49743  0.65813  0.92244  1.0000
  C   C3716     1.0  0.97782  0.61208  0.72324  1.0000
  C   C3717     1.0  0.92688  0.67494  0.65252  1.0000
  H   H2978     1.0  0.74290  0.48545  0.92810  1.0000
  C   C3718     1.0  0.70505  0.69261  0.94371  1.0000
  C   C3719     1.0  0.68717  0.71124  0.80539  1.0000
  H   H2979     1.0  0.71270  0.50684  0.87526  1.0000
  C   C3720     1.0  0.95995  0.67675  0.65233  1.0000
  H   H2980     1.0  0.76627  0.67651  0.86995  1.0000
  H   H2981     1.0  0.75244  0.52793  0.83315  1.0000
  C   C3721     1.0  0.73937  0.71718  0.76495  1.0000
  C   C3722     1.0  0.78045  0.49719  0.76970  1.0000
  C   C3723     1.0  0.62560  0.72190  0.92751  1.0000
  H   H2982     1.0  0.79283  0.60039  0.68545  1.0000
  H   H2983     1.0  0.53030  0.71455  0.88063  1.0000
  C   C3724     1.0  0.96953  0.55297  0.70599  1.0000
  H   H2984     1.0  0.69932  0.70032  0.80807  1.0000
  C   C3725     1.0  0.77213  0.50582  0.75392  1.0000
  P   P124      1.0  0.78632  0.52666  0.91172  1.0000
  H   H2985     1.0  0.65626  0.51482  0.86235  1.0000
  C   C3726     1.0  0.66890  0.70642  0.81070  1.0000
  C   C3727     1.0  0.73674  0.70160  0.79746  1.0000
  H   H2986     1.0  0.96241  0.57043  0.65400  1.0000
  C   C3728     1.0  0.52018  0.71733  0.89324  1.0000
  C   C3729     1.0  0.79728  0.59169  0.73771  1.0000
  C   C3730     1.0  0.83997  0.57421  0.67303  1.0000
  C   C3731     1.0  0.81282  0.59734  0.74204  1.0000
  H   H2987     1.0  0.85802  0.54006  0.69366  1.0000
  C   C3732     1.0  0.62534  0.70574  0.95965  1.0000
  H   H2988     1.0  0.65267  0.59188  0.96196  1.0000
  H   H2989     1.0  0.59507  0.66741  0.93924  1.0000
  C   C3733     1.0  0.86318  0.56888  0.64481  1.0000
  C   C3734     1.0  0.77237  0.66421  0.89771  1.0000
  H   H2990     1.0  0.61786  0.68684  0.91579  1.0000
  H   H2991     1.0  0.76409  0.60722  0.67061  1.0000
  H   H2992     1.0  0.67001  0.69076  0.93028  1.0000
  H   H2993     1.0  0.93658  0.55763  0.67782  1.0000
  C   C3735     1.0  0.76543  0.66259  0.91702  1.0000
  C   C3736     1.0  0.79563  0.52872  0.94599  1.0000
  H   H2994     1.0  0.58967  0.70675  0.86811  1.0000
  C   C3737     1.0  0.79588  0.55726  0.67342  1.0000
  H   H2995     1.0  0.90036  0.51051  0.70767  1.0000
  H   H2996     1.0  0.68955  0.56736  0.95803  1.0000
  C   C3738     1.0  0.79997  0.58202  0.72268  1.0000
  C   C3739     1.0  0.66605  0.48760  0.87849  1.0000
  C   C3740     1.0  0.93409  0.69306  0.67314  1.0000
  C   C3741     1.0  0.70541  0.67540  0.95639  1.0000
  C   C3742     1.0  0.95231  0.55225  0.70058  1.0000
  S   S509      1.0  0.72653  0.51523  0.81450  1.0000
  C   C3743     1.0  0.81828  0.53448  0.88452  1.0000
  C   C3744     1.0  0.83245  0.54519  0.87528  1.0000
  C   C3745     1.0  0.83335  0.56176  0.88130  1.0000
  C   C3746     1.0  0.81998  0.56772  0.89645  1.0000
  C   C3747     1.0  0.76112  0.67555  0.88495  1.0000
  C   C3748     1.0  0.72446  0.53507  0.82536  1.0000
  C   C3749     1.0  0.75886  0.56087  0.79059  1.0000
  H   H2997     1.0  0.74918  0.55763  0.84591  1.0000
  H   H2998     1.0  0.81790  0.52173  0.87961  1.0000
  H   H2999     1.0  0.84266  0.54066  0.86338  1.0000
  H   H3000     1.0  0.84426  0.57010  0.87411  1.0000
  H   H3001     1.0  0.82032  0.58080  0.90091  1.0000
  C   C3750     1.0  0.96126  0.56270  0.74441  1.0000
  C   C3751     1.0  0.78758  0.52738  0.77228  1.0000
  H   H3002     1.0  0.68073  0.71224  0.89573  1.0000
  C   C3752     1.0  0.66420  0.66933  0.91761  1.0000
  C   C3753     1.0  0.96172  0.52390  0.73940  1.0000
  H   H3003     1.0  0.64906  0.67168  0.92335  1.0000
  C   C3754     1.0  0.77158  0.52520  0.74720  1.0000
  C   C3755     1.0  0.68941  0.72216  0.89676  1.0000
  H   H3004     1.0  0.63855  0.71657  0.81285  1.0000
  C   C3756     1.0  0.59170  0.66794  0.95410  1.0000
  C   C3757     1.0  0.73759  0.55511  0.84018  1.0000
  C   C3758     1.0  0.73092  0.71712  0.78392  1.0000
  H   H3005     1.0  0.69452  0.61836  0.96334  1.0000
  H   H3006     1.0  0.84635  0.54841  0.66122  1.0000
  H   H3007     1.0  0.91652  0.66940  0.64762  1.0000
  C   C3759     1.0  0.81288  0.53103  0.71076  1.0000
  C   C3760     1.0  0.57510  0.71638  0.91260  1.0000
  H   H3008     1.0  0.88527  0.71980  0.64373  1.0000
  H   H3009     1.0  0.76970  0.67464  0.76929  1.0000
  C   C3761     1.0  0.75912  0.52492  0.96636  1.0000
  C   C3762     1.0  0.70184  0.57104  0.96156  1.0000
  C   C3763     1.0  0.69906  0.70968  0.95085  1.0000
  H   H3010     1.0  0.80502  0.49278  0.93491  1.0000
  H   H3011     1.0  0.69843  0.72327  0.94166  1.0000
  H   H3012     1.0  0.49449  0.69994  0.95609  1.0000
  H   H3013     1.0  0.98061  0.55342  0.76454  1.0000
  C   C3764     1.0  0.89776  0.72624  0.64206  1.0000
  H   H3014     1.0  0.83105  0.49165  0.82678  1.0000
  C   C3765     1.0  0.95408  0.49467  0.73471  1.0000
  C   C3766     1.0  0.49303  0.72541  0.92480  1.0000
  C   C3767     1.0  0.65131  0.72227  0.94345  1.0000
  H   H3015     1.0  0.64831  0.66570  0.96301  1.0000
  H   H3016     1.0  0.95506  0.48445  0.72571  1.0000
  H   H3017     1.0  0.56312  0.72550  0.88715  1.0000
  H   H3018     1.0  0.72902  0.72523  0.91309  1.0000
  C   C3768     1.0  0.86992  0.67306  0.64356  1.0000
  C   C3769     1.0  0.57512  0.72563  0.95388  1.0000
  H   H3019     1.0  0.56352  0.72498  0.92045  1.0000
  H   H3020     1.0  0.85057  0.69984  0.64175  1.0000
  C   C3770     1.0  0.67963  0.62394  0.96818  1.0000
  H   H3021     1.0  0.77261  0.61076  0.96494  1.0000
  C   C3771     1.0  0.84061  0.71012  0.67721  1.0000
  S   S510      1.0  0.51623  0.72693  0.84093  1.0000
  C   C3772     1.0  0.69771  0.48336  0.88616  1.0000
  Fe  Fe253     1.0  0.89293  0.48765  0.68040  1.0000
  C   C3773     1.0  0.58956  0.65115  0.96689  1.0000
  C   C3774     1.0  0.80382  0.48903  0.92187  1.0000
  H   H3022     1.0  0.84020  0.48783  0.72242  1.0000
  H   H3023     1.0  0.51942  0.72607  0.79472  1.0000
  H   H3024     1.0  0.78091  0.48217  0.77493  1.0000
  C   C3775     1.0  0.85000  0.72542  0.66878  1.0000
  C   C3776     1.0  0.73418  0.58041  0.96977  1.0000
  C   C3777     1.0  0.63826  0.56793  0.96956  1.0000
  H   H3025     1.0  0.58463  0.78624  0.01077  1.0000
  Fe  Fe254     1.0  0.63386  0.91626  0.27792  1.0000
  C   C3778     1.0  0.58617  0.86090  0.23027  1.0000
  Fe  Fe255     1.0  0.63647  0.87328  0.28230  1.0000
  C   C3779     1.0  0.67886  0.73691  0.11814  1.0000
  S   S511      1.0  0.64370  0.84405  0.27345  1.0000
  H   H3026     1.0  0.52349  0.83240  0.23565  1.0000
  H   H3027     1.0  0.55516  0.77216  0.24212  1.0000
  C   C3780     1.0  0.55723  0.74813  0.09718  1.0000
  C   C3781     1.0  0.51050  0.82386  0.14918  1.0000
  S   S512      1.0  0.61548  0.89818  0.27104  1.0000
  S   S513      1.0  0.65651  0.89136  0.28649  1.0000
  Fe  Fe256     1.0  0.60108  0.77284  0.18838  1.0000
  S   S514      1.0  0.61155  0.79840  0.16983  1.0000
  S   S515      1.0  0.56956  0.77379  0.20056  1.0000
  Fe  Fe257     1.0  0.64143  0.75060  0.18855  1.0000
  S   S516      1.0  0.65498  0.77438  0.16997  1.0000
  H   H3028     1.0  0.67178  0.73576  0.23106  1.0000
  Fe  Fe258     1.0  0.63395  0.79344  0.18818  1.0000
  S   S517      1.0  0.64242  0.81890  0.19605  1.0000
  Fe  Fe259     1.0  0.63152  0.77728  0.15336  1.0000
  S   S518      1.0  0.63747  0.78374  0.12143  1.0000
  S   S519      1.0  0.62206  0.76933  0.20792  1.0000
  S   S520      1.0  0.61942  0.75207  0.17074  1.0000
  S   S521      1.0  0.51395  0.74938  0.15755  1.0000
  S   S522      1.0  0.51308  0.88667  0.26316  1.0000
  C   C3782     1.0  0.55439  0.76692  0.18835  1.0000
  C   C3783     1.0  0.53450  0.77265  0.19297  1.0000
  C   C3784     1.0  0.52198  0.76777  0.18331  1.0000
  C   C3785     1.0  0.52926  0.75639  0.16951  1.0000
  C   C3786     1.0  0.54914  0.75016  0.16531  1.0000
  C   C3787     1.0  0.56170  0.75574  0.17440  1.0000
  H   H3029     1.0  0.52881  0.78112  0.20386  1.0000
  H   H3030     1.0  0.50671  0.77261  0.18673  1.0000
  C   C3788     1.0  0.59731  0.79121  0.98142  1.0000
  H   H3031     1.0  0.57698  0.75102  0.17090  1.0000
  S   S523      1.0  0.64197  0.94262  0.25818  1.0000
  H   H3032     1.0  0.77857  0.92328  0.27797  1.0000
  H   H3033     1.0  0.57192  0.74682  0.06852  1.0000
  H   H3034     1.0  0.72921  0.84447  0.30165  1.0000
  C   C3789     1.0  0.58836  0.83204  0.19991  1.0000
  C   C3790     1.0  0.95774  0.73674  0.28411  1.0000
  C   C3791     1.0  0.73018  0.92798  0.29279  1.0000
  C   C3792     1.0  0.58429  0.76847  0.24621  1.0000
  H   H3035     1.0  0.76979  0.79262  0.28385  1.0000
  C   C3793     1.0  0.58667  0.76013  0.08295  1.0000
  C   C3794     1.0  0.52832  0.89137  0.27665  1.0000
  C   C3795     1.0  0.54731  0.89304  0.26843  1.0000
  C   C3796     1.0  0.56002  0.89573  0.27918  1.0000
  H   H3036     1.0  0.55444  0.79572  0.14706  1.0000
  C   C3797     1.0  0.76493  0.91986  0.28569  1.0000
  H   H3037     1.0  0.55226  0.89214  0.25375  1.0000
  H   H3038     1.0  0.57466  0.89684  0.27274  1.0000
  C   C3798     1.0  0.64056  0.83818  0.25221  1.0000
  C   C3799     1.0  0.63740  0.81985  0.25223  1.0000
  C   C3800     1.0  0.63711  0.81389  0.23531  1.0000
  C   C3801     1.0  0.64027  0.82616  0.21809  1.0000
  C   C3802     1.0  0.64290  0.84463  0.21815  1.0000
  C   C3803     1.0  0.64286  0.85069  0.23508  1.0000
  H   H3039     1.0  0.63542  0.81015  0.26542  1.0000
  H   H3040     1.0  0.63503  0.79966  0.23551  1.0000
  H   H3041     1.0  0.64540  0.85422  0.20493  1.0000
  H   H3042     1.0  0.64543  0.86476  0.23478  1.0000
  H   H3043     1.0  0.64059  0.76275  0.06177  1.0000
  H   H3044     1.0  0.68716  0.79239  0.17705  1.0000
  C   C3804     1.0  0.55011  0.85159  0.24643  1.0000
  H   H3045     1.0  0.95397  0.78071  0.29469  1.0000
  H   H3046     1.0  0.74071  0.81600  0.27812  1.0000
  H   H3047     1.0  0.67807  0.75153  0.11118  1.0000
  C   C3805     1.0  0.69826  0.78439  0.07311  1.0000
  H   H3048     1.0  0.54526  0.75370  0.12528  1.0000
  H   H3049     1.0  0.67177  0.77702  0.04329  1.0000
  H   H3050     1.0  0.52200  0.86641  0.16226  1.0000
  C   C3806     1.0  0.73138  0.76560  0.25868  1.0000
  H   H3051     1.0  0.77761  0.89389  0.30187  1.0000
  C   C3807     1.0  0.70654  0.95002  0.23308  1.0000
  C   C3808     1.0  0.52211  0.76677  0.06799  1.0000
  S   S524      1.0  0.65088  0.76545  0.97723  1.0000
  C   C3809     1.0  0.63101  0.74941  0.11627  1.0000
  C   C3810     1.0  0.63560  0.76722  0.10785  1.0000
  C   C3811     1.0  0.63896  0.77199  0.08813  1.0000
  C   C3812     1.0  0.63798  0.75898  0.07693  1.0000
  H   H3052     1.0  0.62796  0.74568  0.13139  1.0000
  H   H3053     1.0  0.64236  0.78579  0.08150  1.0000
  H   H3054     1.0  0.77363  0.73217  0.06437  1.0000
  C   C3813     1.0  0.68695  0.79980  0.25901  1.0000
  C   C3814     1.0  0.67339  0.78885  0.26929  1.0000
  H   H3055     1.0  0.59792  0.77363  0.10043  1.0000
  H   H3056     1.0  0.49752  0.92340  0.27573  1.0000
  C   C3815     1.0  0.58207  0.79172  0.99655  1.0000
  C   C3816     1.0  0.69527  0.80999  0.26816  1.0000
  H   H3057     1.0  0.70990  0.76441  0.16688  1.0000
  C   C3817     1.0  0.65481  0.97570  0.25367  1.0000
  C   C3818     1.0  0.50445  0.86900  0.20846  1.0000
  C   C3819     1.0  0.74012  0.80542  0.29082  1.0000
  H   H3058     1.0  0.58895  0.75617  0.23931  1.0000
  H   H3059     1.0  0.53728  0.76304  0.97852  1.0000
  H   H3060     1.0  0.71290  0.76257  0.09208  1.0000
  C   C3820     1.0  0.52080  0.75937  0.08723  1.0000
  C   C3821     1.0  0.71148  0.96845  0.28763  1.0000
  C   C3822     1.0  0.59951  0.94098  0.23811  1.0000
  C   C3823     1.0  0.56516  0.77746  0.24787  1.0000
  H   H3061     1.0  0.52636  0.80442  0.13081  1.0000
  C   C3824     1.0  0.54223  0.80604  0.15180  1.0000
  C   C3825     1.0  0.69841  0.75073  0.07574  1.0000
  H   H3062     1.0  0.59810  0.76222  0.07104  1.0000
  C   C3826     1.0  0.56996  0.87095  0.22293  1.0000
  P   P125      1.0  0.53714  0.73845  0.09507  1.0000
  H   H3063     1.0  0.71883  0.96308  0.24995  1.0000
  C   C3827     1.0  0.70129  0.87127  0.26178  1.0000
  H   H3064     1.0  0.69085  0.80056  0.24391  1.0000
  H   H3065     1.0  0.66669  0.78125  0.26214  1.0000
  C   C3828     1.0  0.55705  0.75494  0.11361  1.0000
  H   H3066     1.0  0.73518  0.76011  0.23054  1.0000
  H   H3067     1.0  0.70599  0.81814  0.26002  1.0000
  H   H3068     1.0  0.51161  0.78952  0.04695  1.0000
  H   H3069     1.0  0.98690  0.73597  0.26966  1.0000
  H   H3070     1.0  0.68185  0.80311  0.05328  1.0000
  C   C3829     1.0  0.50015  0.81101  0.21299  1.0000
  C   C3830     1.0  0.69579  0.93635  0.23291  1.0000
  C   C3831     1.0  0.52642  0.81093  0.14268  1.0000
  C   C3832     1.0  0.57195  0.75110  0.08170  1.0000
  H   H3071     1.0  0.69227  0.93481  0.21983  1.0000
  C   C3833     1.0  0.56301  0.93506  0.23704  1.0000
  H   H3072     1.0  0.74850  0.94494  0.27208  1.0000
  C   C3834     1.0  0.52799  0.75033  0.02292  1.0000
  Fe  Fe260     1.0  0.59406  0.74203  0.02180  1.0000
  C   C3835     1.0  0.49685  0.89937  0.18856  1.0000
  H   H3073     1.0  0.70512  0.74289  0.29726  1.0000
  C   C3836     1.0  0.57219  0.80084  0.26317  1.0000
  H   H3074     1.0  0.61247  0.76923  0.25069  1.0000
  C   C3837     1.0  0.71052  0.95239  0.25008  1.0000
  C   C3838     1.0  0.55995  0.80593  0.97507  1.0000
  C   C3839     1.0  0.52601  0.82670  0.17429  1.0000
  S   S525      1.0  0.61536  0.75818  0.02616  1.0000
  C   C3840     1.0  0.93357  0.75550  0.26639  1.0000
  C   C3841     1.0  0.50845  0.76975  0.10034  1.0000
  C   C3842     1.0  0.57811  0.81807  0.21036  1.0000
  C   C3843     1.0  0.55318  0.95084  0.28883  1.0000
  C   C3844     1.0  0.74787  0.93211  0.28245  1.0000
  H   H3075     1.0  0.97830  0.75772  0.24107  1.0000
  H   H3076     1.0  0.68638  0.76612  0.23470  1.0000
  C   C3845     1.0  0.68672  0.75500  0.06195  1.0000
  C   C3846     1.0  0.51241  0.82248  0.21531  1.0000
  C   C3847     1.0  0.63418  0.74091  0.08542  1.0000
  H   H3077     1.0  0.58765  0.85793  0.17980  1.0000
  C   C3848     1.0  0.51406  0.82374  0.23358  1.0000
  H   H3078     1.0  0.54534  0.81116  0.97286  1.0000
  C   C3849     1.0  0.72871  0.75613  0.24511  1.0000
  H   H3079     1.0  0.49746  0.84101  0.17026  1.0000
  H   H3080     1.0  0.66694  0.94803  0.29001  1.0000
  C   C3850     1.0  0.55196  0.86622  0.23094  1.0000
  H   H3081     1.0  0.53600  0.84847  0.25267  1.0000
  H   H3082     1.0  0.61366  0.94316  0.23858  1.0000
  H   H3083     1.0  0.57178  0.76887  0.12767  1.0000
  H   H3084     1.0  0.67532  0.79303  0.21085  1.0000
  C   C3851     1.0  0.49075  0.80313  0.24678  1.0000
  H   H3085     1.0  0.94409  0.76984  0.23870  1.0000
  C   C3852     1.0  0.56337  0.79880  0.99337  1.0000
  C   C3853     1.0  0.51021  0.83158  0.16501  1.0000
  H   H3086     1.0  0.50741  0.89136  0.30209  1.0000
  H   H3087     1.0  0.53932  0.87412  0.22544  1.0000
  H   H3088     1.0  0.55156  0.79839  0.00516  1.0000
  C   C3854     1.0  0.68933  0.92481  0.24967  1.0000
  C   C3855     1.0  0.51459  0.87224  0.17470  1.0000
  C   C3856     1.0  0.57184  0.76386  0.11486  1.0000
  H   H3089     1.0  0.91869  0.76026  0.26486  1.0000
  C   C3857     1.0  0.54752  0.74268  0.02076  1.0000
  C   C3858     1.0  0.59155  0.79217  0.26079  1.0000
  C   C3859     1.0  0.51511  0.74086  0.01866  1.0000
  C   C3860     1.0  0.59748  0.92546  0.23097  1.0000
  C   C3861     1.0  0.57923  0.92245  0.23054  1.0000
  C   C3862     1.0  0.97203  0.74183  0.26900  1.0000
  P   P126      1.0  0.70836  0.94437  0.28907  1.0000
  H   H3090     1.0  0.73946  0.73796  0.06150  1.0000
  H   H3091     1.0  0.62055  0.96178  0.29008  1.0000
  H   H3092     1.0  0.69320  0.87896  0.25092  1.0000
  H   H3093     1.0  0.63112  0.97502  0.22636  1.0000
  H   H3094     1.0  0.59711  0.83833  0.25100  1.0000
  H   H3095     1.0  0.54905  0.93226  0.23665  1.0000
  C   C3863     1.0  0.63076  0.73617  0.10510  1.0000
  C   C3864     1.0  0.74385  0.73022  0.07454  1.0000
  C   C3865     1.0  0.56628  0.84157  0.25398  1.0000
  H   H3096     1.0  0.57761  0.91019  0.22540  1.0000
  C   C3866     1.0  0.70510  0.76487  0.18173  1.0000
  C   C3867     1.0  0.52298  0.95788  0.25255  1.0000
  H   H3097     1.0  0.57135  0.85502  0.28527  1.0000
  H   H3098     1.0  0.55358  0.86079  0.17786  1.0000
  C   C3868     1.0  0.51314  0.96465  0.23731  1.0000
  C   C3869     1.0  0.93836  0.74372  0.28298  1.0000
  H   H3099     1.0  0.73994  0.77673  0.25460  1.0000
  C   C3870     1.0  0.94791  0.76079  0.25146  1.0000
  C   C3871     1.0  0.96716  0.75396  0.25277  1.0000
  C   C3872     1.0  0.54501  0.96725  0.27753  1.0000
  H   H3100     1.0  0.50782  0.76473  0.11533  1.0000
  H   H3101     1.0  0.70239  0.79580  0.07770  1.0000
  H   H3102     1.0  0.55140  0.80805  0.21673  1.0000
  C   C3873     1.0  0.57860  0.82434  0.28975  1.0000
  H   H3103     1.0  0.54444  0.80087  0.25665  1.0000
  C   C3874     1.0  0.53057  0.84075  0.29192  1.0000
  H   H3104     1.0  0.71939  0.89215  0.25774  1.0000
  C   C3875     1.0  0.58334  0.95340  0.24503  1.0000
  H   H3105     1.0  0.68827  0.91792  0.27953  1.0000
  C   C3876     1.0  0.58437  0.84614  0.24563  1.0000
  C   C3877     1.0  0.69344  0.92700  0.26666  1.0000
  C   C3878     1.0  0.68964  0.80976  0.28761  1.0000
  H   H3106     1.0  0.60212  0.79816  0.26492  1.0000
  C   C3879     1.0  0.70364  0.94114  0.26704  1.0000
  Fe  Fe261     1.0  0.63318  0.74755  0.00025  1.0000
  C   C3880     1.0  0.64234  0.96417  0.26521  1.0000
  C   C3881     1.0  0.50611  0.89140  0.17270  1.0000
  C   C3882     1.0  0.51356  0.86076  0.19258  1.0000
  H   H3107     1.0  0.68166  0.74395  0.05771  1.0000
  H   H3108     1.0  0.58530  0.80575  0.21874  1.0000
  H   H3109     1.0  0.60331  0.83078  0.20061  1.0000
  C   C3883     1.0  0.69185  0.76568  0.21997  1.0000
  S   S526      1.0  0.61080  0.73364  0.99472  1.0000
  H   H3110     1.0  0.68059  0.91454  0.24962  1.0000
  H   H3111     1.0  0.65871  0.74454  0.14241  1.0000
  C   C3884     1.0  0.59751  0.77586  0.25259  1.0000
  H   H3112     1.0  0.55435  0.80953  0.17458  1.0000
  C   C3885     1.0  0.71144  0.74956  0.19514  1.0000
  C   C3886     1.0  0.68100  0.77383  0.05374  1.0000
  C   C3887     1.0  0.58660  0.76651  0.09952  1.0000
  H   H3113     1.0  0.49851  0.80965  0.19914  1.0000
  C   C3888     1.0  0.50188  0.93491  0.26502  1.0000
  C   C3889     1.0  0.56495  0.95071  0.24429  1.0000
  C   C3890     1.0  0.54209  0.81393  0.16750  1.0000
  C   C3891     1.0  0.56013  0.84899  0.18726  1.0000
  C   C3892     1.0  0.57946  0.84741  0.18824  1.0000
  P   P127      1.0  0.52531  0.83618  0.19516  1.0000
  C   C3893     1.0  0.55884  0.81951  0.20930  1.0000
  C   C3894     1.0  0.54965  0.83510  0.19791  1.0000
  C   C3895     1.0  0.70489  0.74986  0.21441  1.0000
  H   H3114     1.0  0.52491  0.93693  0.27793  1.0000
  C   C3896     1.0  0.72567  0.97250  0.29575  1.0000
  H   H3115     1.0  0.57134  0.88225  0.21093  1.0000
  C   C3897     1.0  0.52198  0.89278  0.29562  1.0000
  H   H3116     1.0  0.61005  0.91558  0.22612  1.0000
  C   C3898     1.0  0.75658  0.79210  0.29394  1.0000
  C   C3899     1.0  0.63050  0.97043  0.28124  1.0000
  H   H3117     1.0  0.61174  0.78525  0.98391  1.0000
  C   C3900     1.0  0.49832  0.79413  0.07494  1.0000
  C   C3901     1.0  0.69228  0.78061  0.18743  1.0000
  H   H3118     1.0  0.49796  0.73212  0.11083  1.0000
  H   H3119     1.0  0.55944  0.93798  0.28313  1.0000
  C   C3902     1.0  0.51726  0.94288  0.26636  1.0000
  C   C3903     1.0  0.72155  0.85168  0.29032  1.0000
  P   P128      1.0  0.54411  0.96680  0.25330  1.0000
  C   C3904     1.0  0.72588  0.86907  0.28013  1.0000
  C   C3905     1.0  0.67637  0.79831  0.29790  1.0000
  H   H3120     1.0  0.49811  0.82754  0.14230  1.0000
  H   H3121     1.0  0.91314  0.77777  0.29038  1.0000
  C   C3906     1.0  0.53243  0.80696  0.29457  1.0000
  H   H3122     1.0  0.68488  0.84882  0.26934  1.0000
  C   C3907     1.0  0.51070  0.78396  0.06185  1.0000
  H   H3123     1.0  0.53687  0.85339  0.28698  1.0000
  H   H3124     1.0  0.52276  0.76374  0.02771  1.0000
  H   H3125     1.0  0.73688  0.87509  0.28350  1.0000
  S   S527      1.0  0.56304  0.75525  0.02621  1.0000
  C   C3908     1.0  0.71176  0.74653  0.28270  1.0000
  H   H3126     1.0  0.50000  0.74676  0.02081  1.0000
  C   C3909     1.0  0.54050  0.82337  0.28707  1.0000
  C   C3910     1.0  0.70727  0.84380  0.28606  1.0000
  H   H3127     1.0  0.68349  0.73798  0.17004  1.0000
  C   C3911     1.0  0.57888  0.84244  0.29301  1.0000
  H   H3128     1.0  0.50679  0.90009  0.15883  1.0000
  H   H3129     1.0  0.58520  0.96506  0.25099  1.0000
  C   C3912     1.0  0.70419  0.76556  0.08122  1.0000
  C   C3913     1.0  0.55916  0.79371  0.25612  1.0000
  C   C3914     1.0  0.68667  0.78852  0.05937  1.0000
  C   C3915     1.0  0.71592  0.87875  0.26570  1.0000
  H   H3130     1.0  0.60021  0.86428  0.22393  1.0000
  H   H3131     1.0  0.53232  0.75945  0.05779  1.0000
  P   P129      1.0  0.56438  0.82207  0.27338  1.0000
  C   C3916     1.0  0.69675  0.85400  0.27211  1.0000
  C   C3917     1.0  0.66815  0.78805  0.28872  1.0000
  H   H3132     1.0  0.50361  0.86078  0.22248  1.0000
  C   C3918     1.0  0.66764  0.73300  0.13589  1.0000
  H   H3133     1.0  0.65752  0.77967  0.29665  1.0000
  P   P130      1.0  0.70161  0.82156  0.29962  1.0000
  C   C3919     1.0  0.50313  0.81428  0.24925  1.0000
  H   H3134     1.0  0.54022  0.79316  0.29204  1.0000
  C   C3920     1.0  0.68559  0.78096  0.20653  1.0000
  H   H3135     1.0  0.57169  0.76553  0.97207  1.0000
  C   C3921     1.0  0.55376  0.89682  0.29822  1.0000
  C   C3922     1.0  0.58782  0.80830  0.30064  1.0000
  H   H3136     1.0  0.55489  0.74095  0.15504  1.0000
  H   H3137     1.0  0.66391  0.97111  0.24125  1.0000
  H   H3138     1.0  0.71158  0.95895  0.22007  1.0000
  C   C3923     1.0  0.70909  0.73700  0.26917  1.0000
  C   C3924     1.0  0.71758  0.74172  0.25025  1.0000
  C   C3925     1.0  0.49773  0.95660  0.23605  1.0000
  H   H3139     1.0  0.49032  0.91423  0.18705  1.0000
  H   H3140     1.0  0.58701  0.79418  0.29901  1.0000
  H   H3141     1.0  0.72131  0.73759  0.19028  1.0000
  C   C3926     1.0  0.49224  0.94157  0.24980  1.0000
  H   H3142     1.0  0.50400  0.81587  0.26329  1.0000
  H   H3143     1.0  0.51735  0.97603  0.22627  1.0000
  C   C3927     1.0  0.49720  0.78704  0.09417  1.0000
  Fe  Fe262     1.0  0.62779  0.73053  0.04249  1.0000
  H   H3144     1.0  0.72486  0.76824  0.28796  1.0000
  C   C3928     1.0  0.72289  0.76082  0.27747  1.0000
  P   P131      1.0  0.91955  0.73567  0.30130  1.0000
  C   C3929     1.0  0.76441  0.90327  0.29906  1.0000
  C   C3930     1.0  0.49614  0.88819  0.20642  1.0000
  H   H3145     1.0  0.73515  0.96123  0.30301  1.0000
  Fe  Fe263     1.0  0.60109  0.89757  0.30113  1.0000
  C   C3931     1.0  0.54777  0.75287  0.97127  1.0000
  P   P132      1.0  0.71321  0.73067  0.23225  1.0000
  H   H3146     1.0  0.98513  0.76058  0.29874  1.0000
  H   H3147     1.0  0.57320  0.96688  0.54428  1.0000
  H   H3148     1.0  0.70105  0.84136  0.52219  1.0000
  H   H3149     1.0  0.69179  0.83624  0.36362  1.0000
  Fe  Fe264     1.0  0.76557  0.91457  0.57930  1.0000
  S   S528      1.0  0.74244  0.92048  0.56206  1.0000
  S   S529      1.0  0.77075  0.93893  0.59085  1.0000
  Fe  Fe265     1.0  0.77390  0.87218  0.57783  1.0000
  S   S530      1.0  0.75098  0.87521  0.56060  1.0000
  S   S531      1.0  0.78868  0.84179  0.58602  1.0000
  Fe  Fe266     1.0  0.76245  0.90087  0.54416  1.0000
  S   S532      1.0  0.76911  0.90843  0.51247  1.0000
  Fe  Fe267     1.0  0.73291  0.89434  0.58018  1.0000
  S   S533      1.0  0.70084  0.89681  0.58997  1.0000
  S   S534      1.0  0.78669  0.89682  0.56002  1.0000
  S   S535      1.0  0.75477  0.88950  0.59878  1.0000
  H   H3150     1.0  0.72397  0.82377  0.54303  1.0000
  S   S536      1.0  0.87586  0.76055  0.56230  1.0000
  C   C3932     1.0  0.55372  0.95065  0.56401  1.0000
  S   S537      1.0  0.87852  0.81244  0.56672  1.0000
  H   H3151     1.0  0.66972  0.86967  0.52993  1.0000
  C   C3933     1.0  0.66440  0.84080  0.61575  1.0000
  H   H3152     1.0  0.80396  0.84161  0.37701  1.0000
  H   H3153     1.0  0.68561  0.87647  0.32124  1.0000
  C   C3934     1.0  0.69063  0.83264  0.52998  1.0000
  H   H3154     1.0  0.82122  0.81003  0.37017  1.0000
  H   H3155     1.0  0.49122  0.91331  0.32480  1.0000
  S   S538      1.0  0.91892  0.77166  0.55194  1.0000
  Fe  Fe268     1.0  0.74503  0.88461  0.38184  1.0000
  S   S539      1.0  0.76961  0.90056  0.37044  1.0000
  Fe  Fe269     1.0  0.74680  0.88651  0.42286  1.0000
  S   S540      1.0  0.77136  0.90233  0.41370  1.0000
  S   S541      1.0  0.73356  0.87993  0.45397  1.0000
  Fe  Fe270     1.0  0.75506  0.91941  0.39161  1.0000
  S   S542      1.0  0.74651  0.95130  0.38564  1.0000
  Fe  Fe271     1.0  0.78355  0.88161  0.39387  1.0000
  S   S543      1.0  0.81524  0.86953  0.39338  1.0000
  S   S544      1.0  0.72957  0.90471  0.40149  1.0000
  S   S545      1.0  0.75990  0.86460  0.40423  1.0000
  S   S546      1.0  0.90453  0.74826  0.37595  1.0000
  S   S547      1.0  0.89292  0.76694  0.41478  1.0000
  Fe  Fe272     1.0  0.87838  0.76548  0.39116  1.0000
  S   S548      1.0  0.85795  0.78857  0.37594  1.0000
  H   H3156     1.0  0.95450  0.74912  0.50227  1.0000
  C   C3935     1.0  0.75605  0.77814  0.31009  1.0000
  C   C3936     1.0  0.87109  0.73933  0.49409  1.0000
  C   C3937     1.0  0.67609  0.89044  0.36383  1.0000
  C   C3938     1.0  0.96575  0.75693  0.40105  1.0000
  C   C3939     1.0  0.69122  0.93646  0.32665  1.0000
  C   C3940     1.0  0.97196  0.75133  0.58572  1.0000
  C   C3941     1.0  0.68838  0.94087  0.30795  1.0000
  C   C3942     1.0  0.97449  0.78757  0.39948  1.0000
  C   C3943     1.0  0.96069  0.77668  0.39915  1.0000
  H   H3157     1.0  0.71858  0.86952  0.32848  1.0000
  C   C3944     1.0  0.68304  0.83351  0.54901  1.0000
  H   H3158     1.0  0.97066  0.80284  0.39790  1.0000
  H   H3159     1.0  0.94633  0.78352  0.39720  1.0000
  C   C3945     1.0  0.82544  0.84577  0.39108  1.0000
  C   C3946     1.0  0.84290  0.83762  0.39728  1.0000
  C   C3947     1.0  0.85247  0.81949  0.39384  1.0000
  C   C3948     1.0  0.84483  0.80958  0.38381  1.0000
  C   C3949     1.0  0.82714  0.81755  0.37807  1.0000
  C   C3950     1.0  0.81732  0.83543  0.38194  1.0000
  H   H3160     1.0  0.84929  0.84560  0.40428  1.0000
  H   H3161     1.0  0.86622  0.81362  0.39803  1.0000
  C   C3951     1.0  0.70357  0.88364  0.54700  1.0000
  H   H3162     1.0  0.69485  0.91988  0.51097  1.0000
  H   H3163     1.0  0.89262  0.73588  0.33659  1.0000
  H   H3164     1.0  0.84029  0.83885  0.44597  1.0000
  C   C3952     1.0  0.54482  0.96689  0.31573  1.0000
  C   C3953     1.0  0.90174  0.74001  0.50187  1.0000
  C   C3954     1.0  0.49816  0.94140  0.31822  1.0000
  H   H3165     1.0  0.76435  0.81701  0.57970  1.0000
  H   H3166     1.0  0.80535  0.86071  0.43270  1.0000
  H   H3167     1.0  0.77877  0.95056  0.40435  1.0000
  H   H3168     1.0  0.71135  0.82541  0.33504  1.0000
  H   H3169     1.0  0.86538  0.81396  0.43344  1.0000
  H   H3170     1.0  0.50498  0.85552  0.30691  1.0000
  H   H3171     1.0  0.81137  0.89332  0.42065  1.0000
  C   C3955     1.0  0.75853  0.90031  0.49695  1.0000
  C   C3956     1.0  0.76465  0.90559  0.47765  1.0000
  C   C3957     1.0  0.75707  0.89939  0.46460  1.0000
  C   C3958     1.0  0.74312  0.88788  0.47053  1.0000
  C   C3959     1.0  0.73675  0.88265  0.48995  1.0000
  C   C3960     1.0  0.74453  0.88877  0.50315  1.0000
  H   H3172     1.0  0.77547  0.91446  0.47266  1.0000
  H   H3173     1.0  0.76198  0.90380  0.44994  1.0000
  H   H3174     1.0  0.72596  0.87372  0.49477  1.0000
  H   H3175     1.0  0.73998  0.88431  0.51803  1.0000
  C   C3961     1.0  0.76800  0.96116  0.57589  1.0000
  H   H3176     1.0  0.66027  0.83430  0.31078  1.0000
  C   C3962     1.0  0.68812  0.87964  0.33408  1.0000
  H   H3177     1.0  0.83189  0.73222  0.55418  1.0000
  H   H3178     1.0  0.92587  0.73735  0.47923  1.0000
  C   C3963     1.0  0.76743  0.96242  0.55687  1.0000
  C   C3964     1.0  0.54809  0.94277  0.58284  1.0000
  C   C3965     1.0  0.97128  0.74555  0.45353  1.0000
  Fe  Fe273     1.0  0.63919  0.89187  0.31552  1.0000
  H   H3179     1.0  0.76915  0.94966  0.55108  1.0000
  C   C3966     1.0  0.85348  0.82038  0.57182  1.0000
  C   C3967     1.0  0.84608  0.83982  0.56755  1.0000
  C   C3968     1.0  0.82623  0.84659  0.57152  1.0000
  C   C3969     1.0  0.81364  0.83394  0.57990  1.0000
  C   C3970     1.0  0.82102  0.81446  0.58390  1.0000
  C   C3971     1.0  0.84085  0.80769  0.57985  1.0000
  H   H3180     1.0  0.85577  0.84970  0.56127  1.0000
  H   H3181     1.0  0.82073  0.86160  0.56843  1.0000
  H   H3182     1.0  0.81138  0.80459  0.59042  1.0000
  H   H3183     1.0  0.84637  0.79269  0.58324  1.0000
  C   C3972     1.0  0.50422  0.82573  0.31015  1.0000
  C   C3973     1.0  0.96612  0.77069  0.58612  1.0000
  C   C3974     1.0  0.97932  0.78148  0.58784  1.0000
  H   H3184     1.0  0.54639  0.94882  0.55334  1.0000
  H   H3185     1.0  0.88463  0.77656  0.63161  1.0000
  H   H3186     1.0  0.68499  0.82455  0.59716  1.0000
  H   H3187     1.0  0.95153  0.77739  0.58489  1.0000
  H   H3188     1.0  0.97481  0.79650  0.58806  1.0000
  C   C3975     1.0  0.65153  0.87276  0.60208  1.0000
  H   H3189     1.0  0.75437  0.95306  0.62664  1.0000
  H   H3190     1.0  0.98245  0.79764  0.49267  1.0000
  C   C3976     1.0  0.67361  0.89523  0.62194  1.0000
  C   C3977     1.0  0.69210  0.88762  0.61357  1.0000
  H   H3191     1.0  0.95683  0.75009  0.45078  1.0000
  C   C3978     1.0  0.57287  0.95512  0.59144  1.0000
  C   C3979     1.0  0.51252  0.84195  0.30335  1.0000
  H   H3192     1.0  0.71735  0.86677  0.61774  1.0000
  H   H3193     1.0  0.66506  0.90664  0.61395  1.0000
  C   C3980     1.0  0.67575  0.93458  0.34142  1.0000
  H   H3194     1.0  0.96612  0.75143  0.35893  1.0000
  H   H3195     1.0  0.75799  0.93428  0.33847  1.0000
  H   H3196     1.0  0.95593  0.74419  0.53613  1.0000
  C   C3981     1.0  0.65421  0.94187  0.31901  1.0000
  C   C3982     1.0  0.71334  0.95795  0.35310  1.0000
  C   C3983     1.0  0.97758  0.78290  0.52103  1.0000
  C   C3984     1.0  0.95668  0.77421  0.30868  1.0000
  C   C3985     1.0  0.75625  0.96909  0.39121  1.0000
  C   C3986     1.0  0.56887  0.96079  0.55889  1.0000
  H   H3197     1.0  0.93466  0.73938  0.33367  1.0000
  C   C3987     1.0  0.65250  0.85819  0.61767  1.0000
  H   H3198     1.0  0.70936  0.78973  0.33003  1.0000
  C   C3988     1.0  0.72810  0.94276  0.34932  1.0000
  S   S549      1.0  0.56932  0.89978  0.31231  1.0000
  C   C3989     1.0  0.66508  0.84044  0.35378  1.0000
  Fe  Fe274     1.0  0.90470  0.74969  0.54632  1.0000
  C   C3990     1.0  0.66950  0.82209  0.55867  1.0000
  H   H3199     1.0  0.75551  0.80977  0.55165  1.0000
  S   S550      1.0  0.94994  0.74221  0.39970  1.0000
  H   H3200     1.0  0.65334  0.80116  0.55700  1.0000
  H   H3201     1.0  0.92917  0.78697  0.32266  1.0000
  P   P133      1.0  0.55098  0.93477  0.62112  1.0000
  C   C3991     1.0  0.68490  0.83494  0.35240  1.0000
  C   C3992     1.0  0.76629  0.97785  0.58308  1.0000
  C   C3993     1.0  0.50110  0.90153  0.63296  1.0000
  C   C3994     1.0  0.55312  0.95073  0.30780  1.0000
  H   H3202     1.0  0.64286  0.88646  0.60377  1.0000
  H   H3203     1.0  0.73860  0.76650  0.33554  1.0000
  C   C3995     1.0  0.70873  0.91454  0.63419  1.0000
  C   C3996     1.0  0.54163  0.95255  0.63589  1.0000
  C   C3997     1.0  0.70236  0.97441  0.60525  1.0000
  H   H3204     1.0  0.60597  0.83035  0.32742  1.0000
  C   C3998     1.0  0.77204  0.96512  0.40033  1.0000
  S   S551      1.0  0.86590  0.73724  0.45894  1.0000
  H   H3205     1.0  0.72135  0.96883  0.54938  1.0000
  H   H3206     1.0  0.69732  0.89029  0.38052  1.0000
  H   H3207     1.0  0.79163  0.97701  0.41084  1.0000
  C   C3999     1.0  0.90450  0.75481  0.31226  1.0000
  C   C4000     1.0  0.64249  0.92733  0.58235  1.0000
  C   C4001     1.0  0.53465  0.89558  0.30634  1.0000
  C   C4002     1.0  0.65627  0.83984  0.33889  1.0000
  H   H3208     1.0  0.60581  0.88218  0.61428  1.0000
  C   C4003     1.0  0.71030  0.87980  0.35486  1.0000
  H   H3209     1.0  0.70544  0.93422  0.32978  1.0000
  H   H3210     1.0  0.63660  0.91932  0.57489  1.0000
  S   S552      1.0  0.86538  0.73981  0.40577  1.0000
  C   C4004     1.0  0.69352  0.90674  0.52073  1.0000
  C   C4005     1.0  0.72252  0.79065  0.31996  1.0000
  S   S553      1.0  0.95635  0.73759  0.58216  1.0000
  C   C4006     1.0  0.97781  0.75386  0.32912  1.0000
  C   C4007     1.0  0.69856  0.97936  0.39278  1.0000
  H   H3211     1.0  0.87520  0.74210  0.52151  1.0000
  H   H3212     1.0  0.67236  0.89984  0.50802  1.0000
  C   C4008     1.0  0.67482  0.85264  0.58260  1.0000
  C   C4009     1.0  0.73901  0.77738  0.32305  1.0000
  H   H3213     1.0  0.58055  0.95678  0.60191  1.0000
  C   C4010     1.0  0.68524  0.97325  0.59995  1.0000
  H   H3214     1.0  0.66237  0.88180  0.57296  1.0000
  P   P134      1.0  0.73271  0.97395  0.46996  1.0000
  H   H3215     1.0  0.94289  0.74934  0.63426  1.0000
  C   C4011     1.0  0.67968  0.87816  0.53135  1.0000
  H   H3216     1.0  0.83271  0.77138  0.46420  1.0000
  H   H3217     1.0  0.66329  0.82248  0.57327  1.0000
  H   H3218     1.0  0.74173  0.83897  0.59869  1.0000
  C   C4012     1.0  0.97112  0.83315  0.45094  1.0000
  H   H3219     1.0  0.63986  0.94384  0.31608  1.0000
  C   C4013     1.0  0.71433  0.83945  0.56617  1.0000
  C   C4014     1.0  0.74651  0.94610  0.34100  1.0000
  H   H3220     1.0  0.59033  0.97070  0.56860  1.0000
  C   C4015     1.0  0.49129  0.96059  0.31902  1.0000
  H   H3221     1.0  0.71017  0.85357  0.59017  1.0000
  H   H3222     1.0  0.86150  0.78017  0.44261  1.0000
  C   C4016     1.0  0.67545  0.83797  0.59828  1.0000
  C   C4017     1.0  0.69140  0.87193  0.54515  1.0000
  C   C4018     1.0  0.73757  0.83547  0.58674  1.0000
  C   C4019     1.0  0.72983  0.93482  0.43916  1.0000
  C   C4020     1.0  0.71242  0.92897  0.44752  1.0000
  C   C4021     1.0  0.70118  0.93668  0.46287  1.0000
  C   C4022     1.0  0.70745  0.95012  0.46994  1.0000
  C   C4023     1.0  0.85792  0.79303  0.62536  1.0000
  C   C4024     1.0  0.73642  0.94779  0.44651  1.0000
  H   H3223     1.0  0.52974  0.89643  0.32108  1.0000
  Fe  Fe275     1.0  0.91779  0.74725  0.40113  1.0000
  C   C4025     1.0  0.70307  0.87273  0.62402  1.0000
  H   H3224     1.0  0.51300  0.93672  0.31228  1.0000
  S   S554      1.0  0.89932  0.76207  0.59618  1.0000
  Fe  Fe276     1.0  0.88116  0.74040  0.42866  1.0000
  C   C4026     1.0  0.74165  0.95770  0.63644  1.0000
  C   C4027     1.0  0.97639  0.78605  0.50194  1.0000
  C   C4028     1.0  0.53195  0.92125  0.62485  1.0000
  C   C4029     1.0  0.76938  0.95534  0.47415  1.0000
  H   H3225     1.0  0.74648  0.88585  0.31925  1.0000
  H   H3226     1.0  0.67002  0.92507  0.56401  1.0000
  C   C4030     1.0  0.72253  0.97013  0.53431  1.0000
  H   H3227     1.0  0.86452  0.80110  0.61243  1.0000
  H   H3228     1.0  0.67813  0.93071  0.35582  1.0000
  C   C4031     1.0  0.65818  0.94740  0.60202  1.0000
  C   C4032     1.0  0.67264  0.88681  0.34700  1.0000
  H   H3229     1.0  0.93553  0.77225  0.35467  1.0000
  H   H3230     1.0  0.64099  0.84472  0.33986  1.0000
  H   H3231     1.0  0.73828  0.92928  0.42694  1.0000
  H   H3232     1.0  0.70771  0.91847  0.44203  1.0000
  H   H3233     1.0  0.68755  0.93231  0.46913  1.0000
  H   H3234     1.0  0.69828  0.95654  0.48135  1.0000
  C   C4033     1.0  0.57269  0.91986  0.62742  1.0000
  H   H3235     1.0  0.68389  0.94253  0.58125  1.0000
  S   S555      1.0  0.62105  0.87193  0.31228  1.0000
  C   C4034     1.0  0.88199  0.74064  0.50725  1.0000
  H   H3236     1.0  0.71761  0.94188  0.53602  1.0000
  H   H3237     1.0  0.72311  0.94344  0.50178  1.0000
  C   C4035     1.0  0.72056  0.95485  0.52676  1.0000
  H   H3238     1.0  0.82930  0.80758  0.62261  1.0000
  H   H3239     1.0  0.58810  0.85859  0.30937  1.0000
  C   C4036     1.0  0.89240  0.75046  0.32953  1.0000
  H   H3240     1.0  0.57558  0.90231  0.60645  1.0000
  H   H3241     1.0  0.76241  0.94480  0.48428  1.0000
  H   H3242     1.0  0.61733  0.93054  0.60380  1.0000
  C   C4037     1.0  0.75040  0.82316  0.57594  1.0000
  P   P135      1.0  0.69065  0.84930  0.56063  1.0000
  C   C4038     1.0  0.87987  0.73784  0.47547  1.0000
  C   C4039     1.0  0.91949  0.78667  0.44510  1.0000
  C   C4040     1.0  0.90441  0.78506  0.46031  1.0000
  C   C4041     1.0  0.90788  0.78273  0.47864  1.0000
  C   C4042     1.0  0.92647  0.78117  0.48186  1.0000
  C   C4043     1.0  0.94182  0.78169  0.46672  1.0000
  C   C4044     1.0  0.93811  0.78522  0.44829  1.0000
  P   P136      1.0  0.96628  0.77763  0.47042  1.0000
  C   C4045     1.0  0.97565  0.79871  0.45834  1.0000
  C   C4046     1.0  0.96772  0.77412  0.49505  1.0000
  C   C4047     1.0  0.59905  0.89384  0.62168  1.0000
  H   H3243     1.0  0.79756  0.94067  0.47826  1.0000
  C   C4048     1.0  0.97015  0.76789  0.53332  1.0000
  C   C4049     1.0  0.96182  0.75577  0.52652  1.0000
  C   C4050     1.0  0.96086  0.75870  0.50741  1.0000
  C   C4051     1.0  0.69928  0.93008  0.62308  1.0000
  C   C4052     1.0  0.70680  0.87572  0.33823  1.0000
  H   H3244     1.0  0.54715  0.97697  0.61442  1.0000
  C   C4053     1.0  0.66907  0.94073  0.58586  1.0000
  C   C4054     1.0  0.96412  0.81653  0.45980  1.0000
  C   C4055     1.0  0.97964  0.75613  0.46240  1.0000
  C   C4056     1.0  0.58187  0.90516  0.61740  1.0000
  H   H3245     1.0  0.67230  0.79734  0.31299  1.0000
  C   C4057     1.0  0.72330  0.95596  0.50727  1.0000
  C   C4058     1.0  0.79861  0.96660  0.45802  1.0000
  C   C4059     1.0  0.94626  0.76947  0.34242  1.0000
  H   H3246     1.0  0.91693  0.78839  0.43086  1.0000
  H   H3247     1.0  0.89014  0.78523  0.45795  1.0000
  H   H3248     1.0  0.89644  0.78099  0.49057  1.0000
  H   H3249     1.0  0.92868  0.77892  0.49623  1.0000
  H   H3250     1.0  0.94980  0.78598  0.43642  1.0000
  C   C4060     1.0  0.71704  0.97657  0.34915  1.0000
  H   H3251     1.0  0.69918  0.95511  0.35974  1.0000
  H   H3252     1.0  0.64456  0.86051  0.63141  1.0000
  C   C4061     1.0  0.66123  0.93076  0.57606  1.0000
  C   C4062     1.0  0.89964  0.73702  0.47019  1.0000
  C   C4063     1.0  0.87972  0.76485  0.33774  1.0000
  H   H3253     1.0  0.66549  0.82971  0.62797  1.0000
  C   C4064     1.0  0.65725  0.93709  0.33759  1.0000
  H   H3254     1.0  0.98434  0.79204  0.52636  1.0000
  H   H3255     1.0  0.94968  0.81754  0.46774  1.0000
  H   H3256     1.0  0.71628  0.90695  0.31310  1.0000
  P   P137      1.0  0.66880  0.95904  0.61540  1.0000
  C   C4065     1.0  0.87919  0.78375  0.32898  1.0000
  Fe  Fe277     1.0  0.89071  0.78099  0.56993  1.0000
  C   C4066     1.0  0.69593  0.82882  0.33612  1.0000
  C   C4067     1.0  0.49861  0.92062  0.62453  1.0000
  H   H3257     1.0  0.87811  0.73431  0.30734  1.0000
  H   H3258     1.0  0.86939  0.79488  0.33551  1.0000
  C   C4068     1.0  0.71969  0.84372  0.58181  1.0000
  C   C4069     1.0  0.75032  0.96458  0.33689  1.0000
  Fe  Fe278     1.0  0.92620  0.75080  0.57731  1.0000
  C   C4070     1.0  0.72745  0.82720  0.55527  1.0000
  C   C4071     1.0  0.55745  0.94520  0.59675  1.0000
  C   C4072     1.0  0.92496  0.81512  0.51521  1.0000
  C   C4073     1.0  0.93666  0.82820  0.50559  1.0000
  C   C4074     1.0  0.92941  0.84402  0.49326  1.0000
  C   C4075     1.0  0.91047  0.84670  0.49048  1.0000
  C   C4076     1.0  0.89856  0.83363  0.50014  1.0000
  C   C4077     1.0  0.90592  0.81783  0.51266  1.0000
  P   P138      1.0  0.87408  0.83758  0.49637  1.0000
  C   C4078     1.0  0.85908  0.85548  0.50910  1.0000
  C   C4079     1.0  0.87471  0.84475  0.47131  1.0000
  C   C4080     1.0  0.86159  0.86014  0.46408  1.0000
  C   C4081     1.0  0.86244  0.86556  0.44462  1.0000
  C   C4082     1.0  0.87630  0.85562  0.43228  1.0000
  C   C4083     1.0  0.88958  0.84045  0.43937  1.0000
  C   C4084     1.0  0.88889  0.83512  0.45879  1.0000
  C   C4085     1.0  0.83907  0.85688  0.51236  1.0000
  C   C4086     1.0  0.82722  0.87067  0.52213  1.0000
  C   C4087     1.0  0.83528  0.88305  0.52886  1.0000
  C   C4088     1.0  0.85518  0.88157  0.52593  1.0000
  C   C4089     1.0  0.86707  0.86783  0.51611  1.0000
  C   C4090     1.0  0.86408  0.81615  0.50482  1.0000
  C   C4091     1.0  0.85797  0.81076  0.52418  1.0000
  C   C4092     1.0  0.85073  0.79396  0.53115  1.0000
  C   C4093     1.0  0.84966  0.78230  0.51884  1.0000
  C   C4094     1.0  0.85542  0.78771  0.49951  1.0000
  C   C4095     1.0  0.86231  0.80473  0.49246  1.0000
  H   H3259     1.0  0.93061  0.80296  0.52487  1.0000
  H   H3260     1.0  0.95131  0.82611  0.50785  1.0000
  H   H3261     1.0  0.93846  0.85425  0.48593  1.0000
  H   H3262     1.0  0.90504  0.85908  0.48091  1.0000
  H   H3263     1.0  0.89711  0.80761  0.52057  1.0000
  H   H3264     1.0  0.85078  0.86805  0.47336  1.0000
  H   H3265     1.0  0.85221  0.87736  0.43907  1.0000
  H   H3266     1.0  0.87673  0.85970  0.41722  1.0000
  H   H3267     1.0  0.90044  0.83281  0.42980  1.0000
  H   H3268     1.0  0.89942  0.82348  0.46407  1.0000
  H   H3269     1.0  0.83263  0.84720  0.50749  1.0000
  H   H3270     1.0  0.81177  0.87165  0.52474  1.0000
  H   H3271     1.0  0.82612  0.89362  0.53660  1.0000
  H   H3272     1.0  0.86138  0.89092  0.53155  1.0000
  H   H3273     1.0  0.88242  0.86676  0.51432  1.0000
  H   H3274     1.0  0.85909  0.81945  0.53393  1.0000
  H   H3275     1.0  0.84619  0.78994  0.54616  1.0000
  H   H3276     1.0  0.84452  0.76901  0.52429  1.0000
  H   H3277     1.0  0.85484  0.77853  0.48999  1.0000
  H   H3278     1.0  0.86669  0.80857  0.47748  1.0000
  C   C4096     1.0  0.70459  0.90098  0.53492  1.0000
  C   C4097     1.0  0.67142  0.80917  0.53056  1.0000
  C   C4098     1.0  0.68484  0.82053  0.52082  1.0000
  H   H3279     1.0  0.71230  0.87936  0.55781  1.0000
  H   H3280     1.0  0.71445  0.90962  0.53631  1.0000
  H   H3281     1.0  0.80739  0.79613  0.47698  1.0000
  H   H3282     1.0  0.66696  0.79976  0.52345  1.0000
  H   H3283     1.0  0.69078  0.81994  0.50614  1.0000
  C   C4099     1.0  0.77397  0.82458  0.43357  1.0000
  C   C4100     1.0  0.75493  0.82689  0.44276  1.0000
  C   C4101     1.0  0.75014  0.83259  0.46030  1.0000
  C   C4102     1.0  0.76436  0.83592  0.46874  1.0000
  C   C4103     1.0  0.78358  0.83357  0.45965  1.0000
  C   C4104     1.0  0.78818  0.82813  0.44182  1.0000
  P   P139      1.0  0.80250  0.83728  0.47029  1.0000
  C   C4105     1.0  0.80738  0.86112  0.46136  1.0000
  C   C4106     1.0  0.79610  0.83451  0.49566  1.0000
  C   C4107     1.0  0.78170  0.84802  0.50367  1.0000
  C   C4108     1.0  0.77798  0.84769  0.52304  1.0000
  C   C4109     1.0  0.78867  0.83391  0.53469  1.0000
  C   C4110     1.0  0.80295  0.82027  0.52694  1.0000
  C   C4111     1.0  0.80675  0.82059  0.50749  1.0000
  C   C4112     1.0  0.81045  0.87228  0.47343  1.0000
  C   C4113     1.0  0.81333  0.89094  0.46663  1.0000
  C   C4114     1.0  0.81355  0.89857  0.44763  1.0000
  C   C4115     1.0  0.81105  0.88745  0.43544  1.0000
  C   C4116     1.0  0.80775  0.86890  0.44229  1.0000
  C   C4117     1.0  0.82243  0.81929  0.46320  1.0000
  C   C4118     1.0  0.83881  0.82419  0.45072  1.0000
  C   C4119     1.0  0.85298  0.81011  0.44345  1.0000
  C   C4120     1.0  0.85079  0.79111  0.44845  1.0000
  C   C4121     1.0  0.83446  0.78613  0.46070  1.0000
  C   C4122     1.0  0.82030  0.80015  0.46803  1.0000
  H   H3284     1.0  0.77769  0.82057  0.41976  1.0000
  H   H3285     1.0  0.74383  0.82479  0.43604  1.0000
  H   H3286     1.0  0.73528  0.83513  0.46707  1.0000
  H   H3287     1.0  0.76008  0.84055  0.48215  1.0000
  H   H3288     1.0  0.80275  0.82665  0.43413  1.0000
  H   H3289     1.0  0.77398  0.85943  0.49477  1.0000
  H   H3290     1.0  0.76714  0.85848  0.52887  1.0000
  H   H3291     1.0  0.78609  0.83400  0.54968  1.0000
  H   H3292     1.0  0.81132  0.80975  0.53605  1.0000
  H   H3293     1.0  0.81834  0.81034  0.50180  1.0000
  H   H3294     1.0  0.81030  0.86689  0.48819  1.0000
  H   H3295     1.0  0.81495  0.89959  0.47623  1.0000
  H   H3296     1.0  0.81549  0.91311  0.44233  1.0000
  C   C4123     1.0  0.68095  0.89539  0.51904  1.0000
  C   C4124     1.0  0.78936  0.95301  0.47080  1.0000
  H   H3297     1.0  0.72545  0.92830  0.35335  1.0000
  C   C4125     1.0  0.66376  0.80997  0.54946  1.0000
  C   C4126     1.0  0.89131  0.78827  0.31191  1.0000
  C   C4127     1.0  0.69486  0.88730  0.36759  1.0000
  C   C4128     1.0  0.74540  0.81913  0.56014  1.0000
  H   H3298     1.0  0.97088  0.76563  0.54811  1.0000
  H   H3299     1.0  0.72233  0.90680  0.62822  1.0000
  H   H3300     1.0  0.66416  0.89584  0.37396  1.0000
  H   H3301     1.0  0.54469  0.96676  0.33046  1.0000
  S   S556      1.0  0.64870  0.89062  0.34326  1.0000
  C   C4129     1.0  0.75848  0.97123  0.46469  1.0000
  C   C4130     1.0  0.66269  0.87006  0.58461  1.0000
  H   H3302     1.0  0.89087  0.80296  0.30520  1.0000
  S   S557      1.0  0.73410  0.87477  0.35929  1.0000
  H   H3303     1.0  0.87033  0.76133  0.35101  1.0000
  C   C4131     1.0  0.63165  0.93367  0.59860  1.0000
  C   C4132     1.0  0.53418  0.90218  0.63379  1.0000
  H   H3304     1.0  0.70579  0.93400  0.60853  1.0000
  H   H3305     1.0  0.64533  0.93495  0.34899  1.0000
  C   C4133     1.0  0.96365  0.75750  0.34479  1.0000
  C   C4134     1.0  0.59831  0.82859  0.31699  1.0000
  C   C4135     1.0  0.72543  0.95528  0.46220  1.0000
  C   C4136     1.0  0.63952  0.94351  0.60852  1.0000
  H   H3306     1.0  0.85580  0.73980  0.49822  1.0000
  H   H3307     1.0  0.53661  0.93465  0.58635  1.0000
  H   H3308     1.0  0.65662  0.84596  0.36606  1.0000
  H   H3309     1.0  0.98852  0.73301  0.40491  1.0000
  H   H3310     1.0  0.76706  0.97694  0.59770  1.0000
  H   H3311     1.0  0.90652  0.73585  0.45588  1.0000
  C   C4137     1.0  0.68714  0.82790  0.32119  1.0000
  C   C4138     1.0  0.51393  0.93048  0.62057  1.0000
  C   C4139     1.0  0.59794  0.81046  0.31399  1.0000
  H   H3312     1.0  0.55944  0.93804  0.31643  1.0000
  H   H3313     1.0  0.74994  0.95216  0.43968  1.0000
  H   H3314     1.0  0.70590  0.96698  0.61870  1.0000
  H   H3315     1.0  0.70647  0.96654  0.38793  1.0000
  H   H3316     1.0  0.63125  0.94767  0.62148  1.0000
  H   H3317     1.0  0.81409  0.96479  0.45534  1.0000
  C   C4140     1.0  0.91058  0.73782  0.48345  1.0000
  H   H3318     1.0  0.51162  0.94540  0.61446  1.0000
  H   H3319     1.0  0.69893  0.96677  0.42180  1.0000
  C   C4141     1.0  0.98446  0.74826  0.40335  1.0000
  H   H3320     1.0  0.60526  0.79811  0.32222  1.0000
  C   C4142     1.0  0.66726  0.83383  0.32253  1.0000
  C   C4143     1.0  0.94271  0.77775  0.32438  1.0000
  H   H3321     1.0  0.96212  0.84684  0.45195  1.0000
  C   C4144     1.0  0.65051  0.97564  0.62724  1.0000
  C   C4145     1.0  0.83807  0.79666  0.63108  1.0000
  C   C4146     1.0  0.68142  0.94001  0.63055  1.0000
  C   C4147     1.0  0.54125  0.97199  0.62889  1.0000
  H   H3322     1.0  0.76479  0.96704  0.33124  1.0000
  C   C4148     1.0  0.74683  0.89873  0.30888  1.0000
  C   C4149     1.0  0.97428  0.76252  0.31103  1.0000
  C   C4150     1.0  0.86928  0.77895  0.63622  1.0000
  S   S558      1.0  0.61767  0.91763  0.30700  1.0000
  C   C4151     1.0  0.58851  0.84453  0.30670  1.0000
  Fe  Fe279     1.0  0.88598  0.74096  0.58758  1.0000
  C   C4152     1.0  0.51422  0.80822  0.30583  1.0000
  C   C4153     1.0  0.72733  0.97273  0.49516  1.0000
  H   H3323     1.0  0.50075  0.97085  0.31360  1.0000
  S   S559      1.0  0.91598  0.74231  0.51741  1.0000
  H   H3324     1.0  0.50793  0.79559  0.31139  1.0000
  H   H3325     1.0  0.76885  0.76790  0.31256  1.0000
  C   C4154     1.0  0.57849  0.96296  0.57259  1.0000
  C   C4155     1.0  0.98971  0.83207  0.44061  1.0000
  C   C4156     1.0  0.60734  0.89736  0.63575  1.0000
  C   C4157     1.0  0.66967  0.94396  0.30424  1.0000
  C   C4158     1.0  0.90391  0.77387  0.30352  1.0000
  C   C4159     1.0  0.72307  0.80497  0.30399  1.0000
  C   C4160     1.0  0.72975  0.91088  0.30556  1.0000
  C   C4161     1.0  0.69417  0.97939  0.41213  1.0000
  Fe  Fe280     1.0  0.60683  0.90656  0.69945  1.0000
  S   S560      1.0  0.61318  0.91825  0.72272  1.0000
  S   S561      1.0  0.57815  0.91835  0.69060  1.0000
  Fe  Fe281     1.0  0.64690  0.88356  0.69235  1.0000
  S   S562      1.0  0.65628  0.89320  0.71544  1.0000
  Fe  Fe282     1.0  0.62736  0.88823  0.73219  1.0000
  S   S563      1.0  0.61887  0.87682  0.76332  1.0000
  Fe  Fe283     1.0  0.64119  0.92227  0.70408  1.0000
  S   S564      1.0  0.65449  0.94902  0.69463  1.0000
  S   S565      1.0  0.61907  0.87636  0.70996  1.0000
  S   S566      1.0  0.63375  0.91270  0.67996  1.0000
  H   H3326     1.0  0.58014  0.87078  0.76583  1.0000
  C   C4162     1.0  0.67276  0.93342  0.64898  1.0000
  H   H3327     1.0  0.56475  0.85847  0.68015  1.0000
  H   H3328     1.0  0.61764  0.82212  0.81472  1.0000
  H   H3329     1.0  0.50262  0.80579  0.90589  1.0000
  C   C4163     1.0  0.63675  0.81456  0.78986  1.0000
  C   C4164     1.0  0.57529  0.80611  0.95982  1.0000
  C   C4165     1.0  0.60329  0.79634  0.77397  1.0000
  C   C4166     1.0  0.71213  0.75712  0.77247  1.0000
  Fe  Fe284     1.0  0.63278  0.77771  0.82978  1.0000
  H   H3330     1.0  0.62049  0.88849  0.63938  1.0000
  C   C4167     1.0  0.53462  0.83943  0.87211  1.0000
  C   C4168     1.0  0.72471  0.75401  0.84356  1.0000
  C   C4169     1.0  0.51271  0.82312  0.83869  1.0000
  H   H3331     1.0  0.51656  0.90307  0.68949  1.0000
  H   H3332     1.0  0.60165  0.80598  0.74471  1.0000
  C   C4170     1.0  0.71422  0.95038  0.65989  1.0000
  C   C4171     1.0  0.73609  0.73862  0.81629  1.0000
  H   H3333     1.0  0.61871  0.79518  0.77173  1.0000
  H   H3334     1.0  0.52696  0.73665  0.96942  1.0000
  C   C4172     1.0  0.50429  0.83488  0.89258  1.0000
  C   C4173     1.0  0.55101  0.84848  0.94912  1.0000
  C   C4174     1.0  0.56177  0.95391  0.74225  1.0000
  H   H3335     1.0  0.54509  0.83100  0.79850  1.0000
  C   C4175     1.0  0.59307  0.79191  0.79211  1.0000
  C   C4176     1.0  0.58113  0.92332  0.64149  1.0000
  P   P140      1.0  0.53769  0.79994  0.78355  1.0000
  H   H3336     1.0  0.56673  0.80834  0.74947  1.0000
  C   C4177     1.0  0.84088  0.77209  0.65854  1.0000
  S   S567      1.0  0.65375  0.76177  0.84848  1.0000
  C   C4178     1.0  0.64655  0.78107  0.91447  1.0000
  H   H3337     1.0  0.51563  0.87014  0.78284  1.0000
  C   C4179     1.0  0.60444  0.95998  0.68029  1.0000
  C   C4180     1.0  0.51097  0.75579  0.78433  1.0000
  C   C4181     1.0  0.56359  0.90260  0.68902  1.0000
  C   C4182     1.0  0.54387  0.90911  0.69073  1.0000
  C   C4183     1.0  0.56104  0.88159  0.82620  1.0000
  C   C4184     1.0  0.55892  0.87266  0.68294  1.0000
  C   C4185     1.0  0.57119  0.88432  0.68511  1.0000
  H   H3338     1.0  0.53793  0.92322  0.69369  1.0000
  H   H3339     1.0  0.58648  0.87924  0.68365  1.0000
  C   C4186     1.0  0.64853  0.96907  0.70599  1.0000
  C   C4187     1.0  0.63692  0.96909  0.72373  1.0000
  H   H3340     1.0  0.49762  0.81685  0.96571  1.0000
  H   H3341     1.0  0.57432  0.93435  0.64967  1.0000
  P   P141      1.0  0.57061  0.81524  0.93628  1.0000
  H   H3342     1.0  0.53078  0.74206  0.89505  1.0000
  H   H3343     1.0  0.63122  0.95649  0.73102  1.0000
  C   C4188     1.0  0.71765  0.74336  0.81165  1.0000
  H   H3344     1.0  0.56555  0.78943  0.80919  1.0000
  C   C4189     1.0  0.53019  0.74127  0.84637  1.0000
  C   C4190     1.0  0.64419  0.82115  0.77098  1.0000
  C   C4191     1.0  0.63863  0.84011  0.76257  1.0000
  C   C4192     1.0  0.62570  0.85269  0.77306  1.0000
  C   C4193     1.0  0.61812  0.84606  0.79188  1.0000
  C   C4194     1.0  0.62356  0.82705  0.80024  1.0000
  H   H3345     1.0  0.65436  0.81156  0.76283  1.0000
  H   H3346     1.0  0.64456  0.84507  0.74808  1.0000
  H   H3347     1.0  0.60809  0.85569  0.80006  1.0000
  C   C4195     1.0  0.66050  0.78644  0.92169  1.0000
  C   C4196     1.0  0.66143  0.78152  0.94088  1.0000
  C   C4197     1.0  0.64834  0.77123  0.95327  1.0000
  H   H3348     1.0  0.51323  0.92786  0.75322  1.0000
  H   H3349     1.0  0.67085  0.79433  0.91235  1.0000
  H   H3350     1.0  0.67248  0.78567  0.94614  1.0000
  C   C4198     1.0  0.68430  0.74124  0.88896  1.0000
  C   C4199     1.0  0.53563  0.78009  0.93176  1.0000
  C   C4200     1.0  0.54801  0.76704  0.92149  1.0000
  C   C4201     1.0  0.56733  0.76855  0.91569  1.0000
  C   C4202     1.0  0.57427  0.78317  0.92011  1.0000
  C   C4203     1.0  0.56172  0.79683  0.92972  1.0000
  C   C4204     1.0  0.54244  0.79491  0.93592  1.0000
  C   C4205     1.0  0.52833  0.85906  0.92112  1.0000
  H   H3351     1.0  0.52618  0.78084  0.86510  1.0000
  C   C4206     1.0  0.59112  0.82218  0.91967  1.0000
  H   H3352     1.0  0.50715  0.82830  0.85178  1.0000
  H   H3353     1.0  0.56472  0.91053  0.73115  1.0000
  C   C4207     1.0  0.62288  0.83317  0.89382  1.0000
  C   C4208     1.0  0.60890  0.82667  0.88771  1.0000
  C   C4209     1.0  0.59300  0.82130  0.90053  1.0000
  H   H3354     1.0  0.89494  0.78104  0.72315  1.0000
  H   H3355     1.0  0.83406  0.76425  0.67144  1.0000
  C   C4210     1.0  0.90234  0.75847  0.70693  1.0000
  C   C4211     1.0  0.63301  0.77111  0.92682  1.0000
  H   H3356     1.0  0.70390  0.85380  0.65066  1.0000
  C   C4212     1.0  0.73953  0.74375  0.83231  1.0000
  H   H3357     1.0  0.53525  0.79293  0.89113  1.0000
  Fe  Fe285     1.0  0.63352  0.77500  0.87162  1.0000
  C   C4213     1.0  0.53906  0.87920  0.68496  1.0000
  C   C4214     1.0  0.50713  0.73661  0.91734  1.0000
  H   H3358     1.0  0.81415  0.78916  0.65211  1.0000
  H   H3359     1.0  0.52078  0.77861  0.93669  1.0000
  H   H3360     1.0  0.54260  0.75575  0.91809  1.0000
  H   H3361     1.0  0.57693  0.75842  0.90772  1.0000
  H   H3362     1.0  0.58941  0.78375  0.91599  1.0000
  H   H3363     1.0  0.55762  0.76181  0.79827  1.0000
  C   C4215     1.0  0.65109  0.97852  0.64529  1.0000
  C   C4216     1.0  0.51544  0.77392  0.78160  1.0000
  H   H3364     1.0  0.63556  0.83658  0.88398  1.0000
  H   H3365     1.0  0.61073  0.82529  0.87310  1.0000
  H   H3366     1.0  0.58238  0.81624  0.89548  1.0000
  C   C4217     1.0  0.54229  0.88080  0.82490  1.0000
  H   H3367     1.0  0.90637  0.73793  0.68896  1.0000
  C   C4218     1.0  0.54018  0.74234  0.79665  1.0000
  C   C4219     1.0  0.82955  0.78626  0.64770  1.0000
  H   H3368     1.0  0.52587  0.81506  0.71807  1.0000
  H   H3369     1.0  0.64224  0.74972  0.79838  1.0000
  H   H3370     1.0  0.63164  0.83977  0.91740  1.0000
  H   H3371     1.0  0.52183  0.88478  0.80682  1.0000
  C   C4220     1.0  0.52994  0.80802  0.88827  1.0000
  C   C4221     1.0  0.59392  0.79815  0.96308  1.0000
  C   C4222     1.0  0.55083  0.95130  0.76027  1.0000
  S   S568      1.0  0.61407  0.79298  0.85219  1.0000
  C   C4223     1.0  0.50763  0.88351  0.77693  1.0000
  C   C4224     1.0  0.57319  0.79311  0.79499  1.0000
  H   H3372     1.0  0.57505  0.94127  0.71787  1.0000
  C   C4225     1.0  0.51131  0.83727  0.73356  1.0000
  C   C4226     1.0  0.52674  0.83143  0.82544  1.0000
  C   C4227     1.0  0.53414  0.82452  0.80862  1.0000
  H   H3373     1.0  0.54372  0.84862  0.86266  1.0000
  H   H3374     1.0  0.61564  0.95172  0.68778  1.0000
  H   H3375     1.0  0.56001  0.84486  0.95978  1.0000
  C   C4228     1.0  0.89757  0.75083  0.69308  1.0000
  H   H3376     1.0  0.53265  0.93196  0.65998  1.0000
  H   H3377     1.0  0.57677  0.74131  0.84843  1.0000
  C   C4229     1.0  0.70955  0.78928  0.74407  1.0000
  S   S569      1.0  0.64389  0.79048  0.79965  1.0000
  C   C4230     1.0  0.54494  0.93388  0.76795  1.0000
  H   H3378     1.0  0.68879  0.75836  0.81921  1.0000
  H   H3379     1.0  0.50130  0.80554  0.70011  1.0000
  C   C4231     1.0  0.56338  0.79878  0.77967  1.0000
  H   H3380     1.0  0.53211  0.84301  0.82829  1.0000
  C   C4232     1.0  0.93032  0.74277  0.63669  1.0000
  H   H3381     1.0  0.72735  0.75791  0.85601  1.0000
  C   C4233     1.0  0.53295  0.76828  0.85916  1.0000
  C   C4234     1.0  0.56146  0.74603  0.84976  1.0000
  C   C4235     1.0  0.66620  0.88830  0.64070  1.0000
  C   C4236     1.0  0.54943  0.89044  0.79093  1.0000
  C   C4237     1.0  0.67298  0.74380  0.79497  1.0000
  C   C4238     1.0  0.52297  0.81979  0.73149  1.0000
  H   H3382     1.0  0.60322  0.83130  0.94000  1.0000
  H   H3383     1.0  0.72692  0.77289  0.78482  1.0000
  Fe  Fe286     1.0  0.59862  0.76815  0.85934  1.0000
  C   C4239     1.0  0.53809  0.96946  0.70464  1.0000
  S   S570      1.0  0.66790  0.86394  0.67456  1.0000
  C   C4240     1.0  0.55398  0.87841  0.75403  1.0000
  C   C4241     1.0  0.56804  0.89185  0.79251  1.0000
  C   C4242     1.0  0.57387  0.88719  0.81000  1.0000
  C   C4243     1.0  0.57378  0.80357  0.76152  1.0000
  C   C4244     1.0  0.57231  0.86806  0.75611  1.0000
  C   C4245     1.0  0.58106  0.85402  0.74531  1.0000
  C   C4246     1.0  0.57152  0.84995  0.73250  1.0000
  C   C4247     1.0  0.55321  0.85997  0.73046  1.0000
  C   C4248     1.0  0.54461  0.87436  0.74089  1.0000
  H   H3384     1.0  0.57819  0.89648  0.78017  1.0000
  H   H3385     1.0  0.58843  0.88794  0.81088  1.0000
  H   H3386     1.0  0.50727  0.74864  0.92361  1.0000
  H   H3387     1.0  0.59539  0.84646  0.74682  1.0000
  H   H3388     1.0  0.57838  0.83921  0.72399  1.0000
  H   H3389     1.0  0.54576  0.85682  0.72056  1.0000
  H   H3390     1.0  0.53069  0.88232  0.73850  1.0000
  C   C4249     1.0  0.55289  0.83662  0.93594  1.0000
  H   H3391     1.0  0.54328  0.83340  0.91120  1.0000
  H   H3392     1.0  0.53955  0.79475  0.74502  1.0000
  C   C4250     1.0  0.60474  0.82966  0.92551  1.0000
  C   C4251     1.0  0.52165  0.75784  0.85356  1.0000
  C   C4252     1.0  0.69505  0.75453  0.89008  1.0000
  C   C4253     1.0  0.54198  0.73795  0.96617  1.0000
  C   C4254     1.0  0.88159  0.75976  0.68461  1.0000
  H   H3393     1.0  0.53269  0.80467  0.94418  1.0000
  S   S571      1.0  0.61597  0.75393  0.83563  1.0000
  Fe  Fe287     1.0  0.63559  0.73923  0.85623  1.0000
  H   H3394     1.0  0.73566  0.92950  0.64690  1.0000
  C   C4255     1.0  0.55000  0.91895  0.75763  1.0000
  P   P142      1.0  0.71287  0.73668  0.79111  1.0000
  H   H3395     1.0  0.70823  0.80185  0.73331  1.0000
  C   C4256     1.0  0.58077  0.74093  0.95868  1.0000
  C   C4257     1.0  0.70200  0.77358  0.74305  1.0000
  H   H3396     1.0  0.67576  0.91310  0.67443  1.0000
  H   H3397     1.0  0.75367  0.73967  0.83605  1.0000
  H   H3398     1.0  0.60063  0.78754  0.80394  1.0000
  H   H3399     1.0  0.91326  0.76180  0.65466  1.0000
  H   H3400     1.0  0.53655  0.93200  0.78199  1.0000
  C   C4258     1.0  0.56659  0.93921  0.73184  1.0000
  C   C4259     1.0  0.53078  0.80843  0.74673  1.0000
  S   S572      1.0  0.56635  0.77489  0.86594  1.0000
  H   H3401     1.0  0.50463  0.82970  0.93175  1.0000
  C   C4260     1.0  0.49172  0.82840  0.67877  1.0000
  H   H3402     1.0  0.69516  0.97391  0.67028  1.0000
  H   H3403     1.0  0.49869  0.96836  0.64036  1.0000
  C   C4261     1.0  0.51600  0.84686  0.88017  1.0000
  H   H3404     1.0  0.49771  0.75398  0.78100  1.0000
  H   H3405     1.0  0.86664  0.79694  0.70841  1.0000
  C   C4262     1.0  0.59000  0.96858  0.65234  1.0000
  H   H3406     1.0  0.60587  0.79718  0.95154  1.0000
  S   S573      1.0  0.61654  0.75148  0.88066  1.0000
  C   C4263     1.0  0.71138  0.74864  0.89846  1.0000
  H   H3407     1.0  0.54705  0.96272  0.76832  1.0000
  C   C4264     1.0  0.72001  0.77282  0.77322  1.0000
  S   S574      1.0  0.52327  0.86431  0.68391  1.0000
  C   C4265     1.0  0.86084  0.76815  0.65273  1.0000
  H   H3408     1.0  0.64965  0.73581  0.91488  1.0000
  C   C4266     1.0  0.87043  0.77642  0.69030  1.0000
  C   C4267     1.0  0.50574  0.97157  0.72235  1.0000
  C   C4268     1.0  0.54165  0.84214  0.92177  1.0000
  H   H3409     1.0  0.49332  0.77340  0.89832  1.0000
  C   C4269     1.0  0.70297  0.75403  0.82280  1.0000
  H   H3410     1.0  0.69060  0.76939  0.88454  1.0000
  C   C4270     1.0  0.56070  0.92177  0.73943  1.0000
  C   C4271     1.0  0.91353  0.74971  0.64830  1.0000
  C   C4272     1.0  0.50639  0.91588  0.76027  1.0000
  C   C4273     1.0  0.68237  0.91800  0.66012  1.0000
  C   C4274     1.0  0.87526  0.78404  0.70415  1.0000
  H   H3411     1.0  0.85805  0.78363  0.68407  1.0000
  C   C4275     1.0  0.70649  0.75929  0.83871  1.0000
  C   C4276     1.0  0.69544  0.86542  0.64266  1.0000
  C   C4277     1.0  0.50603  0.80793  0.83511  1.0000
  H   H3412     1.0  0.59009  0.97371  0.70351  1.0000
  C   C4278     1.0  0.53754  0.86528  0.94854  1.0000
  C   C4279     1.0  0.60449  0.95790  0.66193  1.0000
  H   H3413     1.0  0.69502  0.76742  0.84729  1.0000
  S   S575      1.0  0.64685  0.78766  0.88996  1.0000
  H   H3414     1.0  0.52060  0.87772  0.64473  1.0000
  C   C4280     1.0  0.62073  0.83481  0.91268  1.0000
  C   C4281     1.0  0.51144  0.81538  0.89655  1.0000
  C   C4282     1.0  0.73099  0.94441  0.64774  1.0000
  H   H3415     1.0  0.50628  0.76228  0.85530  1.0000
  H   H3416     1.0  0.51973  0.86332  0.91015  1.0000
  C   C4283     1.0  0.50740  0.84340  0.75085  1.0000
  C   C4284     1.0  0.54155  0.82000  0.87611  1.0000
  H   H3417     1.0  0.71972  0.75896  0.89932  1.0000
  H   H3418     1.0  0.55589  0.81414  0.86970  1.0000
  C   C4285     1.0  0.59365  0.80231  0.75871  1.0000
  H   H3419     1.0  0.52379  0.94549  0.71617  1.0000
  C   C4286     1.0  0.54476  0.76042  0.79392  1.0000
  C   C4287     1.0  0.52769  0.80906  0.80508  1.0000
  H   H3420     1.0  0.58994  0.96684  0.63818  1.0000
  H   H3421     1.0  0.50597  0.83153  0.67291  1.0000
  P   P143      1.0  0.54236  0.89661  0.76800  1.0000
  C   C4288     1.0  0.53647  0.88522  0.80735  1.0000
  C   C4289     1.0  0.53248  0.77637  0.78624  1.0000
  H   H3422     1.0  0.51583  0.88363  0.93409  1.0000
  H   H3423     1.0  0.55093  0.96072  0.69852  1.0000
  H   H3424     1.0  0.70743  0.89623  0.66123  1.0000
  H   H3425     1.0  0.61575  0.94795  0.65525  1.0000
  H   H3426     1.0  0.49791  0.85672  0.75253  1.0000
  C   C4290     1.0  0.51535  0.83220  0.76607  1.0000
  C   C4291     1.0  0.89120  0.77509  0.71245  1.0000
  H   H3427     1.0  0.56658  0.96728  0.73634  1.0000
  C   C4292     1.0  0.89724  0.74117  0.65141  1.0000
  H   H3428     1.0  0.59568  0.74234  0.95612  1.0000
  H   H3429     1.0  0.70577  0.94015  0.66856  1.0000
  C   C4293     1.0  0.52732  0.81471  0.76405  1.0000
  C   C4294     1.0  0.55285  0.76233  0.85740  1.0000
  C   C4295     1.0  0.52328  0.74002  0.79192  1.0000
  H   H3430     1.0  0.65852  0.93991  0.65480  1.0000
  C   C4296     1.0  0.51347  0.80091  0.81837  1.0000
  H   H3431     1.0  0.56565  0.87803  0.83973  1.0000
  C   C4297     1.0  0.70832  0.96959  0.66101  1.0000
  H   H3432     1.0  0.62202  0.76711  0.92140  1.0000
  H   H3433     1.0  0.72436  0.80111  0.75994  1.0000
  C   C4298     1.0  0.51683  0.89912  0.76903  1.0000
  C   C4299     1.0  0.52271  0.96070  0.71467  1.0000
  H   H3434     1.0  0.50514  0.84598  0.72179  1.0000
  C   C4300     1.0  0.63396  0.76611  0.94626  1.0000
  P   P144      1.0  0.87560  0.74982  0.66662  1.0000
  H   H3435     1.0  0.53221  0.87687  0.83748  1.0000
  C   C4301     1.0  0.56715  0.75431  0.96758  1.0000
  H   H3436     1.0  0.50831  0.78895  0.81602  1.0000
  C   C4302     1.0  0.53169  0.89757  0.68853  1.0000
  C   C4303     1.0  0.52617  0.87055  0.93458  1.0000
  H   H3437     1.0  0.62370  0.75826  0.95575  1.0000
  H   H3438     1.0  0.69718  0.74554  0.75631  1.0000
  C   C4304     1.0  0.70033  0.90855  0.65274  1.0000
  C   C4305     1.0  0.71661  0.72955  0.90621  1.0000
  H   H3439     1.0  0.51748  0.95549  0.68032  1.0000
  C   C4306     1.0  0.52449  0.96013  0.66611  1.0000
  H   H3440     1.0  0.60473  0.91465  0.65661  1.0000
  C   C4307     1.0  0.53312  0.94679  0.65454  1.0000
  C   C4308     1.0  0.71863  0.78886  0.75910  1.0000
  H   H3441     1.0  0.50531  0.78598  0.77629  1.0000
  C   C4309     1.0  0.70334  0.75752  0.75714  1.0000
  C   C4310     1.0  0.52050  0.73278  0.90138  1.0000
  H   H3442     1.0  0.65202  0.89439  0.64702  1.0000
  H   H3443     1.0  0.51091  0.86191  0.87671  1.0000
  C   C4311     1.0  0.55011  0.73542  0.84444  1.0000
  H   H3444     1.0  0.67410  0.75850  0.78943  1.0000
  H   H3445     1.0  0.69484  0.77398  0.73147  1.0000
  H   H3446     1.0  0.51182  0.83712  0.77939  1.0000
  H   H3447     1.0  0.53606  0.87428  0.95887  1.0000
  C   C4312     1.0  0.67709  0.87335  0.65115  1.0000
  H   H3448     1.0  0.49368  0.96480  0.72969  1.0000
  H   H3449     1.0  0.54746  0.89494  0.63842  1.0000
  H   H3450     1.0  0.67171  0.74583  0.88237  1.0000
  H   H3451     1.0  0.49533  0.80128  0.84544  1.0000
  C   C4313     1.0  0.58993  0.97265  0.68914  1.0000
  C   C4314     1.0  0.65477  0.73889  0.80018  1.0000
  C   C4315     1.0  0.59847  0.91217  0.64549  1.0000
  Fe  Fe288     1.0  0.49331  0.87773  0.69558  1.0000
  S   S576      1.0  0.49052  0.89013  0.72142  1.0000
  H   H3452     1.0  0.66274  0.97114  0.65257  1.0000
  H   H3453     1.0  0.91471  0.75152  0.71336  1.0000
  H   H3454     1.0  0.74785  0.73089  0.80767  1.0000
  C   C4316     1.0  0.51885  0.89236  0.63762  1.0000
  H   H3455     1.0  0.54934  0.73014  0.80315  1.0000
  C   C4317     1.0  0.86319  0.73021  0.67766  1.0000
  H   H3456     1.0  0.84715  0.73330  0.65520  1.0000
  C   C4318     1.0  0.68940  0.72999  0.79740  1.0000
  C   C4319     1.0  0.52421  0.97940  0.65918  1.0000
  C   C4320     1.0  0.73592  0.97691  0.63774  1.0000
