data_image0
_chemical_formula_structural       FeS2FeSFeSFeS3CHSHC2HSC4HSC8SHC6H4C6H2CHSC2HCH4FeH2CHCH4FeC2HCHCHCH2CHC2HCSCPH3CH4CPC2HC4HC3HCHCH2C2HC3HCFeH2CH3CHC2HCHSH2C3HC2FeHC3HC2H4CH2CHC3HFeSCHCHC2SHCH5CHC2SPHCHC2H2C2HCHCHCHCHC2HC4SHCH3FeCH3CH4C5H2PCSCHCHC2SCFeSHC2S2CHFeS2CFeSFeS2CSCHFeS2FeSFeS2HFeS2C6H4FeH2C6H4CSC5H2C6H4FeHC2H2C6H4CH2C3HC2HC6H2PHCH2PSC3HC2HC2H2CSCSCSFeCHC4H3CHCHCHC2HCHCH2C6PC7SHSHC3HC3H10CHSH4FeH2C2H3CHC9PFeC6HCHC4H5C2H4SHFeH3C4HCH4C2SH2SCHCHCFeC3HCHCH3C2H5C3HC2H3C3HCHCH2C3HCH4C2HSHC2H4C5HC3HCH2CH2C2HCHC2H3CSC2HC4H5CH2CHC5H2CSC3HFePH7CH2C8HSC3H2CH5CH2CSC2HCH2CHCPH2CH3C4HC2FeSCFeS2FeS2FeSFeS3HSCFeS2FeS2FeSFeS3CHC3HCSHCSFeS2FeS2FeSFeS3CSCFeSC7H4C6H4C6H8CH2CH2CHC6H5C3H4CH2C6H4C4HCH3C7H4C2H3CHC8H8PC9HC8HCH6C2SHC2H3C4PC14HC3H18C5HCH2SC2HC3H2CH4CH2C2HCSH3C2H3C2HCHC3H2CH3CHCFeC5HC6PC18HCH19C7HC2HC2H3CHC5HC5H4CHC2H4C15H2C4H4SHCH3C2HCHC2H3CHC2HCHC2H5CHC6HC3HC8HCH2C2H3CHC3H3C3H2C2H2C5H2CSHC2HCHCPH3CH2PH2CH3CH2C2H2C2HC4H3CHC2HC3HC2H3SC3H4C3H2C2H3C2HC5HC2PHCHCHC2PC2H2C2H2C2H5SC4HPHC2HC4HC6H2C2PCH2CPC2HFeCHPC2HFeCHC4PCPCH4C2HSH2C4HCH6CFeH7C3HSC2H2C3HC3HCFeS2FeS2FeCFeS3HS2FeSFeSCHS2CHSC3HSHSC4HCH2C8H4C6H4CHC2H2C2SC3HCH8C3HCH2CH4CH2C2HFeH3C2H2C10SCHCHC2H2C9PC18H22CHCHFeSC3HSH3CH3CH2CH2CHCPFeSCHCHCHC3HFeCHCHFeH2CHCH2CHFeC11H2CPCH2CH4CH2CHC3H2C2H3PCHCHCHFeS2FeS2FeSFeS3CFeCSFeH3S2CSC2H2FeC2HC2HCH3C4HCH2CHC6H4C3H2CH3CHCSH3C6HC4H4CHC4SH3CH2CHCSCHC3H4C6HC2HC7PC18HCSH17C2HCHC5HCHC7H3CHFeC3H2C2HC3HC2H3C3HPCHCHCHCHCHC4H4PH2C8PC4H3C11HCHC2H8C3H3CHC10HC3H3CHCH3C4SCHCH2C2HC3H3PC2H5CH4C4HPH2CHCHCHC2H2CH2C2SCHFeS2FeSCFeSFeS3HSH2FeSCH3SFeSFeSFeS2FeSHFeSFeS3FeS2FeS2FeSFeS3HCH2C5H4C5HCHFeC6H4C6H4CHC6H4C6H4C6H4C7H3C6H4CHCH2SH4CH2CH2CH2CHC4HCHPHCHCHCH2C2HC6HC2SCH2CH2CHSCH5CSHC3H2CHCH2C4H2CHC3H2CH4CH2CSC7HC2H3CH6PCH2C4HC3H6C3HC4HC2H2C3H4C2H3C3H2C6PC18H21CS2CHC2SCFeC2H4C3HC4H2C7PC9HC8H13CH6CPCPCHC2HC3HCPC4H2SCHFeCHCSHCHC3HC2PH2FeC2H4CH2C5HCSCHCFeS2FeS2Fe2S3FeS2FeSHFeSFeS3C2HPSC4HFeS2FeS2FeSFeS3FeS2H3FeSH2SHCH2C4H3C2HC6H3C6H4PCHC8H5C6H5C3HC5H2C6H4C6H4CHC6H3SHC4H6C4H4C2HSCPC3HC2H4C2H5C3HC2H5CHCHPHC3HCH2CFeC6H2CHCHC2H2CH3C4HC7H2C11HC2HC6H3CH6C3H3C2HPCHCSH2C4H2CHC4HCHC3H3C3HC4HC9H5CH2PCHC2H2CHC4PC18H2CH17C2HC3H3CHC2HC2HC3HC2HC4HC2H2C3H3CH2CH2C2HC3H3PFeH3CHCHC2H3C6H6C2SC2SHC2H3CHCH3C5HC3PCHCH2C6HC2HCH2C3HSH3C2HC4H2C2HC5HCH4C2HC5HPCH3C2H2C2H3CH2C3H3C2H2SCH2CHC7H2CSC4HC3H2C4H4C2PC3FeC3HC2HPHCHC3HCH2C2PH2C3H2CH2CH2CHC2H2CH2CFeCHCHCFeSFeS2FeSFeS3FeSHCHFeSCHS2C2FeS2HC2HSFeSHS3H2C2PHCFeCH2C6HC3H3C8H5C2H2C6H4C6H5C2H2C3HC2H2PCH2C2H3C2HCH2SH2CHCPC3PSH2CHCHPC18HSH4CH3SC2H4C3H2FeC3HC4H3CH2CHC3H2C5H2CHCHCHCHC5H3CH3C2H5CH4CHCHCH3C4HC4HCHC3HCH2FeCH4PCHFeCH2CH2C3HCH3C6PC18HC2SH3C2HFeCHC4HCSHCHC2H3CHCHSHC2SHC3H4C4H2CSH3CHCHC3HCFeS2FeS2FeSFeS3HSCHSFeH3C3SFeS5HCH2SHC2H3FeHSHFeS2C2HC3SC4H6C3H2CHC2H2C10H4C6H4C6H4C6H4C5SHC6H2C3H5C2H3C2H3FePC19H2C2H8C2HCH4C6HCH3CHC7PC17H18SC3H2CHCSHPH2FeHCHCHCH2C3HC2H2C2H2C2FeCSCHCH2C2H3C2HC4HC4PC19SH6PH12C2H3FeC4SHCFeC5H2C2HC5SCHC3HCSC2FeCH3SCHCSH2CHCHCHC6FeCHFeC2HC6PC18H21SCH2C8H2CH3C4HPH2C2H2C2S2H2SHCSHFeCFeSCHCH2C2HFeHCH2CH2CFeS2HC4HCH2CH2C3HSHCHC7H3CH2CSCH4CH2CSC2HSCH3CPCH2CHC4HC3HC2HCHC2FeHC4H2SCH2C2H2C2H2PCHSHCP2S2C2SHFeSFeSCH4FeSHCHC2H4CFeS2FeS2FeSFeS3CHSC7H4C6H4CSC2HCHC6H4FeC7H8C4SCHC2HC2HCHC5SHC3FeCH2C6HC3SCH2C2HC2HCFeH4CFeCHSC6PC3H2C11H6FeCH7CHC6H6C3H7CHCH4SH4CHC2PC18SCHCH3C3H10C6PC14H13C3HCHCH6C2H2C3HCHCH2SH2CHCH2C2PCHC4H2C2SCHC2H2SC2PCHCH4CHCHC3HCH2C2H4C3H2CHSC2HCH2CSFeC5H3C3H4CHCH2FeHSCHCHCHC3HC2H2CH2P2C3H3CH4C2HCFeCH2FeS2CHC2H2SHFeCHC3SCHSCHC7H4CSCSC2H5CH2CH2CFeC2HCH3CH2CH2CHC2HC7H2C6H3CFeHCH2C3H3CHC2PCHSC3H2CHCH2FeC5HSCH3C4SHCHCHCH2SC2HCHSH3PSC2H2SHFe2H2C4HCH2CH3FeCHCHCSH3C2HCH3CH3CH2CFeS2FeS2FeSFeS3FeSFeS2FeSFeS3HSCFeCSC3SC2H2FeSFeS2FeS2FeSFeHS2C2HCFeS2FeS2FeSFeS3H2SHSC2H2C7H2CSC6H4C8H4C11H4C6H2C6H4C6H4C6H4C6H4C4H3C6H4CHC5H2CPC7HSC5HCH3SPH3C8PC18H20C2HCHC2H4C6H9CH3PHCH2C4HCHC2HCHC2H2C2HCHCHC2H5PCHCHCHC3S2PC6HSH2CFePHCH3CFeCH3CHC7PC18H24CH2C3H3CH5C4HC2HSCH2C3HC2HCH2FeHC2HC3HSH3C3H2C3HSC2FeC2H2CH3CHSHCFeCHPC3HC3HCFeSC3HCHC2SCH3SCHC2PCHCH2CH4CHC4H2C9H3C2H2C7HCHCHFeC2H3C2H3CHCSC2H2SHC2HC2HC2HC4H2CHCHC4H3PCSH2CHCPC3H2CHFeCHCH2C6H2C3HPCHC3H2C5H3CHCFeC2HC2HCHC3H2C2HC3H4CHC3SH2CHC2HC2H5CPCHCHCHC4SHC3H2C3HSHC2H3CH2C2HCHFeCHC2HC4H3C2H3C5H3CH3FeS2FeS2FeSFeS3C3SHFeS2FeS2FeSFeS3HFeS2CFeHSFeHSFeHCFeCH2S2HSCHSH2FeHSCPH2FeSCSC5HC4H3C3HCH2C2H4SH2C2PCHC3H2CHSC2PHCHCHC2HCHCH3CSC6H4C6H4C6H4C6H4C6H4C6H4C4HC2H2CH2C2H3CH6CH3FeHCHCHC4HCH3CH2C2HCHC3H3C6HFeC7PC8H2C8H11C3H6C7H5CHC6PC3HC8FeC4H3CHCH2C2H2CH4C7PCHCSC2HC7H6C3H8CPC3H5CHC5H2CH2C2PCH9C3HC2PC11H9C2HCHCH3C2H3CHCHC2HS2FeCHC3HC3HCSCH4CHC2H2C5HC2HCSC3PHC2H2CSCHCHCH2C8PC5FeC6H2CHC2HCH2CHC4H2CHC3HC3S2HC2H2SCFeHCH3CH2C2H3SH2CHC2S2FeS2FeS2FeHFeS3FeS2FeS2FeSFeS3HSCHPFeHSHC2SC6H4C6H4C6H4CHCSC2H2C6H3C7H2C5H2CHCH2CHC2HC2HC2HC2HCFeHC2HC2HCHCHC2H2CH3CH2C2SHFeC3H4CHC2HC4H2CH3CHC5H3CHCH2CHCSC4HC4FeC6H2C3SC6PC16H18C6PC18H7CH12C2HPC4HCH3CH2PC3SCH2CH3CHCHC3HCHFeC2HC2HCH2C5H3C2H4CH2CSC4HSC2H2C2H2CS2H2CHPCH3FeCHCH6CPH2CHC2SHCH2C5HC3HC3HCHCHC3H2CHCH3CHC3H3C2HCH3FeH2C2H2C2H2C4H2CHC2HCH2C3HC4H2CHCH2CHCHSH4SPHC2HCPHCSH3CFeSFeSCHC2H2SH2FeHCH2C3HC6HFeH2C8H2CH2C2H2CSCH2CH2CSH3SC6SCH3C3H3CHCH2C4H2CHCH2CHCPC2HC12H2CHCH2C2HCHCH5C2H3CH5SC5H2C2FeH2CHC2HCSH2PC3H2CH2CHCSCHC2S2C2H6CHC4HC2FeC2H2CSH2C4HFeSFeS2FeSFeS3FeS2FeS2FeSFeS3HCSCFeS2FeSFeS3FeSFeSFeS2FeS2FeS2FeSFeS3C3H2S2HFeSHFeS2FeSFeS3C6H2CHCHC3H2C6H4C2HC2HCHC6H4C6H2C6H4C6H5C2H5C6HCH5CH4CHC6HC7H2C6H4C8PC9HC8H11C3H6C2H2C2PC8HCHPC6HC2H3C2H2CH2CH5C6PC14HCHPH16CHCHCH2SCHC7PC18H20C4H6PC10PC18H7CH10SHC4H2CH4C2H2CH2C2H3CSCH2CPC2H3CH4C6SHCH4SCH4C2SCHC3HC4HCSHC2H3CFeHCHC4H2CHC2HCSCSH2C2H2C2PH5C3HC2H2C4HCH2CHC2HSC2H3C3HC5HFeC3H3C2HCH4PC5H2CSC5HC2HC2H2FeC4HC4HC2FeC3H2CH2C2PCHCHCHC2HC2HC2H3C2H2CHC2HCHCH3CHCH2CH4C2HC2HCSC2H2FeCHC2H2CH3CHCHCHC3H4FeH4SCHC2HCHFeS2FeS2FeSFeS3FeHSCHCHSHCSHSHCH3C3HCH2CHFeSHC2FeC2H2C4H2CHCHCH2PC4H3CHCHCHC2HC2HCH3CHCH2CSC6H4C6H4C6H5CH2CHCHC3HCHCHCHCH3CHC4PC2H6CHCHCHC7HC3H4CHC2H3CH2C9HC2HPHCHC6FeH2CH3CHCHCH2CH2CH2SCHCHC3HCHC2H2FeCHCH2CH2C2HC2HCH2SCH2CPHC3FeSHC5HC2HCHC2SC3PCPC2HCHCH2C3H2SC3FeSHFeS2FeS2FeCFeS3CFeS3Fe2SCFeS2FeS2FeSHSHFeS2FeSCFeSFeS3CHSH2SCH2FeS2FeSHFeSFeS3HCHC4H4CH3C2HC5H2CHC2H3C6H4C6H4C6H4C6H4C6H4C6HCH2C7H2C3HCHCH2C7H4CH2C9PC18HCH18CHCHC2PC3HCHC2HC9H2CH3C3H4CH6CHC3HCHC2H3CHC2HFeCH3C4HC2HSPSH3C2H3C2HCH2PC2HC3PC4H4C2FeC7HCSCHCHSHC3H9C2HCHCHCH2CHC3H3SCHC2HSHCH3CHCHC3H2C7H2CPC4H7C2H2SHC2H3CH3CHC2FeSCH2C6PC18H20C2HC2H2C6PC18H13CHSH3C2SHC2HC2H3C3HC2HCFeC2H2CFeHCHCSH2C4H2CFeS2FeS2FeSFeS2CFeS2FeS2FeHFeS3CFeS2FeS2FeHFeHS2FeS2FeS2FeSFeS3FeS2FeCSC3H2C2HCPC7H4CH2C6H4C5HCH3C6H4C6H4C2H2C4H2C6H4C6H5C5SH4C4PC20H7SH8C2HPH2CH2SC4PC14HCH11C6PC12H18CHC2HC2SC6HC6HC2HC3H3CPHC3HC2HC6PC18HCH18CHCH5C3HCH2C2HCHCHCH7CH2C2HCH2C3H2C2HCHC3HC2H2CHCHC2H4C2H2CH2C2HCHC2H3C8SC3PC5HC2H2C3H2CHCH2C4H2C4HCHCH2CHC3HCHCH2C5HC2H4CH5PC2HC4H2C2H2SC3H4C2H4CHC2H4FeHC3HC2HSCHSHCHCH5C3SHC2HPHC3HCHFeS2FeS2Fe2S4Fe2SFeS2FeSHFeSFeS3CHPHSC3HC12H7C3HC6H5CHCH2C6H4C6H5C3HC2HCHCH2C3HPC3H3C8FeC5HSCH2CH10CH2C2H2C5HC4HCPHCH6CHCH6C4HC4H2SCHC4HCH4C3HC2HCHCHCHCHCHC2H4C2SC3H3C9PC7HSC4H2CH14C2H2C2H2C6PC18H22C3HC7HSCHC2H2C3H3CHCHC5HCHCH2C3HPC2H5FeS2FeS2FeSFeS3FeCSFeCHCH3S2FeCSC4HCHCHCH3C2HCH3CHCH3CHPC2HC4HC6H4C6H4C3H2CHC2H3CH2CHCHC5H2C3HCH2C5H2C2HCH3C2H3C4H2FeH7C3HC2HCHC2H2SCHCH3CHCH2PC19HCH7C3H11PC2HCHC5H2CHC6HC2HCH3C2HC4HC3H2CHCHC2H2C6H2SC2HCH2CHCHSH2SH2CSHCPCH5C4HFeSFeS2FeSFeHS2FeS2FeSHFeSFeS2CSC2FeS2FeS2FeSFeS3FeS2FeS2FeSFeS3FeS2FeSCFeHFeS3C6H4CH4C6H4C6H4C4HC2HC5HFeC7H3C7H4C2HC6H4C6H8C3HC7PC3H2C4HCHC6H7CH3CH9CPC2HC2HC3PC2HCPHCPC2HCHCHSH2C5HCHCH6C6H2CHCH3C3HPCH2CHC2HC2HC2HC2HCH3CH2CPHCPHCHC4H3C3SHC2HC2HC2H2CH2CH3C3PC17H15C3H4C6HCHCHSH2SH5CHC2SC7PC18H20C3H3CH4C3H7CH2CHCHC3H2C4HC4HCHC3H2C5HC3H3CHCHCHC3SHC2HCHC2FeCH2C2HSC2HC2H2C2HS2H2C2FeC4FeC4H2C2HCHC2H3CH3SH3C2HS2CH2CHCHFeHCHC2H3PHCH2CHC3HC2H2CHCH2PCH3CHCH2CH4CH2C3FeS2FeS2FeSFeS3HFeS2FeS2FeSFeCS2H2SCHSHFeSFeC2FeS2FeS2FeSFeS3FeSFeHSCHS2CSC2HC6H4C6H5C8H5C2HCHCH2C3H3C7H4C6H5C5H2CHSH3C4PC7PC18H23CHPC3HC13H2CH3PCH7CHC2H3C5HFeH2CHC2H2C6H3CHCH3C3HC3H3C3H2C3H3C7PC18H20CHC4PC12H10C6PC18H2CH12CH2CHC4H2SC4H2C3HCH2C3HCFeC2HC5H2SCSH2C4HC2HCH7C9HC3HCH2CHCHC2HC7H2CHC2H2PH2CH4C4HCHCH4CHCH2C2H3CHC2HC2HC3H2C2HCHCPHC2HC3HC2H3CH2CHCH4SH3C3H3CH3FeS2FeSHFeSFeS3HFeHSFeH2FeSH2S2FeSFeS2FeS2C4H3C6H3C2HC2HC2HC6H4FeC2SCHCHC2HCH2SCH2CSH3CH2C5HCH2PH3CHC2HC3H2CHC2SC3H2CHC4HSCHC2H2C2H2C2H2C6HC4HC4H3C2SC5H2CPHFeHC2HCHC2HC4HSH2C2H2C2HPC2HC6H3C4PC18H4SH12C6PCHC2HPC3HC4H2C2H2CH2CH3C3H3CH2C6HCSHCH2C5HC2SCFeHCPH2CH2C4H4CHCHCHCHCH2CHC2H5CH2CHCHCH3C3H5PCH2CH2CHCHCHCHC4
_chemical_formula_sum              "Fe384 S768 C5760 H4608 P192"
_cell_length_a       77.3498
_cell_length_b       77.1433
_cell_length_c       77.2375
_cell_angle_alpha    75.1689
_cell_angle_beta     75.1538
_cell_angle_gamma    75.143

_space_group_name_H-M_alt    "P 1"
_space_group_IT_number       1

loop_
  _space_group_symop_operation_xyz
  'x, y, z'

loop_
  _atom_site_type_symbol
  _atom_site_label
  _atom_site_symmetry_multiplicity
  _atom_site_fract_x
  _atom_site_fract_y
  _atom_site_fract_z
  _atom_site_occupancy
  Fe  Fe1       1.0  0.21448  0.41069  0.09990  1.0000
  S   S1        1.0  0.24229  0.40078  0.08365  1.0000
  S   S2        1.0  0.19687  0.39186  0.11912  1.0000
  Fe  Fe2       1.0  0.21711  0.45047  0.08717  1.0000
  S   S3        1.0  0.24517  0.44403  0.07010  1.0000
  Fe  Fe3       1.0  0.23408  0.42427  0.06111  1.0000
  S   S4        1.0  0.24014  0.42478  0.03064  1.0000
  Fe  Fe4       1.0  0.25076  0.42138  0.09414  1.0000
  S   S5        1.0  0.27733  0.41473  0.10412  1.0000
  S   S6        1.0  0.20559  0.43236  0.07658  1.0000
  S   S7        1.0  0.22340  0.42959  0.11185  1.0000
  C   C1        1.0  0.10349  0.42642  0.04628  1.0000
  H   H1        1.0  0.20497  0.36908  0.20981  1.0000
  S   S8        1.0  0.17916  0.42040  0.99112  1.0000
  H   H2        1.0  0.26489  0.39579  0.17366  1.0000
  C   C2        1.0  0.15495  0.44792  0.08353  1.0000
  C   C3        1.0  0.16940  0.47236  0.16737  1.0000
  H   H3        1.0  0.17985  0.46870  0.99892  1.0000
  S   S9        1.0  0.27544  0.43779  0.17776  1.0000
  C   C4        1.0  0.11267  0.42526  0.02838  1.0000
  C   C5        1.0  0.03010  0.44508  0.21150  1.0000
  C   C6        1.0  0.24093  0.39875  0.21822  1.0000
  C   C7        1.0  0.19305  0.37005  0.06808  1.0000
  H   H4        1.0  0.18623  0.45807  0.22352  1.0000
  S   S10       1.0  0.12322  0.43599  0.15888  1.0000
  C   C8        1.0  0.28783  0.37360  0.16993  1.0000
  C   C9        1.0  0.15709  0.43393  0.18892  1.0000
  C   C10       1.0  0.27667  0.42037  0.12507  1.0000
  C   C11       1.0  0.29289  0.41712  0.13145  1.0000
  C   C12       1.0  0.29267  0.42214  0.14781  1.0000
  C   C13       1.0  0.27626  0.43070  0.15765  1.0000
  C   C14       1.0  0.26029  0.42851  0.13525  1.0000
  C   C15       1.0  0.22894  0.46155  0.19921  1.0000
  S   S11       1.0  0.30230  0.43966  0.21257  1.0000
  H   H5        1.0  0.24775  0.43110  0.13063  1.0000
  C   C16       1.0  0.17650  0.40409  0.13033  1.0000
  C   C17       1.0  0.16485  0.39473  0.14457  1.0000
  C   C18       1.0  0.14853  0.40441  0.15361  1.0000
  C   C19       1.0  0.14377  0.42347  0.14829  1.0000
  C   C20       1.0  0.15540  0.43281  0.13402  1.0000
  C   C21       1.0  0.17181  0.42316  0.12514  1.0000
  H   H6        1.0  0.16845  0.37997  0.14859  1.0000
  H   H7        1.0  0.13949  0.39711  0.16449  1.0000
  H   H8        1.0  0.15174  0.44755  0.12991  1.0000
  H   H9        1.0  0.18076  0.43047  0.11420  1.0000
  C   C22       1.0  0.22209  0.42481  0.02047  1.0000
  C   C23       1.0  0.20887  0.41436  0.02950  1.0000
  C   C24       1.0  0.19584  0.41309  0.02033  1.0000
  C   C25       1.0  0.19562  0.42261  0.00222  1.0000
  C   C26       1.0  0.20850  0.43349  0.99339  1.0000
  C   C27       1.0  0.22179  0.43443  0.00246  1.0000
  H   H10       1.0  0.20913  0.40671  0.04331  1.0000
  H   H11       1.0  0.18625  0.40426  0.02716  1.0000
  C   C28       1.0  0.26920  0.35330  0.20134  1.0000
  H   H12       1.0  0.23191  0.44264  0.99563  1.0000
  S   S12       1.0  0.07916  0.42764  0.19150  1.0000
  C   C29       1.0  0.28631  0.34525  0.19218  1.0000
  C   C30       1.0  0.16595  0.40234  0.20403  1.0000
  H   H13       1.0  0.01944  0.34456  0.22052  1.0000
  C   C31       1.0  0.26010  0.43374  0.15138  1.0000
  H   H14       1.0  0.30126  0.34570  0.99662  1.0000
  H   H15       1.0  0.24757  0.47982  0.07660  1.0000
  H   H16       1.0  0.13426  0.45883  0.20976  1.0000
  H   H17       1.0  0.29235  0.33112  0.19719  1.0000
  Fe  Fe5       1.0  0.08136  0.40043  0.21081  1.0000
  H   H18       1.0  0.12449  0.46163  0.01891  1.0000
  H   H19       1.0  0.29667  0.17703  0.02589  1.0000
  C   C32       1.0  0.17659  0.46931  0.13562  1.0000
  H   H20       1.0  0.29262  0.35902  0.02445  1.0000
  C   C33       1.0  0.20902  0.41109  0.15875  1.0000
  H   H21       1.0  0.14836  0.44407  0.18058  1.0000
  H   H22       1.0  0.22626  0.36854  0.18075  1.0000
  H   H23       1.0  0.14585  0.38888  0.10425  1.0000
  H   H24       1.0  0.21226  0.43621  0.16357  1.0000
  Fe  Fe6       1.0  0.10962  0.42267  0.18690  1.0000
  C   C34       1.0  0.01203  0.39065  0.21673  1.0000
  C   C35       1.0  0.27237  0.39502  0.99545  1.0000
  H   H25       1.0  0.20179  0.41770  0.14772  1.0000
  C   C36       1.0  0.12458  0.39799  0.12577  1.0000
  H   H26       1.0  0.30519  0.41956  0.15268  1.0000
  C   C37       1.0  0.22255  0.38336  0.17767  1.0000
  H   H27       1.0  0.19044  0.42869  0.21249  1.0000
  C   C38       1.0  0.13495  0.46917  0.01760  1.0000
  H   H28       1.0  0.26217  0.34511  0.21328  1.0000
  H   H29       1.0  0.04209  0.45219  0.15882  1.0000
  C   C39       1.0  0.21453  0.42150  0.16794  1.0000
  H   H30       1.0  0.18290  0.46110  0.12529  1.0000
  C   C40       1.0  0.27790  0.38470  0.01153  1.0000
  C   C41       1.0  0.19369  0.38353  0.07686  1.0000
  H   H31       1.0  0.30563  0.41082  0.12367  1.0000
  C   C42       1.0  0.99847  0.44450  0.21404  1.0000
  S   S13       1.0  0.11221  0.39409  0.20400  1.0000
  C   C43       1.0  0.21091  0.36264  0.22168  1.0000
  P   P1        1.0  0.14552  0.42012  0.07250  1.0000
  H   H32       1.0  0.27354  0.39035  0.02385  1.0000
  H   H33       1.0  0.20537  0.38228  0.08276  1.0000
  H   H34       1.0  0.02251  0.48042  0.16813  1.0000
  C   C44       1.0  0.25756  0.40401  0.21605  1.0000
  H   H35       1.0  0.30884  0.34918  0.16938  1.0000
  H   H36       1.0  0.10584  0.42547  0.07347  1.0000
  H   H37       1.0  0.15133  0.38711  0.05711  1.0000
  H   H38       1.0  0.17714  0.36090  0.05435  1.0000
  C   C45       1.0  0.11742  0.43102  0.10089  1.0000
  P   P2        1.0  0.17166  0.46280  0.19077  1.0000
  C   C46       1.0  0.22329  0.41293  0.18257  1.0000
  C   C47       1.0  0.16972  0.43903  0.19587  1.0000
  H   H39       1.0  0.24735  0.44007  0.15901  1.0000
  C   C48       1.0  0.13244  0.42301  0.05512  1.0000
  C   C49       1.0  0.28853  0.36704  0.01188  1.0000
  C   C50       1.0  0.17421  0.46840  0.06367  1.0000
  C   C51       1.0  0.21322  0.39202  0.16346  1.0000
  H   H40       1.0  0.25789  0.45479  0.10139  1.0000
  C   C52       1.0  0.03723  0.47876  0.16551  1.0000
  C   C53       1.0  0.22696  0.39376  0.18783  1.0000
  C   C54       1.0  0.20806  0.46691  0.17884  1.0000
  H   H41       1.0  0.31371  0.15357  0.00754  1.0000
  C   C55       1.0  0.15264  0.46348  0.00808  1.0000
  H   H42       1.0  0.10511  0.42595  0.01809  1.0000
  C   C56       1.0  0.04449  0.37681  0.21480  1.0000
  H   H43       1.0  0.16363  0.46816  0.09230  1.0000
  H   H44       1.0  0.26944  0.39937  0.20616  1.0000
  C   C57       1.0  0.01542  0.44705  0.20326  1.0000
  C   C58       1.0  0.17865  0.40723  0.21089  1.0000
  H   H45       1.0  0.18492  0.46372  0.03634  1.0000
  C   C59       1.0  0.15532  0.41567  0.19293  1.0000
  C   C60       1.0  0.17775  0.37148  0.06095  1.0000
  C   C61       1.0  0.13149  0.41670  0.09532  1.0000
  H   H46       1.0  0.27952  0.45847  0.11819  1.0000
  C   C62       1.0  0.13495  0.40012  0.10793  1.0000
  Fe  Fe7       1.0  0.30124  0.42849  0.18878  1.0000
  H   H47       1.0  0.08876  0.42793  0.04991  1.0000
  H   H48       1.0  0.14801  0.44282  0.09723  1.0000
  C   C63       1.0  0.26133  0.37164  0.19486  1.0000
  H   H49       1.0  0.03034  0.48243  0.20368  1.0000
  H   H50       1.0  0.04314  0.44748  0.20316  1.0000
  H   H51       1.0  0.22746  0.42131  0.18944  1.0000
  C   C64       1.0  0.22558  0.46568  0.18152  1.0000
  H   H52       1.0  0.07582  0.44769  0.15328  1.0000
  C   C65       1.0  0.13166  0.42290  0.02379  1.0000
  C   C66       1.0  0.27075  0.38167  0.17902  1.0000
  H   H53       1.0  0.18324  0.44739  0.15766  1.0000
  C   C67       1.0  0.26291  0.46738  0.09789  1.0000
  H   H54       1.0  0.31818  0.48374  0.14279  1.0000
  S   S14       1.0  0.06349  0.46635  0.21957  1.0000
  H   H55       1.0  0.20590  0.46979  0.16500  1.0000
  H   H56       1.0  0.15589  0.45154  0.00203  1.0000
  C   C68       1.0  0.04825  0.46277  0.16020  1.0000
  C   C69       1.0  0.31952  0.16516  0.00690  1.0000
  C   C70       1.0  0.27504  0.46956  0.10745  1.0000
  H   H57       1.0  0.16874  0.43903  0.04054  1.0000
  C   C71       1.0  0.04034  0.35968  0.21688  1.0000
  C   C72       1.0  0.17920  0.39861  0.07825  1.0000
  Fe  Fe8       1.0  0.07987  0.43868  0.21531  1.0000
  H   H58       1.0  0.10320  0.41086  0.14528  1.0000
  C   C73       1.0  0.11330  0.42517  0.05963  1.0000
  C   C74       1.0  0.17584  0.45989  0.04927  1.0000
  C   C75       1.0  0.10719  0.42888  0.11879  1.0000
  H   H59       1.0  0.26353  0.40839  0.99583  1.0000
  C   C76       1.0  0.16386  0.46234  0.08085  1.0000
  C   C77       1.0  0.11078  0.41237  0.13124  1.0000
  H   H60       1.0  0.09672  0.44009  0.12321  1.0000
  H   H61       1.0  0.17973  0.40867  0.08553  1.0000
  H   H62       1.0  0.14531  0.41194  0.18782  1.0000
  H   H63       1.0  0.31217  0.47651  0.21583  1.0000
  C   C78       1.0  0.18071  0.42541  0.20668  1.0000
  H   H64       1.0  0.15616  0.41963  0.03314  1.0000
  H   H65       1.0  0.13889  0.42171  0.00996  1.0000
  C   C79       1.0  0.15595  0.43967  0.06891  1.0000
  H   H66       1.0  0.01710  0.45044  0.18854  1.0000
  C   C80       1.0  0.16403  0.40044  0.07067  1.0000
  C   C81       1.0  0.21459  0.45925  0.21428  1.0000
  C   C82       1.0  0.03028  0.39238  0.21481  1.0000
  H   H67       1.0  0.16397  0.38836  0.20769  1.0000
  Fe  Fe9       1.0  0.31382  0.41034  0.22411  1.0000
  S   S15       1.0  0.06781  0.37738  0.21193  1.0000
  C   C83       1.0  0.17700  0.46165  0.15398  1.0000
  H   H68       1.0  0.30997  0.20355  0.02443  1.0000
  C   C84       1.0  0.19705  0.46049  0.21166  1.0000
  H   H69       1.0  0.09479  0.46747  0.18955  1.0000
  C   C85       1.0  0.16318  0.38650  0.06240  1.0000
  C   C86       1.0  0.09203  0.47967  0.19501  1.0000
  S   S16       1.0  0.31077  0.39905  0.20123  1.0000
  H   H70       1.0  0.20433  0.35841  0.06702  1.0000
  C   C87       1.0  0.29561  0.35540  0.17650  1.0000
  H   H71       1.0  0.18638  0.39711  0.22010  1.0000
  H   H72       1.0  0.29495  0.38149  0.15771  1.0000
  H   H73       1.0  0.12759  0.38534  0.13557  1.0000
  H   H74       1.0  0.11467  0.44397  0.09146  1.0000
  H   H75       1.0  0.03336  0.40567  0.21314  1.0000
  C   C88       1.0  0.06725  0.46024  0.15700  1.0000
  H   H76       1.0  0.21600  0.46730  0.12239  1.0000
  C   C89       1.0  0.19375  0.46383  0.19392  1.0000
  C   C90       1.0  0.16668  0.44570  0.05179  1.0000
  S   S17       1.0  0.11016  0.43503  0.20998  1.0000
  P   P3        1.0  0.23910  0.38239  0.20605  1.0000
  H   H77       1.0  0.20947  0.38401  0.15584  1.0000
  C   C91       1.0  0.14147  0.42190  0.03703  1.0000
  H   H78       1.0  0.24269  0.45998  0.20120  1.0000
  C   C92       1.0  0.00806  0.37332  0.21887  1.0000
  C   C93       1.0  0.13705  0.47049  0.21303  1.0000
  H   H79       1.0  0.05119  0.34761  0.21683  1.0000
  H   H80       1.0  0.13476  0.48277  0.06142  1.0000
  C   C94       1.0  0.15402  0.47561  0.20582  1.0000
  C   C95       1.0  0.22735  0.36612  0.22327  1.0000
  H   H81       1.0  0.20806  0.38804  0.99079  1.0000
  C   C96       1.0  0.07522  0.47350  0.15948  1.0000
  H   H82       1.0  0.23673  0.46744  0.16984  1.0000
  C   C97       1.0  0.30991  0.17837  0.01723  1.0000
  H   H83       1.0  0.18188  0.47892  0.06180  1.0000
  C   C98       1.0  0.21756  0.48124  0.11641  1.0000
  H   H84       1.0  0.11484  0.47781  0.09203  1.0000
  C   C99       1.0  0.31741  0.19330  0.01641  1.0000
  H   H85       1.0  0.27729  0.47631  0.22215  1.0000
  C   C100      1.0  0.07704  0.48283  0.20929  1.0000
  C   C101      1.0  0.25720  0.48142  0.08381  1.0000
  H   H86       1.0  0.08994  0.47102  0.15789  1.0000
  C   C102      1.0  0.29343  0.35959  0.99616  1.0000
  C   C103      1.0  0.16610  0.47328  0.00623  1.0000
  C   C104      1.0  0.02232  0.35795  0.21896  1.0000
  C   C105      1.0  0.32153  0.45307  0.12336  1.0000
  S   S18       1.0  0.20228  0.47938  0.08841  1.0000
  H   H87       1.0  0.00111  0.40264  0.21654  1.0000
  C   C106      1.0  0.31759  0.46822  0.10929  1.0000
  H   H88       1.0  0.21708  0.45612  0.22806  1.0000
  H   H89       1.0  0.31355  0.35241  0.21568  1.0000
  H   H90       1.0  0.13837  0.42754  0.22961  1.0000
  Fe  Fe10      1.0  0.10994  0.40718  0.22762  1.0000
  C   C107      1.0  0.12343  0.48045  0.22461  1.0000
  H   H91       1.0  0.27207  0.41900  0.22544  1.0000
  H   H92       1.0  0.23562  0.40012  0.98713  1.0000
  H   H93       1.0  0.31387  0.45266  0.13726  1.0000
  C   C108      1.0  0.25912  0.41526  0.22694  1.0000
  H   H94       1.0  0.30790  0.48311  0.17590  1.0000
  H   H95       1.0  0.22820  0.48405  0.13864  1.0000
  H   H96       1.0  0.11033  0.47644  0.23002  1.0000
  H   H97       1.0  0.31903  0.31924  0.22986  1.0000
  C   C109      1.0  0.29801  0.48458  0.16761  1.0000
  C   C110      1.0  0.30382  0.48477  0.14889  1.0000
  C   C111      1.0  0.13067  0.48468  0.02524  1.0000
  C   C112      1.0  0.28783  0.36986  0.98005  1.0000
  C   C113      1.0  0.05762  0.41967  0.28076  1.0000
  H   H98       1.0  0.18508  0.48069  0.34535  1.0000
  H   H99       1.0  0.21634  0.99703  0.47560  1.0000
  P   P4        1.0  0.08338  0.10780  0.42839  1.0000
  C   C114      1.0  0.16804  0.20317  0.44844  1.0000
  S   S19       1.0  0.12608  0.39432  0.25007  1.0000
  C   C115      1.0  0.26037  0.46296  0.24583  1.0000
  H   H100      1.0  0.16139  0.01024  0.45144  1.0000
  C   C116      1.0  0.16390  0.36128  0.46699  1.0000
  H   H101      1.0  0.12442  0.44429  0.27020  1.0000
  C   C117      1.0  0.28714  0.46306  0.35204  1.0000
  C   C118      1.0  0.22829  0.15349  0.44835  1.0000
  S   S20       1.0  0.20207  0.07589  0.44161  1.0000
  C   C119      1.0  0.21108  0.14435  0.35055  1.0000
  Fe  Fe11      1.0  0.21156  0.04693  0.45573  1.0000
  S   S21       1.0  0.22253  0.02342  0.44109  1.0000
  H   H102      1.0  0.29199  0.27097  0.43094  1.0000
  C   C120      1.0  0.05944  0.46570  0.31439  1.0000
  C   C121      1.0  0.22747  0.41643  0.24206  1.0000
  S   S22       1.0  0.23616  0.10399  0.44319  1.0000
  S   S23       1.0  0.07930  0.41192  0.23533  1.0000
  C   C122      1.0  0.06439  0.14720  0.45910  1.0000
  H   H103      1.0  0.19268  0.24399  0.43567  1.0000
  Fe  Fe12      1.0  0.10944  0.18629  0.42862  1.0000
  S   S24       1.0  0.09636  0.21287  0.41255  1.0000
  S   S25       1.0  0.12749  0.16402  0.41443  1.0000
  C   C123      1.0  0.08996  0.12247  0.40660  1.0000
  Fe  Fe13      1.0  0.07152  0.21075  0.43511  1.0000
  S   S26       1.0  0.04154  0.21774  0.43449  1.0000
  Fe  Fe14      1.0  0.10588  0.22556  0.43069  1.0000
  S   S27       1.0  0.11833  0.25046  0.41746  1.0000
  S   S28       1.0  0.08376  0.18308  0.44931  1.0000
  C   C124      1.0  0.16516  0.21706  0.43318  1.0000
  S   S29       1.0  0.00753  0.16128  0.41379  1.0000
  C   C125      1.0  0.25533  0.10367  0.45162  1.0000
  H   H104      1.0  0.26043  0.29847  0.40667  1.0000
  Fe  Fe15      1.0  0.18009  0.41793  0.33144  1.0000
  S   S30       1.0  0.20176  0.41282  0.30645  1.0000
  S   S31       1.0  0.16993  0.39353  0.35122  1.0000
  Fe  Fe16      1.0  0.21260  0.43507  0.31130  1.0000
  S   S32       1.0  0.24229  0.43570  0.30855  1.0000
  Fe  Fe17      1.0  0.18335  0.43550  0.29105  1.0000
  S   S33       1.0  0.17906  0.43836  0.26261  1.0000
  S   S34       1.0  0.19219  0.43885  0.33742  1.0000
  H   H105      1.0  0.03674  0.11360  0.46530  1.0000
  Fe  Fe18      1.0  0.19814  0.32555  0.44095  1.0000
  S   S35       1.0  0.20071  0.35370  0.42342  1.0000
  S   S36       1.0  0.20649  0.29857  0.43157  1.0000
  C   C126      1.0  0.17874  0.38249  0.37116  1.0000
  C   C127      1.0  0.17340  0.36622  0.38169  1.0000
  C   C128      1.0  0.18020  0.35703  0.39761  1.0000
  C   C129      1.0  0.19214  0.36428  0.40328  1.0000
  C   C130      1.0  0.19746  0.38054  0.39275  1.0000
  C   C131      1.0  0.19093  0.38953  0.37667  1.0000
  H   H106      1.0  0.16393  0.36073  0.37751  1.0000
  H   H107      1.0  0.17599  0.34454  0.40562  1.0000
  H   H108      1.0  0.20665  0.38625  0.39707  1.0000
  H   H109      1.0  0.19508  0.40205  0.36871  1.0000
  Fe  Fe19      1.0  0.21897  0.08288  0.45766  1.0000
  H   H110      1.0  0.31271  0.47705  0.27380  1.0000
  H   H111      1.0  0.06571  0.07780  0.45094  1.0000
  C   C132      1.0  0.28611  0.40732  0.26663  1.0000
  C   C133      1.0  0.26930  0.40178  0.27336  1.0000
  C   C134      1.0  0.25553  0.41073  0.28585  1.0000
  C   C135      1.0  0.25881  0.42476  0.29222  1.0000
  C   C136      1.0  0.27567  0.43020  0.28560  1.0000
  C   C137      1.0  0.28920  0.42166  0.27267  1.0000
  H   H112      1.0  0.26693  0.39053  0.26891  1.0000
  H   H113      1.0  0.24257  0.40649  0.29086  1.0000
  H   H114      1.0  0.27824  0.44108  0.29046  1.0000
  H   H115      1.0  0.01337  0.28466  0.36347  1.0000
  C   C138      1.0  0.13002  0.25702  0.43074  1.0000
  S   S37       1.0  0.16078  0.43915  0.31539  1.0000
  C   C139      1.0  0.29164  0.35499  0.30561  1.0000
  C   C140      1.0  0.04086  0.42829  0.27570  1.0000
  C   C141      1.0  0.15058  0.27542  0.43277  1.0000
  C   C142      1.0  0.13984  0.27110  0.42287  1.0000
  C   C143      1.0  0.17995  0.20382  0.45913  1.0000
  H   H116      1.0  0.15853  0.28591  0.42649  1.0000
  H   H117      1.0  0.13953  0.27835  0.40894  1.0000
  C   C144      1.0  0.03225  0.20124  0.42990  1.0000
  C   C145      1.0  0.04351  0.18611  0.42311  1.0000
  C   C146      1.0  0.03573  0.17382  0.41838  1.0000
  C   C147      1.0  0.01672  0.17639  0.42078  1.0000
  C   C148      1.0  0.00546  0.19124  0.42805  1.0000
  C   C149      1.0  0.01323  0.20368  0.43251  1.0000
  H   H118      1.0  0.05820  0.18424  0.42089  1.0000
  H   H119      1.0  0.04445  0.16257  0.41240  1.0000
  H   H120      1.0  0.28146  0.19882  0.43729  1.0000
  H   H121      1.0  0.00448  0.21530  0.43787  1.0000
  Fe  Fe20      1.0  0.22434  0.29056  0.45227  1.0000
  H   H122      1.0  0.05887  0.37620  0.27761  1.0000
  C   C150      1.0  0.99864  0.44863  0.27693  1.0000
  C   C151      1.0  0.10084  0.44518  0.25983  1.0000
  H   H123      1.0  0.02857  0.28802  0.30539  1.0000
  H   H124      1.0  0.21095  0.13618  0.41724  1.0000
  C   C152      1.0  0.14408  0.11029  0.45375  1.0000
  C   C153      1.0  0.12941  0.12377  0.45980  1.0000
  C   C154      1.0  0.12428  0.14029  0.44779  1.0000
  C   C155      1.0  0.13362  0.14328  0.42957  1.0000
  C   C156      1.0  0.14814  0.12968  0.42341  1.0000
  C   C157      1.0  0.15354  0.11328  0.43555  1.0000
  H   H125      1.0  0.28352  0.30112  0.37756  1.0000
  H   H126      1.0  0.11311  0.15070  0.45268  1.0000
  H   H127      1.0  0.15539  0.13194  0.40932  1.0000
  H   H128      1.0  0.16488  0.10291  0.43079  1.0000
  C   C158      1.0  0.20688  0.01050  0.44102  1.0000
  H   H129      1.0  0.05123  0.24974  0.47465  1.0000
  H   H130      1.0  0.06288  0.45797  0.30367  1.0000
  C   C159      1.0  0.05174  0.45759  0.33213  1.0000
  C   C160      1.0  0.17594  0.00561  0.44699  1.0000
  C   C161      1.0  0.18808  0.01640  0.44696  1.0000
  H   H131      1.0  0.24060  0.45344  0.26936  1.0000
  C   C162      1.0  0.28459  0.10596  0.46575  1.0000
  C   C163      1.0  0.00165  0.25107  0.38751  1.0000
  H   H132      1.0  0.18291  0.02936  0.45127  1.0000
  C   C164      1.0  0.14047  0.40676  0.25392  1.0000
  C   C165      1.0  0.14825  0.40065  0.26952  1.0000
  C   C166      1.0  0.15980  0.41046  0.27271  1.0000
  C   C167      1.0  0.16375  0.42627  0.26013  1.0000
  C   C168      1.0  0.15580  0.43242  0.24475  1.0000
  C   C169      1.0  0.14421  0.42275  0.24164  1.0000
  H   H133      1.0  0.14533  0.38834  0.27917  1.0000
  H   H134      1.0  0.16583  0.40565  0.28471  1.0000
  P   P5        1.0  0.00821  0.42928  0.26586  1.0000
  H   H135      1.0  0.08244  0.10678  0.39114  1.0000
  C   C170      1.0  0.01104  0.43707  0.24142  1.0000
  H   H136      1.0  0.07554  0.44931  0.25135  1.0000
  H   H137      1.0  0.20059  0.33442  0.26299  1.0000
  P   P6        1.0  0.25085  0.36265  0.35038  1.0000
  S   S38       1.0  0.23019  0.05377  0.46991  1.0000
  C   C171      1.0  0.99070  0.46569  0.26738  1.0000
  C   C172      1.0  0.20139  0.35117  0.23592  1.0000
  C   C173      1.0  0.13353  0.07522  0.43301  1.0000
  H   H138      1.0  0.17215  0.24025  0.38146  1.0000
  C   C174      1.0  0.01501  0.13654  0.45942  1.0000
  C   C175      1.0  0.23396  0.35802  0.23944  1.0000
  H   H139      1.0  0.10052  0.14005  0.41747  1.0000
  C   C176      1.0  0.10275  0.46705  0.27648  1.0000
  C   C177      1.0  0.24331  0.39771  0.38489  1.0000
  H   H140      1.0  0.19922  0.15674  0.45556  1.0000
  H   H141      1.0  0.31443  0.09789  0.43061  1.0000
  C   C178      1.0  0.27113  0.36472  0.33261  1.0000
  S   S39       1.0  0.30388  0.39484  0.25249  1.0000
  C   C179      1.0  0.05646  0.08686  0.44252  1.0000
  S   S40       1.0  0.19618  0.45732  0.29360  1.0000
  C   C180      1.0  0.24413  0.42137  0.24001  1.0000
  S   S41       1.0  0.21739  0.31769  0.46055  1.0000
  Fe  Fe21      1.0  0.18428  0.28970  0.45531  1.0000
  C   C181      1.0  0.01503  0.25488  0.41106  1.0000
  H   H142      1.0  0.05201  0.12703  0.41107  1.0000
  C   C182      1.0  0.99820  0.25495  0.42330  1.0000
  C   C183      1.0  0.21757  0.16014  0.34894  1.0000
  C   C184      1.0  0.02676  0.09510  0.43425  1.0000
  C   C185      1.0  0.03007  0.41803  0.27201  1.0000
  H   H143      1.0  0.11068  0.47142  0.28358  1.0000
  H   H144      1.0  0.28444  0.24852  0.45796  1.0000
  H   H145      1.0  0.27434  0.39023  0.33731  1.0000
  C   C186      1.0  0.00353  0.15216  0.46497  1.0000
  H   H146      1.0  0.27981  0.32874  0.35323  1.0000
  C   C187      1.0  0.99257  0.41375  0.27235  1.0000
  H   H147      1.0  0.27084  0.45071  0.24808  1.0000
  C   C188      1.0  0.08479  0.47630  0.27520  1.0000
  H   H148      1.0  0.27594  0.44227  0.37327  1.0000
  C   C189      1.0  0.13036  0.24777  0.44879  1.0000
  C   C190      1.0  0.28038  0.11815  0.44988  1.0000
  H   H149      1.0  0.99308  0.46007  0.31817  1.0000
  C   C191      1.0  0.05362  0.39066  0.27754  1.0000
  H   H150      1.0  0.02182  0.12024  0.41448  1.0000
  C   C192      1.0  0.11861  0.08999  0.43277  1.0000
  H   H151      1.0  0.02654  0.25596  0.41594  1.0000
  H   H152      1.0  0.15154  0.04488  0.47454  1.0000
  C   C193      1.0  0.07705  0.20405  0.37451  1.0000
  C   C194      1.0  0.06641  0.19137  0.37602  1.0000
  C   C195      1.0  0.04749  0.19702  0.37788  1.0000
  C   C196      1.0  0.03911  0.21520  0.37878  1.0000
  C   C197      1.0  0.04964  0.22803  0.37747  1.0000
  C   C198      1.0  0.06876  0.22237  0.37490  1.0000
  P   P7        1.0  0.03886  0.25184  0.37732  1.0000
  C   C199      1.0  0.01695  0.25286  0.39307  1.0000
  C   C200      1.0  0.05324  0.26312  0.38403  1.0000
  C   C201      1.0  0.06192  0.25425  0.39875  1.0000
  C   C202      1.0  0.07338  0.26261  0.40379  1.0000
  C   C203      1.0  0.07643  0.27985  0.39410  1.0000
  C   C204      1.0  0.06782  0.28887  0.37945  1.0000
  C   C205      1.0  0.05623  0.28058  0.37443  1.0000
  S   S42       1.0  0.30286  0.10723  0.47471  1.0000
  H   H153      1.0  0.06588  0.42757  0.28364  1.0000
  S   S43       1.0  0.18789  0.04772  0.47948  1.0000
  H   H154      1.0  0.21588  0.42108  0.25230  1.0000
  C   C206      1.0  0.01940  0.28794  0.33422  1.0000
  C   C207      1.0  0.03539  0.26302  0.35453  1.0000
  C   C208      1.0  0.02187  0.27900  0.35189  1.0000
  H   H155      1.0  0.28429  0.26207  0.40276  1.0000
  C   C209      1.0  0.25969  0.21501  0.47478  1.0000
  C   C210      1.0  0.04399  0.26520  0.32160  1.0000
  C   C211      1.0  0.04650  0.25623  0.33925  1.0000
  H   H156      1.0  0.09173  0.19966  0.37314  1.0000
  H   H157      1.0  0.07276  0.17714  0.37594  1.0000
  H   H158      1.0  0.03919  0.18716  0.37924  1.0000
  H   H159      1.0  0.02441  0.21905  0.38070  1.0000
  H   H160      1.0  0.07731  0.23202  0.37333  1.0000
  H   H161      1.0  0.05995  0.24077  0.40625  1.0000
  H   H162      1.0  0.08007  0.25564  0.41514  1.0000
  H   H163      1.0  0.08558  0.28611  0.39793  1.0000
  H   H164      1.0  0.07022  0.30225  0.37192  1.0000
  H   H165      1.0  0.04982  0.28781  0.36299  1.0000
  C   C212      1.0  0.27443  0.09229  0.47431  1.0000
  H   H166      1.0  0.00517  0.43356  0.30301  1.0000
  S   S44       1.0  0.12066  0.19899  0.44531  1.0000
  H   H167      1.0  0.29895  0.39497  0.31038  1.0000
  H   H168      1.0  0.16886  0.47936  0.24471  1.0000
  H   H169      1.0  0.00712  0.39819  0.25140  1.0000
  H   H170      1.0  0.22798  0.98930  0.43043  1.0000
  Fe  Fe22      1.0  0.28974  0.17448  0.47587  1.0000
  H   H171      1.0  0.05262  0.25994  0.30984  1.0000
  H   H172      1.0  0.05719  0.24409  0.34088  1.0000
  C   C213      1.0  0.22030  0.36840  0.31216  1.0000
  C   C214      1.0  0.29629  0.29782  0.41704  1.0000
  H   H173      1.0  0.31944  0.25822  0.44537  1.0000
  H   H174      1.0  0.03647  0.44298  0.27446  1.0000
  H   H175      1.0  0.06116  0.47659  0.26471  1.0000
  C   C215      1.0  0.07509  0.46992  0.26583  1.0000
  H   H176      1.0  0.25541  0.25138  0.41053  1.0000
  C   C216      1.0  0.18263  0.98872  0.44152  1.0000
  C   C217      1.0  0.19540  0.14620  0.38170  1.0000
  C   C218      1.0  0.06403  0.40088  0.28161  1.0000
  C   C219      1.0  0.22947  0.19590  0.41706  1.0000
  C   C220      1.0  0.24703  0.18699  0.40989  1.0000
  C   C221      1.0  0.24926  0.17352  0.39991  1.0000
  C   C222      1.0  0.23397  0.16932  0.39664  1.0000
  C   C223      1.0  0.21632  0.17883  0.40307  1.0000
  C   C224      1.0  0.21420  0.19160  0.41392  1.0000
  P   P8        1.0  0.19640  0.17339  0.39923  1.0000
  Fe  Fe23      1.0  0.17983  0.07736  0.46671  1.0000
  C   C225      1.0  0.18754  0.15864  0.42009  1.0000
  C   C226      1.0  0.19778  0.14104  0.42546  1.0000
  C   C227      1.0  0.19093  0.12936  0.44141  1.0000
  C   C228      1.0  0.17413  0.13527  0.45236  1.0000
  C   C229      1.0  0.16404  0.15288  0.44733  1.0000
  C   C230      1.0  0.17063  0.16449  0.43120  1.0000
  H   H177      1.0  0.15552  0.21684  0.42526  1.0000
  C   C231      1.0  0.17942  0.19354  0.39293  1.0000
  H   H178      1.0  0.21563  0.35020  0.36442  1.0000
  C   C232      1.0  0.26756  0.24212  0.41443  1.0000
  C   C233      1.0  0.15193  0.22436  0.38489  1.0000
  C   C234      1.0  0.14839  0.20677  0.38849  1.0000
  C   C235      1.0  0.16216  0.19144  0.39220  1.0000
  H   H179      1.0  0.22765  0.20584  0.42540  1.0000
  H   H180      1.0  0.25890  0.19010  0.41254  1.0000
  H   H181      1.0  0.26285  0.16613  0.39492  1.0000
  H   H182      1.0  0.23599  0.15851  0.38929  1.0000
  H   H183      1.0  0.20071  0.19822  0.41998  1.0000
  C   C236      1.0  0.06780  0.13737  0.44531  1.0000
  C   C237      1.0  0.03670  0.39915  0.27282  1.0000
  H   H184      1.0  0.19083  0.36708  0.46088  1.0000
  H   H185      1.0  0.15078  0.15730  0.45561  1.0000
  H   H186      1.0  0.16230  0.17786  0.42745  1.0000
  H   H187      1.0  0.12001  0.10289  0.43485  1.0000
  S   S45       1.0  0.17439  0.31732  0.46285  1.0000
  H   H188      1.0  0.29617  0.34561  0.29628  1.0000
  Fe  Fe24      1.0  0.17495  0.45961  0.31912  1.0000
  H   H189      1.0  0.13491  0.20496  0.38865  1.0000
  H   H190      1.0  0.15921  0.17789  0.39495  1.0000
  H   H191      1.0  0.10681  0.43301  0.25414  1.0000
  C   C238      1.0  0.18319  0.21123  0.38834  1.0000
  C   C239      1.0  0.23286  0.36207  0.33955  1.0000
  C   C240      1.0  0.17438  0.23152  0.42833  1.0000
  C   C241      1.0  0.03915  0.08320  0.44452  1.0000
  H   H192      1.0  0.22964  0.35141  0.38722  1.0000
  C   C242      1.0  0.08313  0.45443  0.25822  1.0000
  H   H193      1.0  0.22952  0.34049  0.26614  1.0000
  H   H194      1.0  0.30994  0.37285  0.28975  1.0000
  H   H195      1.0  0.19152  0.34976  0.34938  1.0000
  H   H196      1.0  0.19476  0.12530  0.36811  1.0000
  C   C243      1.0  0.13225  0.05866  0.42970  1.0000
  C   C244      1.0  0.18617  0.23233  0.43897  1.0000
  S   S46       1.0  0.16631  0.26874  0.46288  1.0000
  H   H197      1.0  0.24630  0.36096  0.24122  1.0000
  H   H198      1.0  0.22529  0.42821  0.35053  1.0000
  S   S47       1.0  0.29519  0.16000  0.45268  1.0000
  C   C245      1.0  0.30051  0.27871  0.41990  1.0000
  H   H199      1.0  0.19662  0.21332  0.38779  1.0000
  C   C246      1.0  0.24138  0.34049  0.38473  1.0000
  H   H200      1.0  0.03519  0.07128  0.45421  1.0000
  C   C247      1.0  0.16941  0.22658  0.38449  1.0000
  Fe  Fe25      1.0  0.09355  0.19828  0.46465  1.0000
  C   C248      1.0  0.06159  0.10233  0.43001  1.0000
  C   C249      1.0  0.28344  0.47847  0.33828  1.0000
  C   C250      1.0  0.23399  0.36906  0.32066  1.0000
  H   H201      1.0  0.23374  0.32390  0.41134  1.0000
  C   C251      1.0  0.20506  0.36134  0.32250  1.0000
  H   H202      1.0  0.21806  0.18124  0.36227  1.0000
  C   C252      1.0  0.09831  0.13703  0.40535  1.0000
  H   H203      1.0  0.13278  0.98780  0.47457  1.0000
  H   H204      1.0  0.17186  0.24247  0.41672  1.0000
  H   H205      1.0  0.30224  0.42582  0.26777  1.0000
  C   C253      1.0  0.27923  0.38001  0.32890  1.0000
  C   C254      1.0  0.03044  0.28104  0.31909  1.0000
  H   H206      1.0  0.19401  0.36165  0.31611  1.0000
  H   H207      1.0  0.24520  0.37540  0.31246  1.0000
  H   H208      1.0  0.14110  0.23626  0.38246  1.0000
  H   H209      1.0  0.06146  0.14335  0.43362  1.0000
  H   H210      1.0  0.12280  0.23696  0.45497  1.0000
  C   C255      1.0  0.25972  0.09122  0.46733  1.0000
  C   C256      1.0  0.26600  0.11679  0.44268  1.0000
  C   C257      1.0  0.21308  0.16892  0.36374  1.0000
  H   H211      1.0  0.22788  0.25139  0.45953  1.0000
  C   C258      1.0  0.14105  0.25209  0.45866  1.0000
  C   C259      1.0  0.27469  0.22347  0.47004  1.0000
  H   H212      1.0  0.25530  0.36949  0.38480  1.0000
  H   H213      1.0  0.22113  0.37408  0.29768  1.0000
  H   H214      1.0  0.24608  0.39698  0.39814  1.0000
  C   C260      1.0  0.09414  0.12910  0.37345  1.0000
  C   C261      1.0  0.10210  0.14380  0.37234  1.0000
  C   C262      1.0  0.10420  0.14772  0.38827  1.0000
  H   H215      1.0  0.30361  0.32295  0.40054  1.0000
  C   C263      1.0  0.03164  0.11071  0.42205  1.0000
  H   H216      1.0  0.24547  0.42975  0.24869  1.0000
  C   C264      1.0  0.20368  0.35460  0.34127  1.0000
  H   H217      1.0  0.24433  0.45423  0.36792  1.0000
  H   H218      1.0  0.00278  0.24931  0.37377  1.0000
  C   C265      1.0  0.25586  0.25226  0.45787  1.0000
  C   C266      1.0  0.29328  0.38278  0.31359  1.0000
  C   C267      1.0  0.27750  0.35222  0.32083  1.0000
  H   H219      1.0  0.25008  0.47546  0.30823  1.0000
  C   C268      1.0  0.15143  0.26567  0.45059  1.0000
  H   H220      1.0  0.16874  0.12599  0.46449  1.0000
  H   H221      1.0  0.26299  0.12605  0.43021  1.0000
  H   H222      1.0  0.19857  0.11561  0.44519  1.0000
  H   H223      1.0  0.23078  0.42640  0.38121  1.0000
  C   C269      1.0  0.25531  0.46087  0.35959  1.0000
  C   C270      1.0  0.23130  0.41522  0.35823  1.0000
  H   H224      1.0  0.25301  0.17769  0.45983  1.0000
  S   S48       1.0  0.31612  0.18432  0.46680  1.0000
  H   H225      1.0  0.27099  0.34074  0.32302  1.0000
  C   C271      1.0  0.28220  0.21254  0.42956  1.0000
  C   C272      1.0  0.25878  0.31061  0.39590  1.0000
  H   H226      1.0  0.09272  0.12590  0.36108  1.0000
  H   H227      1.0  0.10686  0.15201  0.35913  1.0000
  H   H228      1.0  0.11066  0.15892  0.38743  1.0000
  H   H229      1.0  0.31497  0.23342  0.38078  1.0000
  C   C273      1.0  0.11605  0.05690  0.42608  1.0000
  C   C274      1.0  0.22988  0.48025  0.25501  1.0000
  C   C275      1.0  0.08825  0.11835  0.39051  1.0000
  C   C276      1.0  0.31544  0.26967  0.40853  1.0000
  C   C277      1.0  0.24370  0.32487  0.39854  1.0000
  H   H230      1.0  0.02912  0.39089  0.26954  1.0000
  C   C278      1.0  0.10106  0.07166  0.42589  1.0000
  C   C279      1.0  0.24347  0.15938  0.44957  1.0000
  C   C280      1.0  0.25416  0.34213  0.36807  1.0000
  H   H231      1.0  0.04939  0.44379  0.33491  1.0000
  C   C281      1.0  0.21746  0.35498  0.34979  1.0000
  H   H232      1.0  0.28458  0.30457  0.42585  1.0000
  H   H233      1.0  0.16102  0.19199  0.45175  1.0000
  C   C282      1.0  0.04888  0.11445  0.42007  1.0000
  H   H234      1.0  0.10136  0.00120  0.46922  1.0000
  H   H235      1.0  0.01381  0.13289  0.44722  1.0000
  C   C283      1.0  0.10210  0.08820  0.42967  1.0000
  C   C284      1.0  0.27172  0.31212  0.37949  1.0000
  H   H236      1.0  0.18647  0.14079  0.39409  1.0000
  C   C285      1.0  0.11069  0.45154  0.26885  1.0000
  H   H237      1.0  0.22999  0.14325  0.44039  1.0000
  C   C286      1.0  0.99541  0.39991  0.26251  1.0000
  C   C287      1.0  0.20226  0.16180  0.38034  1.0000
  H   H238      1.0  0.99080  0.19340  0.42985  1.0000
  H   H239      1.0  0.07733  0.39434  0.28486  1.0000
  H   H240      1.0  0.12221  0.12156  0.47390  1.0000
  C   C288      1.0  0.23563  0.39944  0.35093  1.0000
  S   S49       1.0  0.07980  0.22599  0.45171  1.0000
  C   C289      1.0  0.27309  0.45420  0.36261  1.0000
  C   C290      1.0  0.23474  0.41428  0.37536  1.0000
  H   H241      1.0  0.22238  0.19101  0.47574  1.0000
  C   C291      1.0  0.08362  0.12227  0.47595  1.0000
  C   C292      1.0  0.29946  0.37032  0.30194  1.0000
  C   C293      1.0  0.19994  0.13745  0.36689  1.0000
  C   C294      1.0  0.24391  0.38264  0.36058  1.0000
  H   H242      1.0  0.28846  0.12836  0.44289  1.0000
  H   H243      1.0  0.21460  0.13751  0.33911  1.0000
  H   H244      1.0  0.11525  0.04417  0.42311  1.0000
  H   H245      1.0  0.99702  0.25604  0.43728  1.0000
  H   H246      1.0  0.16294  0.36438  0.45271  1.0000
  C   C295      1.0  0.24824  0.38203  0.37737  1.0000
  H   H247      1.0  0.22606  0.16559  0.33621  1.0000
  H   H248      1.0  0.09546  0.09872  0.46388  1.0000
  C   C296      1.0  0.24084  0.24381  0.46280  1.0000
  H   H249      1.0  0.23275  0.40048  0.33765  1.0000
  C   C297      1.0  0.32191  0.29929  0.39140  1.0000
  C   C298      1.0  0.26949  0.32784  0.36566  1.0000
  C   C299      1.0  0.07265  0.13985  0.47421  1.0000
  C   C300      1.0  0.07936  0.12001  0.44656  1.0000
  C   C301      1.0  0.22381  0.18030  0.46846  1.0000
  H   H250      1.0  0.25699  0.15387  0.44252  1.0000
  H   H251      1.0  0.01324  0.09245  0.43596  1.0000
  C   C302      1.0  0.99617  0.43986  0.23305  1.0000
  S   S50       1.0  0.25364  0.27547  0.44701  1.0000
  C   C303      1.0  0.27278  0.24208  0.46162  1.0000
  C   C304      1.0  0.21348  0.99377  0.43527  1.0000
  C   C305      1.0  0.08690  0.11228  0.46224  1.0000
  H   H252      1.0  0.14391  0.04727  0.42976  1.0000
  Fe  Fe26      1.0  0.30790  0.13553  0.47138  1.0000
  P   P9        1.0  0.32040  0.24489  0.41224  1.0000
  H   H253      1.0  0.14615  0.07666  0.43567  1.0000
  H   H254      1.0  0.25380  0.21980  0.42796  1.0000
  H   H255      1.0  0.05547  0.16064  0.45794  1.0000
  H   H256      1.0  0.08889  0.07023  0.42239  1.0000
  H   H257      1.0  0.00899  0.30029  0.33224  1.0000
  H   H258      1.0  0.22269  0.47367  0.29907  1.0000
  H   H259      1.0  0.99791  0.17018  0.35726  1.0000
  C   C306      1.0  0.20815  0.34310  0.25188  1.0000
  H   H260      1.0  0.21278  0.40148  0.23309  1.0000
  H   H261      1.0  0.31036  0.20937  0.43015  1.0000
  C   C307      1.0  0.18890  0.21858  0.45437  1.0000
  C   C308      1.0  0.02801  0.43996  0.23053  1.0000
  C   C309      1.0  0.26664  0.22433  0.42419  1.0000
  C   C310      1.0  0.29856  0.21868  0.42567  1.0000
  C   C311      1.0  0.21086  0.16102  0.45716  1.0000
  C   C312      1.0  0.17969  0.36280  0.47159  1.0000
  C   C313      1.0  0.29948  0.23671  0.41637  1.0000
  C   C314      1.0  0.28396  0.24823  0.41031  1.0000
  H   H262      1.0  0.15866  0.44473  0.23521  1.0000
  S   S51       1.0  0.14975  0.08958  0.46906  1.0000
  C   C315      1.0  0.22444  0.34651  0.25364  1.0000
  C   C316      1.0  0.99930  0.44668  0.29536  1.0000
  C   C317      1.0  0.30697  0.30813  0.40278  1.0000
  H   H263      1.0  0.14171  0.24448  0.47243  1.0000
  H   H264      1.0  0.28777  0.21569  0.47280  1.0000
  C   C318      1.0  0.04727  0.46718  0.34630  1.0000
  H   H265      1.0  0.02436  0.21399  0.47399  1.0000
  H   H266      1.0  0.19804  0.21948  0.46250  1.0000
  H   H267      1.0  0.23102  0.21887  0.47514  1.0000
  H   H268      1.0  0.30088  0.45806  0.35456  1.0000
  H   H269      1.0  0.12008  0.05330  0.46908  1.0000
  C   C319      1.0  0.25157  0.47626  0.34586  1.0000
  H   H270      1.0  0.13773  0.35377  0.47681  1.0000
  H   H271      1.0  0.01954  0.48039  0.23677  1.0000
  C   C320      1.0  0.20851  0.17416  0.46766  1.0000
  S   S52       1.0  0.20323  0.27964  0.47498  1.0000
  C   C321      1.0  0.99248  0.46164  0.30398  1.0000
  C   C322      1.0  0.24336  0.46444  0.25778  1.0000
  H   H272      1.0  0.03964  0.43821  0.23661  1.0000
  C   C323      1.0  0.02787  0.12570  0.46964  1.0000
  H   H273      1.0  0.99344  0.16045  0.45712  1.0000
  H   H274      1.0  0.28787  0.47610  0.30123  1.0000
  C   C324      1.0  0.24121  0.17286  0.45945  1.0000
  H   H275      1.0  0.04145  0.46083  0.36006  1.0000
  C   C325      1.0  0.24269  0.22529  0.47145  1.0000
  P   P10       1.0  0.18576  0.18500  0.47742  1.0000
  H   H276      1.0  0.25172  0.08087  0.47419  1.0000
  H   H277      1.0  0.21694  0.48124  0.26464  1.0000
  C   C326      1.0  0.06280  0.48347  0.31073  1.0000
  H   H278      1.0  0.98961  0.46763  0.25327  1.0000
  H   H279      1.0  0.18854  0.34883  0.23473  1.0000
  H   H280      1.0  0.23761  0.48142  0.34398  1.0000
  C   C327      1.0  0.12413  0.04090  0.47877  1.0000
  C   C328      1.0  0.10593  0.98647  0.47230  1.0000
  C   C329      1.0  0.22579  0.40530  0.23112  1.0000
  C   C330      1.0  0.26393  0.47735  0.23112  1.0000
  H   H281      1.0  0.10157  0.48451  0.30957  1.0000
  C   C331      1.0  0.26570  0.48491  0.33483  1.0000
  C   C332      1.0  0.05045  0.48492  0.34273  1.0000
  Fe  Fe27      1.0  0.20551  0.05730  0.49244  1.0000
  S   S53       1.0  0.20393  0.04510  0.52225  1.0000
  C   C333      1.0  0.32010  0.24095  0.63639  1.0000
  Fe  Fe28      1.0  0.24066  0.06047  0.59562  1.0000
  S   S54       1.0  0.25477  0.03481  0.61193  1.0000
  S   S55       1.0  0.24962  0.06966  0.56522  1.0000
  Fe  Fe29      1.0  0.21467  0.07225  0.62897  1.0000
  S   S56       1.0  0.22651  0.04745  0.64817  1.0000
  S   S57       1.0  0.19436  0.09599  0.63935  1.0000
  Fe  Fe30      1.0  0.25367  0.05259  0.63128  1.0000
  S   S58       1.0  0.27733  0.04819  0.64505  1.0000
  Fe  Fe31      1.0  0.22653  0.03172  0.62730  1.0000
  S   S59       1.0  0.22129  0.00278  0.63618  1.0000
  S   S60       1.0  0.24188  0.07847  0.61372  1.0000
  S   S61       1.0  0.21233  0.05619  0.60939  1.0000
  H   H282      1.0  0.27271  0.03471  0.52475  1.0000
  S   S62       1.0  0.08626  0.18806  0.49477  1.0000
  C   C334      1.0  0.00509  0.13857  0.54818  1.0000
  Fe  Fe32      1.0  0.11628  0.15894  0.60062  1.0000
  S   S63       1.0  0.10218  0.17010  0.62590  1.0000
  S   S64       1.0  0.12716  0.12911  0.60043  1.0000
  Fe  Fe33      1.0  0.11318  0.19646  0.57559  1.0000
  S   S65       1.0  0.09930  0.21063  0.59888  1.0000
  S   S66       1.0  0.12042  0.21331  0.54717  1.0000
  Fe  Fe34      1.0  0.12002  0.19100  0.61397  1.0000
  S   S67       1.0  0.13621  0.19692  0.63168  1.0000
  Fe  Fe35      1.0  0.08273  0.18856  0.60838  1.0000
  S   S68       1.0  0.05205  0.19813  0.61673  1.0000
  S   S69       1.0  0.13532  0.17850  0.58981  1.0000
  S   S70       1.0  0.09546  0.17550  0.58408  1.0000
  C   C335      1.0  0.26002  0.01342  0.54349  1.0000
  H   H283      1.0  0.10685  0.00564  0.50823  1.0000
  C   C336      1.0  0.99305  0.12985  0.56249  1.0000
  C   C337      1.0  0.18121  0.35846  0.48992  1.0000
  C   C338      1.0  0.12623  0.08542  0.65448  1.0000
  H   H284      1.0  0.20790  0.17445  0.50573  1.0000
  C   C339      1.0  0.00560  0.21586  0.49977  1.0000
  S   S71       1.0  0.18380  0.30545  0.51191  1.0000
  H   H285      1.0  0.01651  0.14202  0.55123  1.0000
  C   C340      1.0  0.02205  0.28745  0.60682  1.0000
  S   S72       1.0  0.23570  0.35586  0.69139  1.0000
  Fe  Fe36      1.0  0.17970  0.28257  0.62022  1.0000
  S   S73       1.0  0.20612  0.27984  0.59977  1.0000
  S   S74       1.0  0.15617  0.27525  0.61290  1.0000
  Fe  Fe37      1.0  0.19327  0.30377  0.64108  1.0000
  S   S75       1.0  0.22023  0.30326  0.62150  1.0000
  S   S76       1.0  0.18550  0.31645  0.66637  1.0000
  Fe  Fe38      1.0  0.20450  0.30928  0.59922  1.0000
  S   S77       1.0  0.21229  0.32735  0.57153  1.0000
  Fe  Fe39      1.0  0.21971  0.27390  0.62345  1.0000
  S   S78       1.0  0.24772  0.25608  0.62083  1.0000
  S   S79       1.0  0.17726  0.31266  0.61850  1.0000
  S   S80       1.0  0.19351  0.27365  0.64446  1.0000
  C   C341      1.0  0.02804  0.28434  0.62315  1.0000
  S   S81       1.0  0.29703  0.15106  0.62601  1.0000
  C   C342      1.0  0.16671  0.38203  0.70030  1.0000
  Fe  Fe40      1.0  0.29951  0.16771  0.64477  1.0000
  S   S82       1.0  0.27412  0.17752  0.66481  1.0000
  C   C343      1.0  0.27855  0.26488  0.55722  1.0000
  C   C344      1.0  0.25357  0.23588  0.63654  1.0000
  C   C345      1.0  0.24092  0.22495  0.64630  1.0000
  C   C346      1.0  0.24703  0.20724  0.65609  1.0000
  C   C347      1.0  0.26572  0.20064  0.65605  1.0000
  C   C348      1.0  0.27804  0.21214  0.64732  1.0000
  C   C349      1.0  0.27202  0.22961  0.63743  1.0000
  H   H286      1.0  0.22671  0.22976  0.64543  1.0000
  H   H287      1.0  0.23750  0.19831  0.66278  1.0000
  H   H288      1.0  0.29236  0.20738  0.64770  1.0000
  H   H289      1.0  0.28182  0.23797  0.62979  1.0000
  C   C350      1.0  0.22175  0.34463  0.68477  1.0000
  C   C351      1.0  0.22772  0.33861  0.66808  1.0000
  C   C352      1.0  0.21686  0.32994  0.66223  1.0000
  C   C353      1.0  0.19998  0.32696  0.67316  1.0000
  C   C354      1.0  0.19423  0.33262  0.69001  1.0000
  C   C355      1.0  0.20504  0.34137  0.69580  1.0000
  H   H290      1.0  0.24069  0.34095  0.65947  1.0000
  H   H291      1.0  0.22144  0.32582  0.64917  1.0000
  H   H292      1.0  0.18129  0.33027  0.69860  1.0000
  H   H293      1.0  0.20048  0.34562  0.70880  1.0000
  C   C356      1.0  0.19358  0.31098  0.52744  1.0000
  C   C357      1.0  0.18815  0.30349  0.54595  1.0000
  C   C358      1.0  0.19368  0.30875  0.55935  1.0000
  C   C359      1.0  0.20515  0.32126  0.55439  1.0000
  C   C360      1.0  0.21095  0.32868  0.53576  1.0000
  C   C361      1.0  0.20524  0.32344  0.52223  1.0000
  H   H294      1.0  0.17931  0.29376  0.55003  1.0000
  H   H295      1.0  0.18852  0.30350  0.57356  1.0000
  H   H296      1.0  0.21983  0.33842  0.53183  1.0000
  H   H297      1.0  0.20961  0.32916  0.50791  1.0000
  H   H298      1.0  0.00172  0.20310  0.55464  1.0000
  H   H299      1.0  0.19352  0.35950  0.49347  1.0000
  H   H300      1.0  0.10276  0.33760  0.62421  1.0000
  H   H301      1.0  0.10728  0.24649  0.59277  1.0000
  C   C362      1.0  0.00133  0.18692  0.52015  1.0000
  H   H302      1.0  0.10838  0.26671  0.63286  1.0000
  H   H303      1.0  0.30994  0.28861  0.66807  1.0000
  C   C363      1.0  0.99137  0.24972  0.54702  1.0000
  H   H304      1.0  0.27127  0.13473  0.55302  1.0000
  H   H305      1.0  0.08989  0.11653  0.48777  1.0000
  C   C364      1.0  0.27451  0.29721  0.54268  1.0000
  H   H306      1.0  0.15557  0.35813  0.68695  1.0000
  C   C365      1.0  0.14342  0.21800  0.62541  1.0000
  C   C366      1.0  0.15199  0.22269  0.63706  1.0000
  C   C367      1.0  0.15666  0.23998  0.63298  1.0000
  C   C368      1.0  0.15264  0.25271  0.61732  1.0000
  C   C369      1.0  0.14442  0.24787  0.60549  1.0000
  C   C370      1.0  0.14008  0.23046  0.60939  1.0000
  H   H307      1.0  0.15442  0.21322  0.64959  1.0000
  H   H308      1.0  0.16254  0.24381  0.64236  1.0000
  H   H309      1.0  0.14134  0.25765  0.59331  1.0000
  H   H310      1.0  0.13386  0.22674  0.60021  1.0000
  H   H311      1.0  0.07691  0.37500  0.55326  1.0000
  C   C371      1.0  0.02966  0.15882  0.60907  1.0000
  C   C372      1.0  0.04232  0.16803  0.61119  1.0000
  C   C373      1.0  0.03676  0.18624  0.61330  1.0000
  H   H312      1.0  0.03404  0.14469  0.60760  1.0000
  H   H313      1.0  0.05629  0.16096  0.61144  1.0000
  H   H314      1.0  0.25366  0.30079  0.49962  1.0000
  H   H315      1.0  0.10772  0.29382  0.48935  1.0000
  C   C374      1.0  0.16593  0.21179  0.51969  1.0000
  H   H316      1.0  0.25120  0.18891  0.60338  1.0000
  H   H317      1.0  0.31134  0.21890  0.49037  1.0000
  C   C375      1.0  0.09422  0.19796  0.50838  1.0000
  C   C376      1.0  0.08689  0.19501  0.52712  1.0000
  C   C377      1.0  0.09417  0.20097  0.53881  1.0000
  C   C378      1.0  0.10922  0.20929  0.53195  1.0000
  C   C379      1.0  0.11594  0.21327  0.51301  1.0000
  C   C380      1.0  0.10833  0.20768  0.50115  1.0000
  H   H318      1.0  0.07575  0.18783  0.53263  1.0000
  H   H319      1.0  0.08825  0.19896  0.55318  1.0000
  H   H320      1.0  0.12725  0.22022  0.50758  1.0000
  H   H321      1.0  0.99197  0.19313  0.61030  1.0000
  C   C381      1.0  0.29060  0.06449  0.64287  1.0000
  C   C382      1.0  0.28611  0.08298  0.63426  1.0000
  C   C383      1.0  0.29761  0.09514  0.63288  1.0000
  C   C384      1.0  0.30656  0.17434  0.54432  1.0000
  H   H322      1.0  0.30539  0.03284  0.60678  1.0000
  C   C385      1.0  0.30643  0.05834  0.65010  1.0000
  H   H323      1.0  0.27388  0.08779  0.62869  1.0000
  H   H324      1.0  0.29427  0.10932  0.62609  1.0000
  H   H325      1.0  0.27721  0.13229  0.68990  1.0000
  C   C386      1.0  0.31248  0.17419  0.69255  1.0000
  C   C387      1.0  0.17642  0.10568  0.62755  1.0000
  C   C388      1.0  0.16542  0.12273  0.63007  1.0000
  C   C389      1.0  0.15054  0.13029  0.62133  1.0000
  C   C390      1.0  0.14647  0.12061  0.61034  1.0000
  C   C391      1.0  0.15775  0.10382  0.60746  1.0000
  C   C392      1.0  0.17273  0.09642  0.61599  1.0000
  H   H326      1.0  0.16824  0.12998  0.63898  1.0000
  H   H327      1.0  0.14191  0.14331  0.62355  1.0000
  H   H328      1.0  0.15494  0.09650  0.59863  1.0000
  H   H329      1.0  0.18118  0.08341  0.61384  1.0000
  C   C393      1.0  0.17880  0.00270  0.61399  1.0000
  C   C394      1.0  0.19241  0.00859  0.61878  1.0000
  H   H330      1.0  0.17519  0.20669  0.54484  1.0000
  H   H331      1.0  0.16936  0.01248  0.60629  1.0000
  H   H332      1.0  0.19342  0.02285  0.61474  1.0000
  C   C395      1.0  0.12425  0.32749  0.50841  1.0000
  H   H333      1.0  0.26417  0.20651  0.61749  1.0000
  C   C396      1.0  0.18054  0.13701  0.67713  1.0000
  C   C397      1.0  0.18424  0.19361  0.49744  1.0000
  C   C398      1.0  0.21809  0.05105  0.53332  1.0000
  C   C399      1.0  0.21828  0.04276  0.55167  1.0000
  C   C400      1.0  0.22814  0.04832  0.56140  1.0000
  C   C401      1.0  0.23805  0.06206  0.55276  1.0000
  C   C402      1.0  0.23855  0.06985  0.53416  1.0000
  C   C403      1.0  0.22857  0.06431  0.52441  1.0000
  H   H334      1.0  0.21043  0.03233  0.55857  1.0000
  H   H335      1.0  0.22804  0.04198  0.57561  1.0000
  H   H336      1.0  0.24638  0.08037  0.52738  1.0000
  H   H337      1.0  0.22875  0.07048  0.51014  1.0000
  H   H338      1.0  0.06269  0.28629  0.57682  1.0000
  H   H339      1.0  0.22449  0.10385  0.48668  1.0000
  H   H340      1.0  0.25958  0.01852  0.55547  1.0000
  H   H341      1.0  0.13792  0.30478  0.53744  1.0000
  P   P11       1.0  0.02588  0.22791  0.55139  1.0000
  C   C404      1.0  0.03303  0.23471  0.52689  1.0000
  C   C405      1.0  0.04085  0.23500  0.56163  1.0000
  C   C406      1.0  0.05871  0.23635  0.55195  1.0000
  C   C407      1.0  0.07080  0.24072  0.56007  1.0000
  C   C408      1.0  0.06525  0.24366  0.57793  1.0000
  C   C409      1.0  0.04761  0.24225  0.58770  1.0000
  C   C410      1.0  0.03544  0.23797  0.57960  1.0000
  C   C411      1.0  0.04020  0.22159  0.51583  1.0000
  C   C412      1.0  0.01380  0.17742  0.50737  1.0000
  H   H342      1.0  0.09789  0.03341  0.48569  1.0000
  C   C413      1.0  0.16705  0.35239  0.50367  1.0000
  C   C414      1.0  0.03290  0.25327  0.51894  1.0000
  C   C415      1.0  0.02880  0.20333  0.55748  1.0000
  C   C416      1.0  0.01471  0.19497  0.55747  1.0000
  C   C417      1.0  0.01712  0.17592  0.56156  1.0000
  C   C418      1.0  0.03378  0.16506  0.56520  1.0000
  C   C419      1.0  0.04788  0.17329  0.56523  1.0000
  C   C420      1.0  0.04532  0.19237  0.56165  1.0000
  H   H343      1.0  0.31177  0.36637  0.72272  1.0000
  C   C421      1.0  0.14061  0.01498  0.54252  1.0000
  H   H344      1.0  0.06359  0.23346  0.53833  1.0000
  H   H345      1.0  0.08469  0.24124  0.55270  1.0000
  H   H346      1.0  0.07477  0.24653  0.58436  1.0000
  H   H347      1.0  0.04353  0.24379  0.60182  1.0000
  H   H348      1.0  0.02212  0.23647  0.58771  1.0000
  H   H349      1.0  0.04103  0.20711  0.52153  1.0000
  C   C422      1.0  0.27123  0.21520  0.56480  1.0000
  C   C423      1.0  0.14775  0.41695  0.70549  1.0000
  S   S83       1.0  0.26189  0.19155  0.48446  1.0000
  H   H350      1.0  0.26614  0.33223  0.59464  1.0000
  C   C424      1.0  0.13989  0.31347  0.54538  1.0000
  C   C425      1.0  0.27051  0.29125  0.62458  1.0000
  H   H351      1.0  0.03542  0.15030  0.56892  1.0000
  H   H352      1.0  0.06055  0.16492  0.56875  1.0000
  H   H353      1.0  0.05618  0.19848  0.56229  1.0000
  C   C426      1.0  0.26529  0.19882  0.52431  1.0000
  C   C427      1.0  0.22873  0.20166  0.54228  1.0000
  C   C428      1.0  0.23585  0.21759  0.53480  1.0000
  C   C429      1.0  0.25423  0.21602  0.52582  1.0000
  P   P12       1.0  0.22156  0.23948  0.53823  1.0000
  C   C430      1.0  0.20202  0.24426  0.52791  1.0000
  C   C431      1.0  0.21516  0.23760  0.56276  1.0000
  C   C432      1.0  0.19861  0.23255  0.57261  1.0000
  C   C433      1.0  0.19419  0.23019  0.59168  1.0000
  C   C434      1.0  0.20631  0.23262  0.60108  1.0000
  C   C435      1.0  0.22301  0.23714  0.59143  1.0000
  C   C436      1.0  0.22744  0.23958  0.57237  1.0000
  C   C437      1.0  0.18641  0.25704  0.53372  1.0000
  C   C438      1.0  0.17185  0.26229  0.52463  1.0000
  C   C439      1.0  0.17296  0.25513  0.50942  1.0000
  C   C440      1.0  0.18865  0.24274  0.50327  1.0000
  C   C441      1.0  0.20312  0.23721  0.51253  1.0000
  C   C442      1.0  0.23272  0.25840  0.52648  1.0000
  C   C443      1.0  0.24045  0.26017  0.50769  1.0000
  H   H354      1.0  0.26037  0.99670  0.50010  1.0000
  C   C444      1.0  0.24809  0.28885  0.50714  1.0000
  C   C445      1.0  0.23999  0.28744  0.52566  1.0000
  C   C446      1.0  0.23208  0.27247  0.53526  1.0000
  H   H355      1.0  0.27940  0.19774  0.51706  1.0000
  H   H356      1.0  0.21460  0.20266  0.54928  1.0000
  H   H357      1.0  0.26023  0.22792  0.52016  1.0000
  H   H358      1.0  0.18909  0.23036  0.56567  1.0000
  H   H359      1.0  0.18135  0.22643  0.59921  1.0000
  H   H360      1.0  0.20273  0.23117  0.61580  1.0000
  H   H361      1.0  0.23242  0.23903  0.59875  1.0000
  H   H362      1.0  0.24043  0.24310  0.56513  1.0000
  H   H363      1.0  0.18577  0.26347  0.54485  1.0000
  H   H364      1.0  0.16015  0.27263  0.52881  1.0000
  H   H365      1.0  0.16191  0.25961  0.50203  1.0000
  H   H366      1.0  0.99433  0.17963  0.53284  1.0000
  H   H367      1.0  0.21536  0.22798  0.50727  1.0000
  H   H368      1.0  0.24012  0.25010  0.50030  1.0000
  H   H369      1.0  0.15123  0.31143  0.50049  1.0000
  H   H370      1.0  0.31590  0.21037  0.57686  1.0000
  H   H371      1.0  0.23912  0.29836  0.53245  1.0000
  H   H372      1.0  0.22488  0.27244  0.54926  1.0000
  C   C447      1.0  0.22770  0.25420  0.67923  1.0000
  C   C448      1.0  0.25723  0.44137  0.72637  1.0000
  C   C449      1.0  0.11163  0.02975  0.48822  1.0000
  C   C450      1.0  0.13257  0.35443  0.70960  1.0000
  C   C451      1.0  0.29152  0.11028  0.54800  1.0000
  H   H373      1.0  0.30084  0.46087  0.70357  1.0000
  C   C452      1.0  0.26051  0.25057  0.67472  1.0000
  H   H374      1.0  0.18647  0.01884  0.55366  1.0000
  H   H375      1.0  0.27320  0.02356  0.49718  1.0000
  S   S84       1.0  0.99624  0.15603  0.60484  1.0000
  C   C453      1.0  0.17412  0.39735  0.69079  1.0000
  C   C454      1.0  0.16471  0.41481  0.69349  1.0000
  H   H376      1.0  0.99495  0.12721  0.57644  1.0000
  C   C455      1.0  0.00193  0.23751  0.55916  1.0000
  C   C456      1.0  0.14311  0.35296  0.69208  1.0000
  C   C457      1.0  0.13807  0.34403  0.68109  1.0000
  H   H377      1.0  0.26818  0.27762  0.62637  1.0000
  H   H378      1.0  0.31754  0.19950  0.72778  1.0000
  C   C458      1.0  0.30662  0.20196  0.70407  1.0000
  H   H379      1.0  0.30083  0.21646  0.70302  1.0000
  H   H380      1.0  0.17453  0.36862  0.69852  1.0000
  H   H381      1.0  0.26225  0.30040  0.59861  1.0000
  H   H382      1.0  0.10361  0.99070  0.54261  1.0000
  C   C459      1.0  0.99738  0.20610  0.51639  1.0000
  H   H383      1.0  0.21694  0.99679  0.50724  1.0000
  H   H384      1.0  0.06021  0.04156  0.68742  1.0000
  C   C460      1.0  0.11369  0.37963  0.50838  1.0000
  C   C461      1.0  0.00497  0.15705  0.48064  1.0000
  H   H385      1.0  0.24605  0.99187  0.55871  1.0000
  C   C462      1.0  0.28866  0.45557  0.71019  1.0000
  S   S85       1.0  0.30451  0.17940  0.57833  1.0000
  H   H386      1.0  0.18748  0.39559  0.68180  1.0000
  H   H387      1.0  0.21296  0.28160  0.67049  1.0000
  H   H388      1.0  0.31133  0.16762  0.68224  1.0000
  C   C463      1.0  0.31556  0.05752  0.60189  1.0000
  C   C464      1.0  0.10109  0.36122  0.53711  1.0000
  H   H389      1.0  0.14666  0.34250  0.66782  1.0000
  H   H390      1.0  0.11866  0.32950  0.67892  1.0000
  H   H391      1.0  0.21855  0.47843  0.69476  1.0000
  C   C465      1.0  0.02224  0.18733  0.49079  1.0000
  C   C466      1.0  0.27538  0.11343  0.51835  1.0000
  H   H392      1.0  0.24602  0.22849  0.68632  1.0000
  C   C467      1.0  0.30025  0.13515  0.69899  1.0000
  H   H393      1.0  0.00576  0.16966  0.56265  1.0000
  C   C468      1.0  0.30504  0.04671  0.59895  1.0000
  C   C469      1.0  0.27560  0.22248  0.59185  1.0000
  C   C470      1.0  0.24188  0.28036  0.66530  1.0000
  H   H394      1.0  0.08717  0.12486  0.53417  1.0000
  H   H395      1.0  0.14068  0.29022  0.48846  1.0000
  C   C471      1.0  0.15123  0.35056  0.49915  1.0000
  H   H396      1.0  0.19131  0.14496  0.48978  1.0000
  H   H397      1.0  0.26927  0.11455  0.50685  1.0000
  H   H398      1.0  0.13536  0.13697  0.69433  1.0000
  C   C472      1.0  0.11256  0.31280  0.61368  1.0000
  H   H399      1.0  0.13275  0.16831  0.67486  1.0000
  C   C473      1.0  0.20443  0.99605  0.62911  1.0000
  Fe  Fe41      1.0  0.19439  0.30743  0.48156  1.0000
  C   C474      1.0  0.13929  0.33225  0.53825  1.0000
  C   C475      1.0  0.10558  0.32957  0.50878  1.0000
  C   C476      1.0  0.28053  0.29136  0.67591  1.0000
  C   C477      1.0  0.26113  0.20226  0.57579  1.0000
  C   C478      1.0  0.29844  0.30491  0.68856  1.0000
  H   H400      1.0  0.14253  0.35738  0.54351  1.0000
  C   C479      1.0  0.22854  0.13770  0.50519  1.0000
  C   C480      1.0  0.23185  0.12633  0.49276  1.0000
  C   C481      1.0  0.22183  0.11268  0.49634  1.0000
  C   C482      1.0  0.20867  0.11012  0.51249  1.0000
  C   C483      1.0  0.20524  0.12142  0.52515  1.0000
  C   C484      1.0  0.21526  0.13531  0.52129  1.0000
  P   P13       1.0  0.18854  0.11821  0.54638  1.0000
  C   C485      1.0  0.16735  0.13466  0.54490  1.0000
  C   C486      1.0  0.18342  0.09555  0.55257  1.0000
  C   C487      1.0  0.17410  0.09044  0.54189  1.0000
  C   C488      1.0  0.16979  0.07310  0.54665  1.0000
  C   C489      1.0  0.17419  0.06094  0.56246  1.0000
  C   C490      1.0  0.18267  0.06621  0.57364  1.0000
  C   C491      1.0  0.18750  0.08335  0.56863  1.0000
  C   C492      1.0  0.15068  0.13002  0.55496  1.0000
  C   C493      1.0  0.13430  0.14285  0.55420  1.0000
  C   C494      1.0  0.13444  0.16050  0.54378  1.0000
  C   C495      1.0  0.15094  0.16537  0.53407  1.0000
  C   C496      1.0  0.16735  0.15249  0.53457  1.0000
  C   C497      1.0  0.19835  0.12147  0.56380  1.0000
  C   C498      1.0  0.18779  0.13161  0.57697  1.0000
  C   C499      1.0  0.19559  0.13375  0.59053  1.0000
  C   C500      1.0  0.21382  0.12569  0.59117  1.0000
  C   C501      1.0  0.22444  0.11565  0.57804  1.0000
  C   C502      1.0  0.21673  0.11350  0.56442  1.0000
  H   H401      1.0  0.23645  0.14822  0.50236  1.0000
  C   C503      1.0  0.22593  0.98646  0.48257  1.0000
  H   H402      1.0  0.16094  0.01708  0.49709  1.0000
  H   H403      1.0  0.20166  0.09901  0.51510  1.0000
  H   H404      1.0  0.21302  0.14409  0.53091  1.0000
  H   H405      1.0  0.17039  0.09977  0.52971  1.0000
  H   H406      1.0  0.16357  0.06886  0.53776  1.0000
  H   H407      1.0  0.17137  0.04731  0.56585  1.0000
  H   H408      1.0  0.18611  0.05674  0.58587  1.0000
  H   H409      1.0  0.19442  0.08689  0.57735  1.0000
  H   H410      1.0  0.15027  0.11670  0.56384  1.0000
  H   H411      1.0  0.12152  0.13929  0.56223  1.0000
  H   H412      1.0  0.12177  0.17049  0.54350  1.0000
  H   H413      1.0  0.15090  0.17918  0.52624  1.0000
  H   H414      1.0  0.17996  0.15645  0.52696  1.0000
  H   H415      1.0  0.17345  0.13749  0.57715  1.0000
  H   H416      1.0  0.18728  0.14107  0.60098  1.0000
  H   H417      1.0  0.21948  0.12689  0.60214  1.0000
  H   H418      1.0  0.23852  0.10906  0.57862  1.0000
  H   H419      1.0  0.22502  0.10529  0.55459  1.0000
  H   H420      1.0  0.24124  0.29018  0.58061  1.0000
  C   C504      1.0  0.03926  0.25869  0.50013  1.0000
  C   C505      1.0  0.13940  0.99702  0.54286  1.0000
  C   C506      1.0  0.10720  0.25815  0.58153  1.0000
  C   C507      1.0  0.01150  0.16788  0.60842  1.0000
  C   C508      1.0  0.05199  0.15590  0.51792  1.0000
  C   C509      1.0  0.06857  0.14895  0.52377  1.0000
  C   C510      1.0  0.08292  0.22763  0.63893  1.0000
  H   H421      1.0  0.18971  0.23786  0.49100  1.0000
  C   C511      1.0  0.12239  0.33659  0.68741  1.0000
  C   C512      1.0  0.05942  0.28282  0.60622  1.0000
  H   H422      1.0  0.28284  0.07771  0.56795  1.0000
  C   C513      1.0  0.25242  0.99828  0.54529  1.0000
  C   C514      1.0  0.27505  0.32700  0.62010  1.0000
  H   H423      1.0  0.32205  0.21423  0.54325  1.0000
  H   H424      1.0  0.25822  0.25839  0.58176  1.0000
  H   H425      1.0  0.28536  0.04576  0.58403  1.0000
  C   C515      1.0  0.25241  0.99194  0.52979  1.0000
  H   H426      1.0  0.99726  0.25393  0.53274  1.0000
  C   C516      1.0  0.17028  0.16928  0.48476  1.0000
  C   C517      1.0  0.29239  0.07221  0.57702  1.0000
  C   C518      1.0  0.04101  0.14395  0.51784  1.0000
  C   C519      1.0  0.08933  0.29779  0.61155  1.0000
  C   C520      1.0  0.29361  0.05402  0.58636  1.0000
  H   H427      1.0  0.05110  0.27936  0.63569  1.0000
  C   C521      1.0  0.14712  0.02041  0.49472  1.0000
  C   C522      1.0  0.26291  0.26898  0.57067  1.0000
  C   C523      1.0  0.26577  0.20930  0.60280  1.0000
  C   C524      1.0  0.17914  0.15452  0.66573  1.0000
  C   C525      1.0  0.25848  0.14128  0.60663  1.0000
  H   H428      1.0  0.29186  0.17867  0.54728  1.0000
  H   H429      1.0  0.24552  0.11799  0.61559  1.0000
  H   H430      1.0  0.25144  0.31514  0.55591  1.0000
  H   H431      1.0  0.10253  0.38402  0.72611  1.0000
  C   C526      1.0  0.26976  0.11334  0.59496  1.0000
  H   H432      1.0  0.26825  0.09979  0.59500  1.0000
  C   C527      1.0  0.31457  0.07568  0.59237  1.0000
  C   C528      1.0  0.31789  0.07026  0.64855  1.0000
  H   H433      1.0  0.04790  0.17059  0.51358  1.0000
  H   H434      1.0  0.15406  0.22206  0.52375  1.0000
  H   H435      1.0  0.06952  0.24472  0.61769  1.0000
  H   H436      1.0  0.10709  0.29931  0.54040  1.0000
  C   C529      1.0  0.09899  0.32663  0.62051  1.0000
  C   C530      1.0  0.16914  0.20717  0.50262  1.0000
  C   C531      1.0  0.15132  0.17597  0.48703  1.0000
  C   C532      1.0  0.11695  0.34665  0.71596  1.0000
  C   C533      1.0  0.14603  0.04643  0.65621  1.0000
  C   C534      1.0  0.19871  0.18263  0.66171  1.0000
  C   C535      1.0  0.21190  0.18498  0.59767  1.0000
  C   C536      1.0  0.19671  0.18448  0.59131  1.0000
  C   C537      1.0  0.18235  0.17712  0.60337  1.0000
  C   C538      1.0  0.18318  0.17005  0.62176  1.0000
  C   C539      1.0  0.19820  0.17085  0.62838  1.0000
  C   C540      1.0  0.21259  0.17829  0.61616  1.0000
  C   C541      1.0  0.25914  0.26934  0.66697  1.0000
  C   C542      1.0  0.31131  0.23987  0.56867  1.0000
  C   C543      1.0  0.14716  0.33483  0.56591  1.0000
  H   H437      1.0  0.17004  0.12379  0.50087  1.0000
  H   H438      1.0  0.09922  0.40760  0.50232  1.0000
  C   C544      1.0  0.22026  0.14664  0.65362  1.0000
  C   C545      1.0  0.23552  0.15150  0.65643  1.0000
  C   C546      1.0  0.25180  0.13854  0.65748  1.0000
  C   C547      1.0  0.25299  0.12066  0.65576  1.0000
  H   H439      1.0  0.22291  0.19098  0.58836  1.0000
  H   H440      1.0  0.19589  0.18995  0.57712  1.0000
  H   H441      1.0  0.17046  0.17689  0.59855  1.0000
  H   H442      1.0  0.22415  0.17921  0.62111  1.0000
  S   S86       1.0  0.24560  0.39031  0.71492  1.0000
  H   H443      1.0  0.13667  0.13571  0.50339  1.0000
  C   C548      1.0  0.14284  0.34289  0.54873  1.0000
  H   H444      1.0  0.23507  0.16528  0.65768  1.0000
  H   H445      1.0  0.26352  0.14243  0.65959  1.0000
  H   H446      1.0  0.26556  0.11058  0.65674  1.0000
  C   C549      1.0  0.17790  0.20313  0.53157  1.0000
  C   C550      1.0  0.25322  0.28704  0.57013  1.0000
  H   H447      1.0  0.31000  0.04413  0.65677  1.0000
  C   C551      1.0  0.01848  0.19513  0.61320  1.0000
  H   H448      1.0  0.15088  0.10728  0.66954  1.0000
  C   C552      1.0  0.19450  0.20067  0.65188  1.0000
  C   C553      1.0  0.27863  0.31402  0.63581  1.0000
  H   H449      1.0  0.00077  0.22130  0.58663  1.0000
  H   H450      1.0  0.16039  0.17964  0.65731  1.0000
  H   H451      1.0  0.07522  0.05753  0.70166  1.0000
  C   C554      1.0  0.08058  0.32621  0.62271  1.0000
  H   H452      1.0  0.24862  0.14920  0.61588  1.0000
  C   C555      1.0  0.07573  0.31182  0.61831  1.0000
  C   C556      1.0  0.14355  0.30560  0.56285  1.0000
  H   H453      1.0  0.15137  0.30985  0.58602  1.0000
  C   C557      1.0  0.08093  0.04204  0.66268  1.0000
  H   H454      1.0  0.07006  0.33693  0.62806  1.0000
  C   C558      1.0  0.03464  0.28831  0.59019  1.0000
  C   C559      1.0  0.11072  0.09955  0.65298  1.0000
  H   H455      1.0  0.00230  0.23069  0.49680  1.0000
  H   H456      1.0  0.09934  0.09763  0.64841  1.0000
  H   H457      1.0  0.28121  0.23009  0.59831  1.0000
  H   H458      1.0  0.31084  0.26903  0.56285  1.0000
  H   H459      1.0  0.10328  0.04442  0.63975  1.0000
  C   C560      1.0  0.26770  0.01627  0.51064  1.0000
  H   H460      1.0  0.18748  0.00843  0.66887  1.0000
  C   C561      1.0  0.14755  0.14189  0.68648  1.0000
  C   C562      1.0  0.11448  0.36279  0.52091  1.0000
  C   C563      1.0  0.24483  0.24305  0.68076  1.0000
  C   C564      1.0  0.14607  0.15951  0.67560  1.0000
  C   C565      1.0  0.29958  0.23620  0.53601  1.0000
  C   C566      1.0  0.28468  0.12032  0.58348  1.0000
  H   H461      1.0  0.03809  0.11566  0.52503  1.0000
  C   C567      1.0  0.24826  0.27524  0.49814  1.0000
  C   C568      1.0  0.26453  0.29983  0.68659  1.0000
  C   C569      1.0  0.25677  0.12372  0.60656  1.0000
  H   H462      1.0  0.23432  0.17213  0.54661  1.0000
  C   C570      1.0  0.28471  0.44244  0.70303  1.0000
  C   C571      1.0  0.13454  0.00927  0.50458  1.0000
  C   C572      1.0  0.27846  0.22551  0.57273  1.0000
  C   C573      1.0  0.22622  0.98617  0.50064  1.0000
  C   C574      1.0  0.31887  0.12850  0.69949  1.0000
  C   C575      1.0  0.14321  0.03100  0.67012  1.0000
  C   C576      1.0  0.14055  0.08827  0.66084  1.0000
  C   C577      1.0  0.25906  0.30116  0.55623  1.0000
  H   H463      1.0  0.15270  0.07778  0.66224  1.0000
  C   C578      1.0  0.29849  0.09782  0.53624  1.0000
  H   H464      1.0  0.08524  0.31910  0.50219  1.0000
  H   H465      1.0  0.11674  0.09423  0.61901  1.0000
  C   C579      1.0  0.28616  0.13809  0.58331  1.0000
  C   C580      1.0  0.27637  0.29598  0.63816  1.0000
  H   H466      1.0  0.05251  0.21680  0.48868  1.0000
  H   H467      1.0  0.20237  0.18300  0.53557  1.0000
  H   H468      1.0  0.23908  0.10200  0.65089  1.0000
  C   C581      1.0  0.99329  0.23158  0.57732  1.0000
  H   H469      1.0  0.03907  0.27302  0.49404  1.0000
  C   C582      1.0  0.14602  0.14505  0.49839  1.0000
  C   C583      1.0  0.16480  0.13835  0.49696  1.0000
  C   C584      1.0  0.30503  0.19290  0.69123  1.0000
  H   H470      1.0  0.21674  0.00918  0.53498  1.0000
  H   H471      1.0  0.17040  0.99550  0.57561  1.0000
  H   H472      1.0  0.29920  0.26289  0.62709  1.0000
  C   C585      1.0  0.31748  0.48038  0.71610  1.0000
  C   C586      1.0  0.08714  0.37626  0.54070  1.0000
  C   C587      1.0  0.29749  0.29425  0.67677  1.0000
  H   H473      1.0  0.29381  0.43775  0.69118  1.0000
  H   H474      1.0  0.27378  0.21672  0.55017  1.0000
  C   C588      1.0  0.19321  0.18991  0.52631  1.0000
  C   C589      1.0  0.19639  0.18516  0.50929  1.0000
  H   H475      1.0  0.29636  0.27634  0.53273  1.0000
  H   H476      1.0  0.11855  0.28795  0.60373  1.0000
  C   C590      1.0  0.26710  0.30418  0.60883  1.0000
  C   C591      1.0  0.09755  0.29044  0.56936  1.0000
  C   C592      1.0  0.25812  0.18302  0.53179  1.0000
  C   C593      1.0  0.22192  0.12890  0.65092  1.0000
  C   C594      1.0  0.05326  0.28601  0.58985  1.0000
  H   H477      1.0  0.11460  0.23843  0.65554  1.0000
  H   H478      1.0  0.25730  0.13734  0.52692  1.0000
  C   C595      1.0  0.18328  0.99131  0.56676  1.0000
  S   S87       1.0  0.31530  0.18636  0.62267  1.0000
  H   H479      1.0  0.13916  0.03465  0.55852  1.0000
  C   C596      1.0  0.30303  0.08319  0.57975  1.0000
  C   C597      1.0  0.23983  0.18441  0.54082  1.0000
  H   H480      1.0  0.13330  0.06837  0.57297  1.0000
  C   C598      1.0  0.23805  0.11584  0.65249  1.0000
  H   H481      1.0  0.17193  0.16419  0.63060  1.0000
  C   C599      1.0  0.14016  0.40165  0.71477  1.0000
  P   P14       1.0  0.19913  0.16331  0.65235  1.0000
  H   H482      1.0  0.19137  0.20346  0.63844  1.0000
  H   H483      1.0  0.17075  0.42662  0.68655  1.0000
  H   H484      1.0  0.29558  0.08946  0.51276  1.0000
  C   C600      1.0  0.09732  0.04746  0.65319  1.0000
  H   H485      1.0  0.12458  0.26843  0.53582  1.0000
  H   H486      1.0  0.14495  0.03884  0.59268  1.0000
  P   P15       1.0  0.12703  0.06366  0.64913  1.0000
  H   H487      1.0  0.25309  0.31742  0.70612  1.0000
  H   H488      1.0  0.27465  0.16199  0.59500  1.0000
  C   C601      1.0  0.17875  0.03446  0.65187  1.0000
  H   H489      1.0  0.19096  0.22934  0.65184  1.0000
  H   H490      1.0  0.03000  0.29045  0.57756  1.0000
  H   H491      1.0  0.28553  0.24508  0.49553  1.0000
  C   C602      1.0  0.19400  0.21544  0.65952  1.0000
  H   H492      1.0  0.19365  0.12818  0.67844  1.0000
  H   H493      1.0  0.27641  0.34098  0.61856  1.0000
  C   C603      1.0  0.31880  0.10346  0.68575  1.0000
  C   C604      1.0  0.20140  0.19444  0.68702  1.0000
  H   H494      1.0  0.10422  0.06700  0.68515  1.0000
  H   H495      1.0  0.19253  0.03568  0.64479  1.0000
  C   C605      1.0  0.07431  0.13013  0.52965  1.0000
  C   C606      1.0  0.04664  0.28203  0.62287  1.0000
  H   H496      1.0  0.30279  0.25501  0.68358  1.0000
  C   C607      1.0  0.19748  0.21234  0.67705  1.0000
  C   C608      1.0  0.13866  0.05087  0.59851  1.0000
  C   C609      1.0  0.13210  0.06745  0.58744  1.0000
  C   C610      1.0  0.20193  0.17963  0.67943  1.0000
  H   H497      1.0  0.14426  0.29106  0.56824  1.0000
  H   H498      1.0  0.21066  0.12504  0.64785  1.0000
  H   H499      1.0  0.19715  0.22382  0.68287  1.0000
  C   C611      1.0  0.27311  0.14849  0.59490  1.0000
  H   H500      1.0  0.29737  0.14392  0.57428  1.0000
  C   C612      1.0  0.17588  0.01908  0.66556  1.0000
  C   C613      1.0  0.13949  0.10505  0.66523  1.0000
  H   H501      1.0  0.01829  0.28351  0.63607  1.0000
  C   C614      1.0  0.30831  0.22404  0.50287  1.0000
  C   C615      1.0  0.01796  0.14634  0.49096  1.0000
  C   C616      1.0  0.26032  0.00097  0.51241  1.0000
  H   H502      1.0  0.29266  0.14721  0.70431  1.0000
  C   C617      1.0  0.25843  0.19932  0.59480  1.0000
  C   C618      1.0  0.00248  0.14256  0.53012  1.0000
  H   H503      1.0  0.00764  0.28903  0.60708  1.0000
  H   H504      1.0  0.06141  0.31172  0.62030  1.0000
  H   H505      1.0  0.31153  0.30715  0.68914  1.0000
  S   S88       1.0  0.21701  0.44027  0.70705  1.0000
  C   C619      1.0  0.13730  0.04981  0.61714  1.0000
  C   C620      1.0  0.12423  0.08298  0.59500  1.0000
  C   C621      1.0  0.08827  0.25810  0.62353  1.0000
  H   H506      1.0  0.14242  0.03680  0.62548  1.0000
  H   H507      1.0  0.11951  0.09601  0.58644  1.0000
  H   H508      1.0  0.20491  0.16582  0.68734  1.0000
  H   H509      1.0  0.07441  0.03501  0.65649  1.0000
  C   C622      1.0  0.04677  0.22704  0.49707  1.0000
  C   C623      1.0  0.28246  0.31309  0.69927  1.0000
  C   C624      1.0  0.10581  0.05665  0.66110  1.0000
  H   H510      1.0  0.10148  0.34838  0.54699  1.0000
  H   H511      1.0  0.02797  0.26352  0.52735  1.0000
  C   C625      1.0  0.22623  0.27286  0.67161  1.0000
  C   C626      1.0  0.16479  0.13069  0.68731  1.0000
  H   H512      1.0  0.16598  0.11708  0.69587  1.0000
  H   H513      1.0  0.20410  0.19203  0.70062  1.0000
  H   H514      1.0  0.21556  0.24839  0.68380  1.0000
  C   C627      1.0  0.29130  0.12654  0.69105  1.0000
  C   C628      1.0  0.08139  0.05471  0.68813  1.0000
  H   H515      1.0  0.23788  0.99500  0.59536  1.0000
  C   C629      1.0  0.09779  0.06012  0.67870  1.0000
  C   C630      1.0  0.07924  0.24372  0.62596  1.0000
  C   C631      1.0  0.12930  0.06537  0.62488  1.0000
  C   C632      1.0  0.12273  0.08193  0.61365  1.0000
  C   C633      1.0  0.26554  0.31057  0.69825  1.0000
  H   H516      1.0  0.25608  0.19404  0.56952  1.0000
  C   C634      1.0  0.26746  0.02255  0.52616  1.0000
  C   C635      1.0  0.15812  0.01736  0.67470  1.0000
  P   P16       1.0  0.14116  0.98957  0.52196  1.0000
  H   H517      1.0  0.16640  0.05968  0.63618  1.0000
  C   C636      1.0  0.16179  0.16588  0.66553  1.0000
  H   H518      1.0  0.26675  0.16976  0.53030  1.0000
  C   C637      1.0  0.21385  0.45774  0.71920  1.0000
  H   H519      1.0  0.12959  0.02927  0.67727  1.0000
  C   C638      1.0  0.16392  0.04800  0.64707  1.0000
  C   C639      1.0  0.30769  0.25144  0.67024  1.0000
  P   P17       1.0  0.13246  0.34321  0.51663  1.0000
  C   C640      1.0  0.10990  0.11646  0.65698  1.0000
  C   C641      1.0  0.00597  0.18610  0.61051  1.0000
  H   H520      1.0  0.29805  0.20033  0.68017  1.0000
  H   H521      1.0  0.07698  0.15824  0.52375  1.0000
  C   C642      1.0  0.26868  0.12623  0.52965  1.0000
  C   C643      1.0  0.12430  0.11923  0.66306  1.0000
  H   H522      1.0  0.07617  0.21645  0.64042  1.0000
  H   H523      1.0  0.12685  0.31286  0.61236  1.0000
  C   C644      1.0  0.30065  0.11085  0.68419  1.0000
  C   C645      1.0  0.13418  0.99063  0.57609  1.0000
  H   H524      1.0  0.01399  0.20908  0.61520  1.0000
  H   H525      1.0  0.15593  0.00533  0.68522  1.0000
  H   H526      1.0  0.30777  0.17057  0.51734  1.0000
  H   H527      1.0  0.09823  0.12753  0.65504  1.0000
  H   H528      1.0  0.12387  0.13250  0.66564  1.0000
  S   S89       1.0  0.30018  0.14930  0.49539  1.0000
  C   C646      1.0  0.26897  0.43538  0.71110  1.0000
  C   C647      1.0  0.13081  0.30104  0.49437  1.0000
  C   C648      1.0  0.29375  0.23872  0.50583  1.0000
  C   C649      1.0  0.11706  0.27048  0.54932  1.0000
  H   H529      1.0  0.12485  0.24217  0.56223  1.0000
  P   P18       1.0  0.01888  0.15271  0.51162  1.0000
  H   H530      1.0  0.26575  0.42528  0.70556  1.0000
  C   C650      1.0  0.06336  0.11817  0.52991  1.0000
  C   C651      1.0  0.04671  0.12505  0.52419  1.0000
  H   H531      1.0  0.06765  0.10359  0.53478  1.0000
  C   C652      1.0  0.19246  0.00439  0.55468  1.0000
  C   C653      1.0  0.21574  0.47549  0.70956  1.0000
  C   C654      1.0  0.10721  0.28785  0.55192  1.0000
  C   C655      1.0  0.11717  0.25567  0.56418  1.0000
  H   H532      1.0  0.27895  0.30819  0.53185  1.0000
  C   C656      1.0  0.27679  0.46187  0.72545  1.0000
  C   C657      1.0  0.10450  0.24004  0.64747  1.0000
  C   C658      1.0  0.10779  0.29860  0.60894  1.0000
  C   C659      1.0  0.10094  0.25613  0.63444  1.0000
  C   C660      1.0  0.09562  0.22576  0.64961  1.0000
  C   C661      1.0  0.09716  0.27549  0.58423  1.0000
  H   H533      1.0  0.09890  0.21306  0.65926  1.0000
  H   H534      1.0  0.09008  0.30401  0.57120  1.0000
  C   C662      1.0  0.20961  0.99889  0.54402  1.0000
  C   C663      1.0  0.13823  0.02078  0.55888  1.0000
  P   P19       1.0  0.14034  0.36395  0.72468  1.0000
  C   C664      1.0  0.27673  0.12473  0.54440  1.0000
  H   H535      1.0  0.14058  0.43045  0.70784  1.0000
  H   H536      1.0  0.25117  0.29867  0.68571  1.0000
  C   C665      1.0  0.07294  0.04571  0.68012  1.0000
  P   P20       1.0  0.08350  0.27868  0.60641  1.0000
  C   C666      1.0  0.11180  0.33794  0.70482  1.0000
  C   C667      1.0  0.11678  0.01399  0.50109  1.0000
  H   H537      1.0  0.29395  0.10444  0.67753  1.0000
  Fe  Fe42      1.0  0.22722  0.37195  0.71443  1.0000
  C   C668      1.0  0.14744  0.31622  0.57298  1.0000
  H   H538      1.0  0.15065  0.34292  0.57362  1.0000
  P   P21       1.0  0.30084  0.10697  0.56810  1.0000
  C   C669      1.0  0.28926  0.24469  0.52240  1.0000
  C   C670      1.0  0.13476  0.00868  0.57567  1.0000
  H   H539      1.0  0.14328  0.02459  0.52971  1.0000
  Fe  Fe43      1.0  0.21953  0.41059  0.72207  1.0000
  C   C671      1.0  0.29914  0.26124  0.65558  1.0000
  H   H540      1.0  0.27730  0.25541  0.52479  1.0000
  C   C672      1.0  0.09962  0.31737  0.50205  1.0000
  C   C673      1.0  0.31591  0.19237  0.71810  1.0000
  C   C674      1.0  0.28423  0.27915  0.54316  1.0000
  C   C675      1.0  0.26926  0.32209  0.60662  1.0000
  P   P22       1.0  0.29203  0.24181  0.55849  1.0000
  C   C676      1.0  0.30555  0.25588  0.63860  1.0000
  P   P23       1.0  0.27918  0.27943  0.65910  1.0000
  C   C677      1.0  0.13678  0.31316  0.50111  1.0000
  H   H541      1.0  0.13307  0.01298  0.58841  1.0000
  H   H542      1.0  0.09980  0.33191  0.70985  1.0000
  H   H543      1.0  0.16882  0.34866  0.51767  1.0000
  H   H544      1.0  0.28270  0.31831  0.64619  1.0000
  C   C678      1.0  0.08645  0.39296  0.52816  1.0000
  C   C679      1.0  0.29030  0.09928  0.52164  1.0000
  H   H545      1.0  0.07568  0.40464  0.53097  1.0000
  S   S90       1.0  0.20137  0.39311  0.71951  1.0000
  H   H546      1.0  0.09560  0.34063  0.51406  1.0000
  H   H547      1.0  0.27360  0.24160  0.67587  1.0000
  C   C680      1.0  0.31361  0.08867  0.64002  1.0000
  C   C681      1.0  0.13928  0.16386  0.49355  1.0000
  C   C682      1.0  0.17687  0.15042  0.49037  1.0000
  C   C683      1.0  0.14959  0.38400  0.71225  1.0000
  H   H548      1.0  0.24045  0.29482  0.65923  1.0000
  C   C684      1.0  0.11224  0.30312  0.49484  1.0000
  H   H549      1.0  0.30998  0.08668  0.53863  1.0000
  H   H550      1.0  0.24233  0.12791  0.48042  1.0000
  H   H551      1.0  0.14991  0.32366  0.72897  1.0000
  H   H552      1.0  0.12384  0.38134  0.49585  1.0000
  H   H553      1.0  0.03192  0.18029  0.48068  1.0000
  H   H554      1.0  0.12717  0.40372  0.72418  1.0000
  C   C685      1.0  0.09970  0.39463  0.51202  1.0000
  Fe  Fe44      1.0  0.31493  0.16803  0.60446  1.0000
  H   H555      1.0  0.07064  0.14785  0.48446  1.0000
  H   H556      1.0  0.99571  0.16910  0.48481  1.0000
  H   H557      1.0  0.11378  0.21030  0.48657  1.0000
  H   H558      1.0  0.14580  0.19054  0.48385  1.0000
  H   H559      1.0  0.27775  0.08270  0.48651  1.0000
  H   H560      1.0  0.12469  0.16909  0.49499  1.0000
  H   H561      1.0  0.15955  0.21382  0.49371  1.0000
  C   C686      1.0  0.31553  0.16970  0.52742  1.0000
  C   C687      1.0  0.32128  0.16426  0.70696  1.0000
  C   C688      1.0  0.32039  0.22257  0.57661  1.0000
  H   H562      1.0  0.28307  0.32173  0.70809  1.0000
  S   S91       1.0  0.19570  0.08709  0.48158  1.0000
  C   C689      1.0  0.01801  0.20646  0.48695  1.0000
  C   C690      1.0  0.14189  0.03617  0.48192  1.0000
  H   H563      1.0  0.03949  0.12200  0.49294  1.0000
  H   H564      1.0  0.25397  0.27664  0.48363  1.0000
  C   C691      1.0  0.31434  0.22159  0.53277  1.0000
  C   C692      1.0  0.31648  0.17316  0.55755  1.0000
  C   C693      1.0  0.04616  0.24557  0.48920  1.0000
  H   H565      1.0  0.10897  0.34685  0.72967  1.0000
  C   C694      1.0  0.02936  0.13054  0.48538  1.0000
  C   C695      1.0  0.31750  0.25548  0.56872  1.0000
  C   C696      1.0  0.31872  0.21563  0.51623  1.0000
  H   H566      1.0  0.32203  0.11558  0.59023  1.0000
  C   C697      1.0  0.14974  0.35514  0.48068  1.0000
  Fe  Fe45      1.0  0.05360  0.41894  0.84210  1.0000
  S   S92       1.0  0.05509  0.43988  0.81598  1.0000
  S   S93       1.0  0.02673  0.40962  0.85556  1.0000
  Fe  Fe46      1.0  0.09156  0.42101  0.84663  1.0000
  S   S94       1.0  0.09481  0.44295  0.82124  1.0000
  S   S95       1.0  0.11703  0.40996  0.85892  1.0000
  Fe  Fe47      1.0  0.06542  0.45517  0.83084  1.0000
  C   C698      1.0  0.31254  0.46939  0.74889  1.0000
  Fe  Fe48      1.0  0.08433  0.42553  0.80883  1.0000
  S   S96       1.0  0.09816  0.42252  0.77991  1.0000
  S   S97       1.0  0.06294  0.43492  0.85747  1.0000
  S   S98       1.0  0.08217  0.40284  0.83369  1.0000
  H   H567      1.0  0.99499  0.36994  0.88611  1.0000
  S   S99       1.0  0.18107  0.44053  0.90785  1.0000
  S   S100      1.0  0.22606  0.40343  0.90763  1.0000
  Fe  Fe49      1.0  0.31417  0.42587  0.79379  1.0000
  S   S101      1.0  0.30985  0.42363  0.76673  1.0000
  Fe  Fe50      1.0  0.29667  0.44003  0.82875  1.0000
  S   S102      1.0  0.27006  0.45467  0.84341  1.0000
  C   C699      1.0  0.27396  0.44827  0.89669  1.0000
  H   H568      1.0  0.28312  0.45640  0.96723  1.0000
  S   S103      1.0  0.30719  0.45392  0.80013  1.0000
  S   S104      1.0  0.30133  0.41248  0.82177  1.0000
  C   C700      1.0  0.09090  0.38538  0.75424  1.0000
  H   H569      1.0  0.16125  0.48155  0.88673  1.0000
  S   S105      1.0  0.17811  0.37387  0.77226  1.0000
  C   C701      1.0  0.99185  0.41308  0.85077  1.0000
  C   C702      1.0  0.03204  0.45732  0.88872  1.0000
  C   C703      1.0  0.29008  0.41027  0.75045  1.0000
  H   H570      1.0  0.28253  0.46972  0.92583  1.0000
  S   S106      1.0  0.26262  0.36890  0.76347  1.0000
  H   H571      1.0  0.20826  0.44104  0.97955  1.0000
  S   S107      1.0  0.21721  0.40067  0.75240  1.0000
  C   C704      1.0  0.29710  0.40799  0.76609  1.0000
  C   C705      1.0  0.29355  0.39362  0.78088  1.0000
  C   C706      1.0  0.28294  0.38166  0.77997  1.0000
  C   C707      1.0  0.27546  0.38432  0.76450  1.0000
  H   H572      1.0  0.08323  0.38546  0.78311  1.0000
  C   C708      1.0  0.13604  0.47411  0.90271  1.0000
  H   H573      1.0  0.29901  0.39167  0.79295  1.0000
  H   H574      1.0  0.28034  0.37045  0.79135  1.0000
  C   C709      1.0  0.21890  0.38679  0.97882  1.0000
  C   C710      1.0  0.31721  0.35641  0.74985  1.0000
  C   C711      1.0  0.23803  0.41773  0.88960  1.0000
  C   C712      1.0  0.25432  0.41006  0.87883  1.0000
  C   C713      1.0  0.26420  0.42132  0.86457  1.0000
  C   C714      1.0  0.25772  0.44028  0.86089  1.0000
  C   C715      1.0  0.24145  0.44798  0.87165  1.0000
  C   C716      1.0  0.23168  0.43674  0.88605  1.0000
  H   H575      1.0  0.25930  0.39538  0.88155  1.0000
  H   H576      1.0  0.27683  0.41529  0.85649  1.0000
  H   H577      1.0  0.23654  0.46268  0.86905  1.0000
  H   H578      1.0  0.21932  0.44284  0.89448  1.0000
  C   C717      1.0  0.12068  0.40966  0.77783  1.0000
  C   C718      1.0  0.12685  0.39816  0.79316  1.0000
  C   C719      1.0  0.14447  0.38716  0.79119  1.0000
  C   C720      1.0  0.15626  0.38807  0.77401  1.0000
  C   C721      1.0  0.15030  0.39990  0.75868  1.0000
  C   C722      1.0  0.13243  0.41055  0.76059  1.0000
  H   H579      1.0  0.11794  0.39747  0.80652  1.0000
  H   H580      1.0  0.14905  0.37811  0.80310  1.0000
  H   H581      1.0  0.15934  0.40065  0.74538  1.0000
  H   H582      1.0  0.12771  0.41954  0.74874  1.0000
  C   C723      1.0  0.12072  0.41579  0.87819  1.0000
  H   H583      1.0  0.16993  0.45893  0.79583  1.0000
  C   C724      1.0  0.10989  0.42866  0.90560  1.0000
  C   C725      1.0  0.10640  0.42451  0.89024  1.0000
  H   H584      1.0  0.09871  0.43517  0.91501  1.0000
  H   H585      1.0  0.09263  0.42782  0.88787  1.0000
  C   C726      1.0  0.01036  0.41192  0.84222  1.0000
  C   C727      1.0  0.17093  0.35162  0.74059  1.0000
  S   S108      1.0  0.22575  0.35902  0.74421  1.0000
  C   C728      1.0  0.24277  0.45385  0.95905  1.0000
  C   C729      1.0  0.30540  0.47650  0.73294  1.0000
  C   C730      1.0  0.01549  0.41192  0.82347  1.0000
  H   H586      1.0  0.24520  0.43560  0.73259  1.0000
  C   C731      1.0  0.02719  0.47642  0.88552  1.0000
  H   H587      1.0  0.29040  0.42395  0.96459  1.0000
  H   H588      1.0  0.02971  0.41092  0.81674  1.0000
  H   H589      1.0  0.29225  0.44199  0.87197  1.0000
  H   H590      1.0  0.31040  0.34020  0.94278  1.0000
  H   H591      1.0  0.07096  0.47105  0.85798  1.0000
  H   H592      1.0  0.20838  0.44055  0.74585  1.0000
  H   H593      1.0  0.01647  0.47109  0.83150  1.0000
  H   H594      1.0  0.99760  0.43408  0.91006  1.0000
  C   C732      1.0  0.26009  0.46522  0.78851  1.0000
  C   C733      1.0  0.21705  0.37854  0.96548  1.0000
  C   C734      1.0  0.23109  0.37668  0.95017  1.0000
  H   H595      1.0  0.30375  0.46647  0.76209  1.0000
  C   C735      1.0  0.31267  0.13464  0.74550  1.0000
  H   H596      1.0  0.29285  0.36127  0.92017  1.0000
  H   H597      1.0  0.29300  0.42122  0.73893  1.0000
  C   C736      1.0  0.31119  0.39734  0.90500  1.0000
  H   H598      1.0  0.32102  0.39661  0.89220  1.0000
  H   H599      1.0  0.22825  0.45068  0.80377  1.0000
  H   H600      1.0  0.11310  0.36731  0.78953  1.0000
  H   H601      1.0  0.16880  0.46120  0.76365  1.0000
  C   C737      1.0  0.14209  0.41600  0.89662  1.0000
  H   H602      1.0  0.22922  0.46201  0.95814  1.0000
  H   H603      1.0  0.13792  0.35794  0.76463  1.0000
  C   C738      1.0  0.30613  0.35308  0.91556  1.0000
  C   C739      1.0  0.31605  0.34126  0.92828  1.0000
  H   H604      1.0  0.25764  0.38117  0.93626  1.0000
  Fe  Fe51      1.0  0.20125  0.38154  0.74932  1.0000
  H   H605      1.0  0.07792  0.39367  0.75146  1.0000
  H   H606      1.0  0.20902  0.45959  0.85865  1.0000
  H   H607      1.0  0.10149  0.47778  0.82959  1.0000
  C   C740      1.0  0.23455  0.39366  0.97664  1.0000
  C   C741      1.0  0.28490  0.46374  0.91398  1.0000
  H   H608      1.0  0.29630  0.47653  0.84867  1.0000
  H   H609      1.0  0.30576  0.36365  0.88692  1.0000
  C   C742      1.0  0.30153  0.46329  0.90119  1.0000
  C   C743      1.0  0.18593  0.31980  0.74816  1.0000
  C   C744      1.0  0.31046  0.12569  0.76388  1.0000
  C   C745      1.0  0.00388  0.46930  0.82911  1.0000
  C   C746      1.0  0.25583  0.46137  0.96257  1.0000
  C   C747      1.0  0.11070  0.37047  0.77573  1.0000
  C   C748      1.0  0.24899  0.48158  0.79282  1.0000
  C   C749      1.0  0.18455  0.33823  0.74799  1.0000
  C   C750      1.0  0.17341  0.31467  0.74122  1.0000
  C   C751      1.0  0.14549  0.47665  0.83129  1.0000
  S   S109      1.0  0.16014  0.45083  0.94794  1.0000
  C   C752      1.0  0.27127  0.45612  0.91176  1.0000
  H   H610      1.0  0.25107  0.45989  0.74462  1.0000
  C   C753      1.0  0.24862  0.39217  0.96111  1.0000
  H   H611      1.0  0.23645  0.42975  0.95522  1.0000
  C   C754      1.0  0.30434  0.39287  0.93809  1.0000
  C   C755      1.0  0.31708  0.39216  0.92159  1.0000
  H   H612      1.0  0.17010  0.36586  0.74055  1.0000
  H   H613      1.0  0.98950  0.45047  0.80138  1.0000
  C   C756      1.0  0.12772  0.42441  0.90886  1.0000
  C   C757      1.0  0.29259  0.40342  0.90487  1.0000
  C   C758      1.0  0.24695  0.38320  0.94809  1.0000
  C   C759      1.0  0.15786  0.42606  0.78814  1.0000
  C   C760      1.0  0.14342  0.43395  0.80058  1.0000
  C   C761      1.0  0.14542  0.43264  0.81836  1.0000
  C   C762      1.0  0.16190  0.42350  0.82371  1.0000
  C   C763      1.0  0.17647  0.41534  0.81130  1.0000
  C   C764      1.0  0.17414  0.41636  0.79360  1.0000
  P   P24       1.0  0.19731  0.40198  0.81832  1.0000
  C   C765      1.0  0.19548  0.40054  0.84243  1.0000
  C   C766      1.0  0.20035  0.37964  0.81333  1.0000
  C   C767      1.0  0.21690  0.37161  0.80303  1.0000
  C   C768      1.0  0.21869  0.35474  0.79849  1.0000
  C   C769      1.0  0.20404  0.34572  0.80422  1.0000
  C   C770      1.0  0.18756  0.35360  0.81448  1.0000
  C   C771      1.0  0.18565  0.37057  0.81889  1.0000
  C   C772      1.0  0.19406  0.38412  0.85527  1.0000
  C   C773      1.0  0.19328  0.38332  0.87376  1.0000
  C   C774      1.0  0.19408  0.39880  0.87952  1.0000
  C   C775      1.0  0.19540  0.41519  0.86685  1.0000
  C   C776      1.0  0.19599  0.41609  0.84840  1.0000
  C   C777      1.0  0.21703  0.41171  0.80612  1.0000
  C   C778      1.0  0.23288  0.40649  0.81351  1.0000
  C   C779      1.0  0.24894  0.41222  0.80344  1.0000
  C   C780      1.0  0.24935  0.42302  0.78587  1.0000
  C   C781      1.0  0.23362  0.42851  0.77856  1.0000
  C   C782      1.0  0.21746  0.42303  0.78866  1.0000
  H   H614      1.0  0.15612  0.42666  0.77452  1.0000
  H   H615      1.0  0.13045  0.44041  0.79664  1.0000
  H   H616      1.0  0.13393  0.43803  0.82826  1.0000
  H   H617      1.0  0.16274  0.42221  0.83776  1.0000
  H   H618      1.0  0.18465  0.40915  0.78416  1.0000
  H   H619      1.0  0.22835  0.37844  0.79797  1.0000
  H   H620      1.0  0.23131  0.34896  0.79005  1.0000
  H   H621      1.0  0.20525  0.33295  0.80019  1.0000
  H   H622      1.0  0.17598  0.34697  0.81831  1.0000
  H   H623      1.0  0.17256  0.37682  0.82627  1.0000
  H   H624      1.0  0.19362  0.37190  0.85113  1.0000
  H   H625      1.0  0.19208  0.37067  0.88366  1.0000
  H   H626      1.0  0.19367  0.39812  0.89383  1.0000
  H   H627      1.0  0.19604  0.42715  0.87137  1.0000
  H   H628      1.0  0.19683  0.42889  0.83872  1.0000
  H   H629      1.0  0.23301  0.39750  0.82681  1.0000
  H   H630      1.0  0.26124  0.40784  0.80901  1.0000
  H   H631      1.0  0.26189  0.42700  0.77785  1.0000
  H   H632      1.0  0.23400  0.43679  0.76494  1.0000
  H   H633      1.0  0.20561  0.42734  0.78250  1.0000
  H   H634      1.0  0.15583  0.41261  0.89905  1.0000
  H   H635      1.0  0.30408  0.35246  0.75557  1.0000
  C   C783      1.0  0.12932  0.48113  0.82455  1.0000
  H   H636      1.0  0.27778  0.45188  0.76727  1.0000
  C   C784      1.0  0.26391  0.42449  0.95977  1.0000
  H   H637      1.0  0.13880  0.46119  0.89841  1.0000
  Fe  Fe52      1.0  0.18350  0.45830  0.92552  1.0000
  S   S110      1.0  0.13140  0.42957  0.92851  1.0000
  C   C785      1.0  0.00477  0.46041  0.81515  1.0000
  C   C786      1.0  0.02305  0.44745  0.88228  1.0000
  C   C787      1.0  0.09382  0.38068  0.77212  1.0000
  H   H638      1.0  0.02713  0.43265  0.88425  1.0000
  S   S111      1.0  0.20494  0.43806  0.93909  1.0000
  H   H639      1.0  0.19399  0.34222  0.75370  1.0000
  H   H640      1.0  0.30922  0.38911  0.95074  1.0000
  H   H641      1.0  0.13065  0.45029  0.87254  1.0000
  C   C788      1.0  0.00225  0.41284  0.81347  1.0000
  H   H642      1.0  0.18837  0.47514  0.95031  1.0000
  H   H643      1.0  0.26163  0.45300  0.79917  1.0000
  H   H644      1.0  0.14969  0.40475  0.87220  1.0000
  C   C789      1.0  0.26932  0.46464  0.77049  1.0000
  H   H645      1.0  0.22955  0.37045  0.93970  1.0000
  H   H646      1.0  0.26552  0.40977  0.92082  1.0000
  C   C790      1.0  0.00926  0.45663  0.87259  1.0000
  H   H647      1.0  0.10252  0.45786  0.86028  1.0000
  H   H648      1.0  0.26344  0.44218  0.89522  1.0000
  C   C791      1.0  0.13035  0.45879  0.85907  1.0000
  H   H649      1.0  0.31048  0.43834  0.93139  1.0000
  C   C792      1.0  0.29029  0.44800  0.88374  1.0000
  P   P25       1.0  0.26901  0.40048  0.95921  1.0000
  Fe  Fe53      1.0  0.15946  0.43098  0.93132  1.0000
  S   S112      1.0  0.17916  0.40808  0.94511  1.0000
  C   C793      1.0  0.30409  0.45541  0.88597  1.0000
  H   H650      1.0  0.11060  0.46979  0.92079  1.0000
  C   C794      1.0  0.27985  0.40444  0.92130  1.0000
  H   H651      1.0  0.27360  0.40056  0.73768  1.0000
  C   C795      1.0  0.11440  0.46323  0.85222  1.0000
  H   H652      1.0  0.31653  0.45500  0.87569  1.0000
  C   C796      1.0  0.27770  0.38785  0.97942  1.0000
  C   C797      1.0  0.26809  0.48057  0.75675  1.0000
  C   C798      1.0  0.24681  0.43547  0.95758  1.0000
  H   H653      1.0  0.06616  0.48069  0.78375  1.0000
  Fe  Fe54      1.0  0.18143  0.42861  0.96019  1.0000
  C   C799      1.0  0.12195  0.36975  0.74345  1.0000
  H   H654      1.0  0.00267  0.44872  0.86745  1.0000
  C   C800      1.0  0.27308  0.45062  0.96428  1.0000
  H   H655      1.0  0.28802  0.40752  0.89199  1.0000
  Fe  Fe55      1.0  0.20096  0.41957  0.92297  1.0000
  H   H656      1.0  0.23364  0.44636  0.83502  1.0000
  H   H657      1.0  0.30199  0.14589  0.74113  1.0000
  C   C801      1.0  0.28556  0.39862  0.93810  1.0000
  H   H658      1.0  0.25861  0.45619  0.92172  1.0000
  C   C802      1.0  0.16691  0.47232  0.78716  1.0000
  H   H659      1.0  0.00639  0.41274  0.79901  1.0000
  H   H660      1.0  0.25250  0.47541  0.96436  1.0000
  C   C803      1.0  0.31335  0.35439  0.89685  1.0000
  H   H661      1.0  0.01786  0.45551  0.80689  1.0000
  Fe  Fe56      1.0  0.24183  0.37905  0.74519  1.0000
  C   C804      1.0  0.21014  0.45405  0.73831  1.0000
  C   C805      1.0  0.13856  0.41152  0.88146  1.0000
  C   C806      1.0  0.12479  0.36518  0.76147  1.0000
  C   C807      1.0  0.20912  0.46776  0.74767  1.0000
  C   C808      1.0  0.27905  0.39866  0.74975  1.0000
  C   C809      1.0  0.18647  0.47256  0.82327  1.0000
  C   C810      1.0  0.18984  0.47060  0.84080  1.0000
  C   C811      1.0  0.20668  0.46107  0.84506  1.0000
  C   C812      1.0  0.22051  0.45368  0.83177  1.0000
  C   C813      1.0  0.21746  0.45599  0.81420  1.0000
  C   C814      1.0  0.20065  0.46552  0.80985  1.0000
  H   H662      1.0  0.20666  0.46469  0.76245  1.0000
  H   H663      1.0  0.19911  0.46775  0.79588  1.0000
  C   C815      1.0  0.09551  0.47349  0.77957  1.0000
  P   P26       1.0  0.28114  0.47997  0.73374  1.0000
  C   C816      1.0  0.14594  0.46512  0.84858  1.0000
  H   H664      1.0  0.15808  0.46083  0.85419  1.0000
  H   H665      1.0  0.09616  0.45945  0.77906  1.0000
  C   C817      1.0  0.27715  0.43227  0.96279  1.0000
  H   H666      1.0  0.04314  0.45020  0.89571  1.0000
  H   H667      1.0  0.12453  0.46997  0.77680  1.0000
  H   H668      1.0  0.29112  0.36368  0.96819  1.0000
  H   H669      1.0  0.19666  0.30952  0.75371  1.0000
  C   C818      1.0  0.16607  0.47354  0.76900  1.0000
  H   H670      1.0  0.29827  0.13017  0.77360  1.0000
  H   H671      1.0  0.22841  0.47699  0.92604  1.0000
  C   C819      1.0  0.12012  0.47898  0.91540  1.0000
  H   H672      1.0  0.17966  0.47681  0.85115  1.0000
  C   C820      1.0  0.11390  0.47434  0.83491  1.0000
  C   C821      1.0  0.00428  0.47583  0.86934  1.0000
  C   C822      1.0  0.11147  0.47941  0.77837  1.0000
  H   H673      1.0  0.20467  0.37369  0.96696  1.0000
  H   H674      1.0  0.32029  0.34110  0.84096  1.0000
  C   C823      1.0  0.15829  0.34660  0.73361  1.0000
  C   C824      1.0  0.26087  0.45481  0.73334  1.0000
  H   H675      1.0  0.24182  0.48201  0.80678  1.0000
  H   H676      1.0  0.17449  0.30037  0.74129  1.0000
  H   H677      1.0  0.31651  0.37316  0.82388  1.0000
  P   P27       1.0  0.31952  0.47180  0.90526  1.0000
  C   C825      1.0  0.10487  0.37992  0.73995  1.0000
  H   H678      1.0  0.32198  0.10372  0.78389  1.0000
  C   C826      1.0  0.15951  0.32798  0.73414  1.0000
  H   H679      1.0  0.03451  0.48414  0.89002  1.0000
  C   C827      1.0  0.32155  0.36427  0.73130  1.0000
  H   H680      1.0  0.23197  0.65825  0.08850  1.0000
  Fe  Fe57      1.0  0.25180  0.58099  0.09629  1.0000
  S   S113      1.0  0.23166  0.57550  0.12267  1.0000
  S   S114      1.0  0.27651  0.59346  0.09138  1.0000
  Fe  Fe58      1.0  0.22978  0.56998  0.07408  1.0000
  S   S115      1.0  0.20761  0.56421  0.09868  1.0000
  S   S116      1.0  0.23124  0.56194  0.04746  1.0000
  Fe  Fe59      1.0  0.21049  0.58958  0.10561  1.0000
  S   S117      1.0  0.18759  0.61300  0.11220  1.0000
  Fe  Fe60      1.0  0.23091  0.55045  0.11317  1.0000
  S   S118      1.0  0.23321  0.52167  0.12991  1.0000
  S   S119      1.0  0.23074  0.59679  0.07963  1.0000
  S   S120      1.0  0.25287  0.55476  0.08822  1.0000
  C   C828      1.0  0.14399  0.49489  0.02315  1.0000
  Fe  Fe61      1.0  0.10926  0.58670  0.19482  1.0000
  C   C829      1.0  0.29119  0.48624  0.13811  1.0000
  S   S121      1.0  0.11659  0.61191  0.17503  1.0000
  Fe  Fe62      1.0  0.10789  0.54693  0.20019  1.0000
  H   H681      1.0  0.02634  0.57376  0.17874  1.0000
  H   H682      1.0  0.23554  0.65288  0.21736  1.0000
  H   H683      1.0  0.25238  0.48992  0.17097  1.0000
  S   S122      1.0  0.08871  0.57289  0.19102  1.0000
  S   S123      1.0  0.12959  0.56089  0.20121  1.0000
  C   C830      1.0  0.24985  0.58018  0.16397  1.0000
  S   S124      1.0  0.30539  0.58079  0.18959  1.0000
  C   C831      1.0  0.29167  0.52506  0.10846  1.0000
  C   C832      1.0  0.13994  0.61607  0.20853  1.0000
  H   H684      1.0  0.11850  0.58037  0.00227  1.0000
  H   H685      1.0  0.32013  0.62528  0.14139  1.0000
  Fe  Fe63      1.0  0.30772  0.60308  0.20190  1.0000
  C   C833      1.0  0.02237  0.57547  0.19276  1.0000
  C   C834      1.0  0.29085  0.62876  0.14924  1.0000
  H   H686      1.0  0.22232  0.55452  0.01676  1.0000
  C   C835      1.0  0.07305  0.49913  0.21560  1.0000
  C   C836      1.0  0.12644  0.49592  0.22869  1.0000
  H   H687      1.0  0.20747  0.59802  0.04641  1.0000
  C   C837      1.0  0.25589  0.53581  0.99536  1.0000
  H   H688      1.0  0.16867  0.49370  0.11617  1.0000
  H   H689      1.0  0.17246  0.49649  0.01173  1.0000
  H   H690      1.0  0.27634  0.63408  0.98939  1.0000
  C   C838      1.0  0.29077  0.59237  0.10635  1.0000
  C   C839      1.0  0.28883  0.58226  0.12442  1.0000
  C   C840      1.0  0.30144  0.58154  0.13516  1.0000
  C   C841      1.0  0.15989  0.49809  0.14386  1.0000
  H   H691      1.0  0.13596  0.55549  0.02207  1.0000
  C   C842      1.0  0.30496  0.60196  0.09934  1.0000
  H   H692      1.0  0.27789  0.57480  0.12996  1.0000
  H   H693      1.0  0.30020  0.57351  0.14894  1.0000
  C   C843      1.0  0.27257  0.48813  0.14616  1.0000
  H   H694      1.0  0.30649  0.60990  0.08547  1.0000
  C   C844      1.0  0.16818  0.61123  0.12990  1.0000
  C   C845      1.0  0.16472  0.59453  0.14116  1.0000
  C   C846      1.0  0.14891  0.59436  0.15528  1.0000
  C   C847      1.0  0.13675  0.61086  0.15805  1.0000
  C   C848      1.0  0.14031  0.62734  0.14668  1.0000
  C   C849      1.0  0.15584  0.62751  0.13267  1.0000
  H   H695      1.0  0.17411  0.58185  0.13896  1.0000
  H   H696      1.0  0.14606  0.58155  0.16388  1.0000
  H   H697      1.0  0.13094  0.64009  0.14866  1.0000
  H   H698      1.0  0.15835  0.64041  0.12395  1.0000
  C   C850      1.0  0.22670  0.50870  0.11781  1.0000
  C   C851      1.0  0.22239  0.51696  0.10068  1.0000
  C   C852      1.0  0.21466  0.50796  0.09196  1.0000
  H   H699      1.0  0.31189  0.64075  0.20664  1.0000
  H   H700      1.0  0.15523  0.51023  0.06368  1.0000
  C   C853      1.0  0.27944  0.48638  0.17557  1.0000
  H   H701      1.0  0.22518  0.53027  0.09393  1.0000
  H   H702      1.0  0.21113  0.51469  0.07885  1.0000
  H   H703      1.0  0.28509  0.55448  0.10392  1.0000
  C   C854      1.0  0.31028  0.53912  0.17346  1.0000
  H   H704      1.0  0.28072  0.51253  0.08455  1.0000
  C   C855      1.0  0.31369  0.50324  0.21866  1.0000
  S   S125      1.0  0.11432  0.52412  0.18489  1.0000
  H   H705      1.0  0.14123  0.60496  0.20177  1.0000
  H   H706      1.0  0.21637  0.55236  0.21373  1.0000
  H   H707      1.0  0.22089  0.54300  0.16025  1.0000
  C   C856      1.0  0.19272  0.59542  0.00922  1.0000
  C   C857      1.0  0.19449  0.60261  0.02348  1.0000
  C   C858      1.0  0.20612  0.59237  0.03548  1.0000
  C   C859      1.0  0.21603  0.57493  0.03319  1.0000
  C   C860      1.0  0.21446  0.56788  0.01875  1.0000
  C   C861      1.0  0.20279  0.57805  0.00684  1.0000
  H   H708      1.0  0.18676  0.61608  0.02533  1.0000
  C   C862      1.0  0.25346  0.60089  0.01511  1.0000
  C   C863      1.0  0.26174  0.61597  0.01082  1.0000
  C   C864      1.0  0.21218  0.49011  0.09978  1.0000
  C   C865      1.0  0.01224  0.57989  0.22898  1.0000
  H   H709      1.0  0.00226  0.51271  0.12259  1.0000
  H   H710      1.0  0.01920  0.58681  0.11601  1.0000
  H   H711      1.0  0.25607  0.55765  0.18609  1.0000
  H   H712      1.0  0.09195  0.50379  0.10308  1.0000
  C   C866      1.0  0.99992  0.51625  0.13580  1.0000
  H   H713      1.0  0.29682  0.82220  0.02615  1.0000
  C   C867      1.0  0.19393  0.60803  0.21575  1.0000
  C   C868      1.0  0.29111  0.88759  0.19805  1.0000
  C   C869      1.0  0.01089  0.57852  0.11379  1.0000
  C   C870      1.0  0.12248  0.62592  0.21461  1.0000
  S   S126      1.0  0.17761  0.60822  0.99478  1.0000
  H   H714      1.0  0.26705  0.57598  0.20150  1.0000
  H   H715      1.0  0.25717  0.63140  0.09356  1.0000
  H   H716      1.0  0.08938  0.53494  0.08347  1.0000
  C   C871      1.0  0.18517  0.53474  0.02077  1.0000
  H   H717      1.0  0.02846  0.51083  0.13623  1.0000
  H   H718      1.0  0.20215  0.65850  0.21882  1.0000
  C   C872      1.0  0.01914  0.56304  0.10623  1.0000
  H   H719      1.0  0.20224  0.53409  0.03920  1.0000
  C   C873      1.0  0.30016  0.52952  0.15096  1.0000
  S   S127      1.0  0.31597  0.53677  0.22287  1.0000
  C   C874      1.0  0.10335  0.49245  0.18749  1.0000
  H   H720      1.0  0.26125  0.62303  0.02146  1.0000
  C   C875      1.0  0.17467  0.57310  0.21960  1.0000
  C   C876      1.0  0.22454  0.49067  0.12559  1.0000
  C   C877      1.0  0.10530  0.56254  0.99523  1.0000
  H   H721      1.0  0.13736  0.49331  0.10788  1.0000
  H   H722      1.0  0.22610  0.66584  0.14296  1.0000
  H   H723      1.0  0.15389  0.49902  0.17227  1.0000
  H   H724      1.0  0.26717  0.60864  0.18821  1.0000
  C   C878      1.0  0.22484  0.60567  0.21937  1.0000
  C   C879      1.0  0.20539  0.65188  0.19253  1.0000
  C   C880      1.0  0.29641  0.53507  0.16759  1.0000
  C   C881      1.0  0.30754  0.65233  0.14641  1.0000
  C   C882      1.0  0.03585  0.57473  0.20239  1.0000
  C   C883      1.0  0.28477  0.87678  0.21487  1.0000
  H   H725      1.0  0.09779  0.57357  0.98641  1.0000
  C   C884      1.0  0.99375  0.52456  0.17034  1.0000
  C   C885      1.0  0.22747  0.66363  0.11556  1.0000
  H   H726      1.0  0.25346  0.50432  0.21690  1.0000
  C   C886      1.0  0.26227  0.60084  0.18130  1.0000
  C   C887      1.0  0.10659  0.51509  0.13956  1.0000
  C   C888      1.0  0.11580  0.50111  0.13006  1.0000
  C   C889      1.0  0.12982  0.50434  0.11486  1.0000
  C   C890      1.0  0.13486  0.52141  0.10935  1.0000
  C   C891      1.0  0.12554  0.53557  0.11877  1.0000
  C   C892      1.0  0.11148  0.53219  0.13403  1.0000
  P   P28       1.0  0.13451  0.55598  0.11456  1.0000
  C   C893      1.0  0.14526  0.56315  0.09100  1.0000
  C   C894      1.0  0.11641  0.57499  0.11995  1.0000
  C   C895      1.0  0.11914  0.58761  0.12872  1.0000
  C   C896      1.0  0.10511  0.60243  0.13272  1.0000
  C   C897      1.0  0.08843  0.60503  0.12758  1.0000
  C   C898      1.0  0.08581  0.59283  0.11832  1.0000
  C   C899      1.0  0.09973  0.57781  0.11455  1.0000
  C   C900      1.0  0.15810  0.57438  0.08669  1.0000
  C   C901      1.0  0.16666  0.57989  0.06852  1.0000
  C   C902      1.0  0.16224  0.57453  0.05450  1.0000
  C   C903      1.0  0.14900  0.56391  0.05862  1.0000
  C   C904      1.0  0.14036  0.55839  0.07679  1.0000
  C   C905      1.0  0.15046  0.54973  0.12961  1.0000
  C   C906      1.0  0.16914  0.54350  0.12299  1.0000
  C   C907      1.0  0.18103  0.53610  0.13514  1.0000
  C   C908      1.0  0.17439  0.53425  0.15394  1.0000
  C   C909      1.0  0.15580  0.54019  0.16065  1.0000
  C   C910      1.0  0.14389  0.54808  0.14855  1.0000
  H   H727      1.0  0.09627  0.51248  0.15181  1.0000
  C   C911      1.0  0.17345  0.54962  0.20450  1.0000
  S   S128      1.0  0.28195  0.62146  0.21336  1.0000
  H   H728      1.0  0.14664  0.52317  0.09841  1.0000
  H   H729      1.0  0.10494  0.54239  0.14234  1.0000
  H   H730      1.0  0.13211  0.58611  0.13236  1.0000
  H   H731      1.0  0.10723  0.61199  0.13976  1.0000
  H   H732      1.0  0.07764  0.61659  0.13070  1.0000
  H   H733      1.0  0.07296  0.59504  0.11411  1.0000
  H   H734      1.0  0.09757  0.56846  0.10736  1.0000
  H   H735      1.0  0.16159  0.57886  0.09735  1.0000
  H   H736      1.0  0.17671  0.58838  0.06532  1.0000
  H   H737      1.0  0.16892  0.57878  0.04041  1.0000
  H   H738      1.0  0.14550  0.56002  0.04767  1.0000
  H   H739      1.0  0.12988  0.55049  0.07967  1.0000
  H   H740      1.0  0.17455  0.54370  0.10858  1.0000
  H   H741      1.0  0.19534  0.53131  0.12995  1.0000
  H   H742      1.0  0.18364  0.52793  0.16327  1.0000
  H   H743      1.0  0.15045  0.53820  0.17525  1.0000
  H   H744      1.0  0.12943  0.55212  0.15408  1.0000
  C   C912      1.0  0.31793  0.52746  0.14048  1.0000
  C   C913      1.0  0.15679  0.49147  0.20962  1.0000
  H   H745      1.0  0.15291  0.51206  0.14005  1.0000
  C   C914      1.0  0.26302  0.59746  0.98340  1.0000
  H   H746      1.0  0.18309  0.51822  0.06637  1.0000
  C   C915      1.0  0.17913  0.52172  0.05320  1.0000
  C   C916      1.0  0.21781  0.64605  0.17742  1.0000
  C   C917      1.0  0.17661  0.58553  0.20276  1.0000
  C   C918      1.0  0.30739  0.63459  0.14527  1.0000
  C   C919      1.0  0.27030  0.62212  0.99278  1.0000
  H   H747      1.0  0.11685  0.48885  0.03256  1.0000
  C   C920      1.0  0.21770  0.52418  0.21263  1.0000
  H   H748      1.0  0.25739  0.64305  0.19071  1.0000
  C   C921      1.0  0.21950  0.51236  0.20082  1.0000
  C   C922      1.0  0.24927  0.59885  0.15672  1.0000
  C   C923      1.0  0.26354  0.49771  0.07929  1.0000
  C   C924      1.0  0.11038  0.52645  0.06111  1.0000
  C   C925      1.0  0.21174  0.65443  0.20690  1.0000
  C   C926      1.0  0.12560  0.53389  0.01727  1.0000
  C   C927      1.0  0.23262  0.65784  0.13256  1.0000
  H   H749      1.0  0.21819  0.60558  0.19418  1.0000
  H   H750      1.0  0.22164  0.51008  0.17299  1.0000
  H   H751      1.0  0.21270  0.64347  0.16677  1.0000
  C   C928      1.0  0.10357  0.54452  0.99731  1.0000
  H   H752      1.0  0.27808  0.52374  0.11631  1.0000
  Fe  Fe64      1.0  0.07749  0.57153  0.22099  1.0000
  C   C929      1.0  0.31267  0.54459  0.09073  1.0000
  C   C930      1.0  0.28167  0.48579  0.10288  1.0000
  C   C931      1.0  0.06424  0.48957  0.16464  1.0000
  H   H753      1.0  0.24541  0.57209  0.15701  1.0000
  H   H754      1.0  0.26183  0.66842  0.15801  1.0000
  C   C932      1.0  0.16046  0.49056  0.16223  1.0000
  C   C933      1.0  0.27430  0.64081  0.15406  1.0000
  H   H755      1.0  0.20159  0.57246  0.99583  1.0000
  C   C934      1.0  0.31598  0.86258  0.21767  1.0000
  C   C935      1.0  0.22054  0.51917  0.18204  1.0000
  C   C936      1.0  0.16330  0.51720  0.05158  1.0000
  H   H756      1.0  0.29101  0.61495  0.14838  1.0000
  C   C937      1.0  0.23051  0.65134  0.20607  1.0000
  C   C938      1.0  0.08438  0.51196  0.20809  1.0000
  H   H757      1.0  0.16492  0.64008  0.22045  1.0000
  H   H758      1.0  0.10674  0.64790  0.22805  1.0000
  H   H759      1.0  0.30735  0.54338  0.18638  1.0000
  C   C939      1.0  0.11698  0.56635  0.00423  1.0000
  C   C940      1.0  0.25024  0.63877  0.10446  1.0000
  C   C941      1.0  0.98926  0.55746  0.10786  1.0000
  H   H760      1.0  0.28938  0.52639  0.14642  1.0000
  P   P29       1.0  0.25284  0.63394  0.15779  1.0000
  C   C942      1.0  0.02406  0.49485  0.20878  1.0000
  H   H761      1.0  0.20737  0.59829  0.17125  1.0000
  C   C943      1.0  0.27584  0.49988  0.08866  1.0000
  H   H762      1.0  0.21678  0.67563  0.11317  1.0000
  C   C944      1.0  0.12702  0.55214  0.01529  1.0000
  H   H763      1.0  0.22030  0.49785  0.20604  1.0000
  C   C945      1.0  0.21881  0.54955  0.18635  1.0000
  H   H764      1.0  0.25873  0.50876  0.06866  1.0000
  C   C946      1.0  0.30504  0.50946  0.10505  1.0000
  H   H765      1.0  0.28282  0.53610  0.17600  1.0000
  C   C947      1.0  0.31759  0.60098  0.10982  1.0000
  C   C948      1.0  0.29109  0.66444  0.15112  1.0000
  C   C949      1.0  0.22018  0.53776  0.17481  1.0000
  C   C950      1.0  0.00380  0.57815  0.20130  1.0000
  H   H766      1.0  0.07071  0.49945  0.16676  1.0000
  H   H767      1.0  0.11196  0.51650  0.00958  1.0000
  H   H768      1.0  0.23848  0.51914  0.99281  1.0000
  H   H769      1.0  0.14514  0.51378  0.22400  1.0000
  P   P30       1.0  0.17800  0.60876  0.20184  1.0000
  H   H770      1.0  0.03389  0.55924  0.10261  1.0000
  H   H771      1.0  0.21810  0.56403  0.18082  1.0000
  C   C951      1.0  0.12310  0.51175  0.05462  1.0000
  C   C952      1.0  0.25389  0.59182  0.00143  1.0000
  C   C953      1.0  0.26205  0.55228  0.98852  1.0000
  C   C954      1.0  0.25606  0.57198  0.18020  1.0000
  C   C955      1.0  0.26674  0.48835  0.16483  1.0000
  C   C956      1.0  0.01470  0.51520  0.14358  1.0000
  C   C957      1.0  0.01170  0.51873  0.16120  1.0000
  C   C958      1.0  0.31202  0.64548  0.21866  1.0000
  P   P31       1.0  0.03072  0.51390  0.17244  1.0000
  C   C959      1.0  0.02248  0.51196  0.19680  1.0000
  C   C960      1.0  0.16939  0.53020  0.01907  1.0000
  C   C961      1.0  0.23609  0.65393  0.10160  1.0000
  C   C962      1.0  0.01453  0.52785  0.20394  1.0000
  H   H772      1.0  0.29118  0.67823  0.15191  1.0000
  H   H773      1.0  0.26253  0.48960  0.13808  1.0000
  H   H774      1.0  0.16951  0.49610  0.20370  1.0000
  C   C963      1.0  0.15319  0.63578  0.21899  1.0000
  C   C964      1.0  0.04333  0.53210  0.16501  1.0000
  C   C965      1.0  0.04025  0.54631  0.14993  1.0000
  C   C966      1.0  0.05000  0.56046  0.14482  1.0000
  C   C967      1.0  0.06285  0.56044  0.15471  1.0000
  C   C968      1.0  0.06594  0.54632  0.16970  1.0000
  C   C969      1.0  0.05603  0.53239  0.17497  1.0000
  C   C970      1.0  0.25548  0.63303  0.12139  1.0000
  C   C971      1.0  0.15544  0.62079  0.21085  1.0000
  C   C972      1.0  0.11346  0.49136  0.08332  1.0000
  C   C973      1.0  0.00813  0.52663  0.22275  1.0000
  H   H775      1.0  0.99093  0.52761  0.18382  1.0000
  C   C974      1.0  0.31385  0.66340  0.21707  1.0000
  H   H776      1.0  0.01307  0.54119  0.19491  1.0000
  C   C975      1.0  0.21765  0.54283  0.20515  1.0000
  C   C976      1.0  0.27449  0.65878  0.15472  1.0000
  H   H777      1.0  0.24679  0.58065  0.00504  1.0000
  H   H778      1.0  0.26670  0.62142  0.12323  1.0000
  H   H779      1.0  0.03005  0.54673  0.14244  1.0000
  H   H780      1.0  0.04730  0.57167  0.13350  1.0000
  H   H781      1.0  0.07013  0.57153  0.15116  1.0000
  H   H782      1.0  0.07574  0.54631  0.17753  1.0000
  H   H783      1.0  0.05813  0.52186  0.18696  1.0000
  H   H784      1.0  0.24388  0.60487  0.14448  1.0000
  C   C977      1.0  0.24617  0.64201  0.13585  1.0000
  C   C978      1.0  0.11356  0.53027  0.00836  1.0000
  C   C979      1.0  0.21276  0.60627  0.20837  1.0000
  H   H785      1.0  0.28164  0.80628  0.05620  1.0000
  H   H786      1.0  0.17196  0.53585  0.20525  1.0000
  H   H787      1.0  0.11512  0.48972  0.17669  1.0000
  C   C980      1.0  0.18492  0.62038  0.17838  1.0000
  H   H788      1.0  0.21433  0.61281  0.13845  1.0000
  C   C981      1.0  0.17633  0.57996  0.18693  1.0000
  C   C982      1.0  0.17504  0.56204  0.18776  1.0000
  C   C983      1.0  0.01788  0.49366  0.22763  1.0000
  C   C984      1.0  0.09968  0.50852  0.19416  1.0000
  C   C985      1.0  0.25552  0.60936  0.16533  1.0000
  C   C986      1.0  0.17478  0.63759  0.17144  1.0000
  C   C987      1.0  0.17926  0.64589  0.15300  1.0000
  C   C988      1.0  0.19370  0.63703  0.14123  1.0000
  C   C989      1.0  0.20384  0.61997  0.14793  1.0000
  C   C990      1.0  0.19967  0.61176  0.16646  1.0000
  H   H789      1.0  0.05007  0.57251  0.19573  1.0000
  C   C991      1.0  0.24292  0.64577  0.19086  1.0000
  C   C992      1.0  0.23668  0.64322  0.17632  1.0000
  C   C993      1.0  0.15825  0.52148  0.03449  1.0000
  H   H790      1.0  0.10911  0.54016  0.05277  1.0000
  H   H791      1.0  0.17668  0.58947  0.17395  1.0000
  H   H792      1.0  0.17484  0.55803  0.17542  1.0000
  C   C994      1.0  0.04514  0.49250  0.16739  1.0000
  H   H793      1.0  0.08112  0.52460  0.21289  1.0000
  C   C995      1.0  0.00833  0.55260  0.10313  1.0000
  H   H794      1.0  0.16304  0.64447  0.18000  1.0000
  H   H795      1.0  0.17099  0.65882  0.14762  1.0000
  H   H796      1.0  0.19652  0.64295  0.12672  1.0000
  C   C996      1.0  0.26224  0.58231  0.18887  1.0000
  C   C997      1.0  0.29552  0.54251  0.10137  1.0000
  C   C998      1.0  0.13568  0.64539  0.22537  1.0000
  C   C999      1.0  0.14304  0.50155  0.22106  1.0000
  S   S129      1.0  0.09639  0.58790  0.22424  1.0000
  C   C1000     1.0  0.10061  0.50600  0.08956  1.0000
  H   H797      1.0  0.19084  0.65402  0.19329  1.0000
  C   C1001     1.0  0.24362  0.53168  0.98726  1.0000
  H   H798      1.0  0.01471  0.54076  0.09699  1.0000
  H   H799      1.0  0.26030  0.52643  0.00724  1.0000
  C   C1002     1.0  0.09917  0.52356  0.07852  1.0000
  C   C1003     1.0  0.29720  0.86430  0.22468  1.0000
  H   H800      1.0  0.27145  0.55533  0.99503  1.0000
  C   C1004     1.0  0.99881  0.58042  0.21944  1.0000
  C   C1005     1.0  0.30989  0.88591  0.19099  1.0000
  C   C1006     1.0  0.19000  0.53057  0.03784  1.0000
  H   H801      1.0  0.24646  0.59632  0.02902  1.0000
  H   H802      1.0  0.16600  0.53339  0.00567  1.0000
  H   H803      1.0  0.19371  0.54140  0.00877  1.0000
  P   P32       1.0  0.13787  0.51553  0.03231  1.0000
  C   C1007     1.0  0.16839  0.48765  0.13050  1.0000
  C   C1008     1.0  0.29642  0.80406  0.05253  1.0000
  H   H804      1.0  0.27021  0.87813  0.22032  1.0000
  H   H805      1.0  0.28147  0.89734  0.19047  1.0000
  H   H806      1.0  0.31442  0.89448  0.17799  1.0000
  H   H807      1.0  0.30032  0.78523  0.07781  1.0000
  H   H808      1.0  0.31530  0.55826  0.08495  1.0000
  C   C1009     1.0  0.03082  0.57699  0.22055  1.0000
  H   H809      1.0  0.30043  0.50536  0.22768  1.0000
  H   H810      1.0  0.15419  0.51722  0.98537  1.0000
  H   H811      1.0  0.31532  0.67252  0.20378  1.0000
  H   H812      1.0  0.32041  0.65667  0.14358  1.0000
  C   C1010     1.0  0.12033  0.64044  0.22320  1.0000
  C   C1011     1.0  0.12473  0.49422  0.06595  1.0000
  C   C1012     1.0  0.17306  0.55523  0.22042  1.0000
  C   C1013     1.0  0.30695  0.79220  0.06469  1.0000
  H   H813      1.0  0.27489  0.48618  0.19004  1.0000
  P   P33       1.0  0.29907  0.48728  0.11386  1.0000
  H   H814      1.0  0.09469  0.54161  0.99008  1.0000
  H   H815      1.0  0.23928  0.60472  0.21378  1.0000
  C   C1014     1.0  0.99185  0.58355  0.11830  1.0000
  H   H816      1.0  0.32082  0.52255  0.12796  1.0000
  C   C1015     1.0  0.30496  0.81303  0.03561  1.0000
  H   H817      1.0  0.11254  0.48761  0.13486  1.0000
  C   C1016     1.0  0.31611  0.59063  0.12764  1.0000
  H   H818      1.0  0.11061  0.62237  0.21248  1.0000
  C   C1017     1.0  0.25039  0.49316  0.22819  1.0000
  C   C1018     1.0  0.16182  0.48900  0.01363  1.0000
  H   H819      1.0  0.00177  0.53899  0.22806  1.0000
  H   H820      1.0  0.06120  0.50175  0.22629  1.0000
  C   C1019     1.0  0.32028  0.48692  0.21196  1.0000
  H   H821      1.0  0.19665  0.49120  0.22868  1.0000
  H   H822      1.0  0.28687  0.58297  0.22932  1.0000
  C   C1020     1.0  0.25119  0.55111  0.34875  1.0000
  C   C1021     1.0  0.29000  0.71596  0.38904  1.0000
  S   S130      1.0  0.13344  0.55161  0.25189  1.0000
  C   C1022     1.0  0.24989  0.62805  0.30503  1.0000
  H   H823      1.0  0.20838  0.81976  0.46394  1.0000
  Fe  Fe65      1.0  0.11082  0.81476  0.42590  1.0000
  S   S131      1.0  0.09493  0.84181  0.41330  1.0000
  S   S132      1.0  0.13861  0.80108  0.41213  1.0000
  Fe  Fe66      1.0  0.08337  0.81203  0.46176  1.0000
  S   S133      1.0  0.06475  0.83839  0.45238  1.0000
  C   C1023     1.0  0.29556  0.52276  0.27011  1.0000
  Fe  Fe67      1.0  0.07028  0.82904  0.42599  1.0000
  S   S134      1.0  0.04720  0.83415  0.41117  1.0000
  Fe  Fe68      1.0  0.09061  0.84893  0.44072  1.0000
  S   S135      1.0  0.09216  0.87501  0.44738  1.0000
  S   S136      1.0  0.08649  0.80145  0.43645  1.0000
  S   S137      1.0  0.10884  0.82327  0.45203  1.0000
  H   H824      1.0  0.29230  0.85598  0.23777  1.0000
  S   S138      1.0  0.18967  0.89172  0.46117  1.0000
  H   H825      1.0  0.03406  0.75672  0.38514  1.0000
  H   H826      1.0  0.07397  0.51276  0.24989  1.0000
  Fe  Fe69      1.0  0.20940  0.91066  0.45107  1.0000
  S   S139      1.0  0.23902  0.89834  0.45143  1.0000
  C   C1024     1.0  0.30418  0.48969  0.27733  1.0000
  H   H827      1.0  0.27800  0.55524  0.33410  1.0000
  H   H828      1.0  0.10429  0.58285  0.44050  1.0000
  H   H829      1.0  0.23782  0.97366  0.45936  1.0000
  S   S140      1.0  0.30644  0.78047  0.43089  1.0000
  Fe  Fe70      1.0  0.28534  0.79893  0.44762  1.0000
  S   S141      1.0  0.26124  0.81762  0.43664  1.0000
  Fe  Fe71      1.0  0.30212  0.75826  0.45583  1.0000
  S   S142      1.0  0.29742  0.73001  0.45812  1.0000
  Fe  Fe72      1.0  0.18336  0.70041  0.43574  1.0000
  S   S143      1.0  0.20521  0.69851  0.41046  1.0000
  S   S144      1.0  0.15411  0.71482  0.43694  1.0000
  Fe  Fe73      1.0  0.20795  0.67731  0.46164  1.0000
  S   S145      1.0  0.23220  0.67302  0.43850  1.0000
  H   H830      1.0  0.28360  0.53053  0.31734  1.0000
  Fe  Fe74      1.0  0.22289  0.70305  0.42733  1.0000
  S   S146      1.0  0.24001  0.72467  0.41501  1.0000
  Fe  Fe75      1.0  0.21257  0.66866  0.42336  1.0000
  S   S147      1.0  0.22055  0.64479  0.40829  1.0000
  S   S148      1.0  0.20014  0.70758  0.45150  1.0000
  S   S149      1.0  0.18924  0.67032  0.44761  1.0000
  Fe  Fe76      1.0  0.19290  0.56861  0.33359  1.0000
  S   S150      1.0  0.17111  0.59421  0.33211  1.0000
  S   S151      1.0  0.19097  0.54064  0.35128  1.0000
  Fe  Fe77      1.0  0.22062  0.58691  0.30478  1.0000
  S   S152      1.0  0.20122  0.61410  0.30038  1.0000
  S   S153      1.0  0.24972  0.57754  0.29090  1.0000
  Fe  Fe78      1.0  0.19307  0.60901  0.33126  1.0000
  S   S154      1.0  0.18577  0.63280  0.34629  1.0000
  Fe  Fe79      1.0  0.18061  0.59746  0.30171  1.0000
  S   S155      1.0  0.16037  0.60696  0.28273  1.0000
  S   S156      1.0  0.21406  0.58300  0.33538  1.0000
  S   S157      1.0  0.20083  0.57083  0.30335  1.0000
  H   H831      1.0  0.28941  0.82026  0.39649  1.0000
  C   C1025     1.0  0.18321  0.51442  0.26344  1.0000
  H   H832      1.0  0.19800  0.50105  0.29464  1.0000
  H   H833      1.0  0.22907  0.53321  0.30741  1.0000
  C   C1026     1.0  0.05817  0.49306  0.32502  1.0000
  C   C1027     1.0  0.18808  0.50710  0.34758  1.0000
  C   C1028     1.0  0.18333  0.52617  0.34181  1.0000
  C   C1029     1.0  0.17205  0.53348  0.32905  1.0000
  C   C1030     1.0  0.16494  0.52180  0.32268  1.0000
  H   H834      1.0  0.24880  0.56191  0.35621  1.0000
  H   H835      1.0  0.19685  0.50139  0.35741  1.0000
  H   H836      1.0  0.16843  0.54816  0.32446  1.0000
  H   H837      1.0  0.11575  0.50376  0.23745  1.0000
  C   C1031     1.0  0.31458  0.80445  0.38375  1.0000
  C   C1032     1.0  0.25907  0.61882  0.24724  1.0000
  C   C1033     1.0  0.25171  0.60911  0.26450  1.0000
  C   C1034     1.0  0.25730  0.59006  0.26905  1.0000
  C   C1035     1.0  0.26988  0.58073  0.25624  1.0000
  H   H838      1.0  0.07005  0.92738  0.45068  1.0000
  C   C1036     1.0  0.22226  0.77085  0.47714  1.0000
  H   H839      1.0  0.24202  0.61636  0.27439  1.0000
  Fe  Fe80      1.0  0.17950  0.94495  0.44515  1.0000
  C   C1037     1.0  0.21062  0.64174  0.39108  1.0000
  C   C1038     1.0  0.19574  0.65437  0.38502  1.0000
  C   C1039     1.0  0.18836  0.65139  0.37133  1.0000
  C   C1040     1.0  0.19573  0.63580  0.36347  1.0000
  C   C1041     1.0  0.21056  0.62313  0.36956  1.0000
  C   C1042     1.0  0.21791  0.62608  0.38329  1.0000
  H   H840      1.0  0.18997  0.66646  0.39084  1.0000
  H   H841      1.0  0.17691  0.66129  0.36674  1.0000
  H   H842      1.0  0.21637  0.61107  0.36370  1.0000
  H   H843      1.0  0.22940  0.61621  0.38786  1.0000
  C   C1043     1.0  0.25561  0.72619  0.42734  1.0000
  C   C1044     1.0  0.26311  0.74192  0.42279  1.0000
  C   C1045     1.0  0.27559  0.74344  0.43247  1.0000
  C   C1046     1.0  0.28111  0.72893  0.44632  1.0000
  C   C1047     1.0  0.27373  0.71317  0.45072  1.0000
  C   C1048     1.0  0.26084  0.71188  0.44144  1.0000
  H   H844      1.0  0.25915  0.75298  0.41181  1.0000
  H   H845      1.0  0.28113  0.75569  0.42903  1.0000
  H   H846      1.0  0.27788  0.70194  0.46138  1.0000
  H   H847      1.0  0.25516  0.69968  0.44500  1.0000
  C   C1049     1.0  0.24051  0.52745  0.34146  1.0000
  H   H848      1.0  0.00228  0.86238  0.44338  1.0000
  C   C1050     1.0  0.24534  0.87611  0.44684  1.0000
  C   C1051     1.0  0.26155  0.86465  0.45114  1.0000
  C   C1052     1.0  0.26657  0.84665  0.44813  1.0000
  C   C1053     1.0  0.25551  0.84013  0.44053  1.0000
  C   C1054     1.0  0.23946  0.85171  0.43596  1.0000
  C   C1055     1.0  0.23433  0.86963  0.43915  1.0000
  H   H849      1.0  0.27020  0.86981  0.45674  1.0000
  H   H850      1.0  0.27910  0.83799  0.45141  1.0000
  H   H851      1.0  0.23097  0.84672  0.43002  1.0000
  H   H852      1.0  0.22203  0.87851  0.43534  1.0000
  C   C1056     1.0  0.14335  0.77709  0.41943  1.0000
  C   C1057     1.0  0.13011  0.76818  0.43172  1.0000
  C   C1058     1.0  0.13360  0.74909  0.43698  1.0000
  C   C1059     1.0  0.15056  0.73873  0.43035  1.0000
  C   C1060     1.0  0.16413  0.74754  0.41845  1.0000
  C   C1061     1.0  0.16045  0.76674  0.41286  1.0000
  H   H853      1.0  0.11719  0.77591  0.43738  1.0000
  H   H854      1.0  0.12320  0.74238  0.44646  1.0000
  H   H855      1.0  0.17728  0.73954  0.41328  1.0000
  H   H856      1.0  0.17078  0.77354  0.40335  1.0000
  C   C1062     1.0  0.11428  0.87941  0.43963  1.0000
  C   C1063     1.0  0.12007  0.88972  0.44864  1.0000
  C   C1064     1.0  0.13737  0.89402  0.44251  1.0000
  C   C1065     1.0  0.14885  0.88846  0.42696  1.0000
  C   C1066     1.0  0.14332  0.87778  0.41799  1.0000
  C   C1067     1.0  0.12608  0.87303  0.42448  1.0000
  H   H857      1.0  0.11125  0.89445  0.46041  1.0000
  H   H858      1.0  0.24953  0.60606  0.47494  1.0000
  H   H859      1.0  0.15229  0.87333  0.40598  1.0000
  H   H860      1.0  0.12172  0.86494  0.41748  1.0000
  C   C1068     1.0  0.01025  0.79225  0.43130  1.0000
  C   C1069     1.0  0.00609  0.80778  0.41787  1.0000
  C   C1070     1.0  0.01787  0.82027  0.41128  1.0000
  C   C1071     1.0  0.03335  0.81768  0.41865  1.0000
  C   C1072     1.0  0.03755  0.80205  0.43194  1.0000
  C   C1073     1.0  0.02631  0.78914  0.43788  1.0000
  C   C1074     1.0  0.10117  0.49848  0.30202  1.0000
  H   H861      1.0  0.01484  0.83213  0.40067  1.0000
  H   H862      1.0  0.04943  0.79991  0.43770  1.0000
  H   H863      1.0  0.02981  0.77696  0.44800  1.0000
  C   C1075     1.0  0.14057  0.56720  0.26052  1.0000
  C   C1076     1.0  0.13506  0.58614  0.25499  1.0000
  C   C1077     1.0  0.14109  0.59813  0.26206  1.0000
  C   C1078     1.0  0.15286  0.59132  0.27452  1.0000
  C   C1079     1.0  0.15842  0.57237  0.28002  1.0000
  C   C1080     1.0  0.15221  0.56039  0.27310  1.0000
  H   H864      1.0  0.12608  0.59155  0.24534  1.0000
  H   H865      1.0  0.13666  0.61276  0.25779  1.0000
  H   H866      1.0  0.16733  0.56694  0.28973  1.0000
  H   H867      1.0  0.15639  0.54579  0.27760  1.0000
  C   C1081     1.0  0.21242  0.51905  0.29993  1.0000
  H   H868      1.0  0.12076  0.94432  0.44476  1.0000
  C   C1082     1.0  0.31777  0.62945  0.30465  1.0000
  H   H869      1.0  0.28710  0.76627  0.39368  1.0000
  H   H870      1.0  0.12231  0.53385  0.29610  1.0000
  S   S158      1.0  0.30541  0.80650  0.45922  1.0000
  H   H871      1.0  0.15450  0.66229  0.47981  1.0000
  H   H872      1.0  0.24416  0.65355  0.28604  1.0000
  H   H873      1.0  0.25952  0.60204  0.32159  1.0000
  H   H874      1.0  0.12176  0.72385  0.42243  1.0000
  C   C1083     1.0  0.31383  0.66950  0.23262  1.0000
  H   H875      1.0  0.14346  0.69809  0.41058  1.0000
  H   H876      1.0  0.27601  0.65156  0.26898  1.0000
  C   C1084     1.0  0.11177  0.93905  0.43972  1.0000
  H   H877      1.0  0.23580  0.62886  0.31233  1.0000
  H   H878      1.0  0.22766  0.60608  0.24622  1.0000
  C   C1085     1.0  0.12359  0.97896  0.47545  1.0000
  H   H879      1.0  0.32234  0.81496  0.38168  1.0000
  H   H880      1.0  0.12070  0.85445  0.47628  1.0000
  C   C1086     1.0  0.11506  0.78078  0.38973  1.0000
  H   H881      1.0  0.16842  0.83024  0.47418  1.0000
  C   C1087     1.0  0.06138  0.74313  0.41658  1.0000
  C   C1088     1.0  0.26760  0.54738  0.33626  1.0000
  C   C1089     1.0  0.23750  0.52993  0.25157  1.0000
  C   C1090     1.0  0.17266  0.48958  0.24956  1.0000
  H   H882      1.0  0.12319  0.50158  0.31264  1.0000
  C   C1091     1.0  0.27741  0.72462  0.37781  1.0000
  H   H883      1.0  0.19938  0.57196  0.26169  1.0000
  P   P34       1.0  0.08445  0.74227  0.41834  1.0000
  H   H884      1.0  0.25429  0.54175  0.26185  1.0000
  C   C1092     1.0  0.26330  0.61298  0.31032  1.0000
  H   H885      1.0  0.31797  0.50680  0.25408  1.0000
  C   C1093     1.0  0.99485  0.80647  0.47502  1.0000
  H   H886      1.0  0.31406  0.71689  0.39722  1.0000
  C   C1094     1.0  0.05566  0.50933  0.27637  1.0000
  H   H887      1.0  0.07240  0.76953  0.44116  1.0000
  H   H888      1.0  0.14158  0.90203  0.44961  1.0000
  C   C1095     1.0  0.16719  0.50795  0.27216  1.0000
  C   C1096     1.0  0.09451  0.97500  0.47236  1.0000
  H   H889      1.0  0.17385  0.57735  0.23215  1.0000
  C   C1097     1.0  0.28625  0.79366  0.39538  1.0000
  C   C1098     1.0  0.03769  0.51444  0.28593  1.0000
  C   C1099     1.0  0.02454  0.52667  0.27678  1.0000
  C   C1100     1.0  0.02925  0.53391  0.25809  1.0000
  C   C1101     1.0  0.04703  0.52879  0.24847  1.0000
  C   C1102     1.0  0.30703  0.50646  0.26609  1.0000
  H   H890      1.0  0.09559  0.71168  0.44818  1.0000
  C   C1103     1.0  0.08804  0.52517  0.28147  1.0000
  C   C1104     1.0  0.09991  0.53492  0.28382  1.0000
  S   S159      1.0  0.99546  0.77676  0.44075  1.0000
  C   C1105     1.0  0.09101  0.72426  0.45329  1.0000
  H   H891      1.0  0.15900  0.51221  0.28460  1.0000
  H   H892      1.0  0.00820  0.58183  0.24295  1.0000
  C   C1106     1.0  0.11331  0.50818  0.30399  1.0000
  H   H893      1.0  0.24834  0.51824  0.24915  1.0000
  H   H894      1.0  0.15656  0.83041  0.42284  1.0000
  C   C1107     1.0  0.22734  0.55845  0.26232  1.0000
  H   H895      1.0  0.06616  0.75334  0.38727  1.0000
  S   S160      1.0  0.15968  0.48854  0.32099  1.0000
  C   C1108     1.0  0.09521  0.71383  0.39880  1.0000
  H   H896      1.0  0.08013  0.90481  0.47441  1.0000
  H   H897      1.0  0.30489  0.62586  0.31214  1.0000
  H   H898      1.0  0.03377  0.50921  0.30044  1.0000
  H   H899      1.0  0.01075  0.53082  0.28419  1.0000
  H   H900      1.0  0.01922  0.54374  0.25106  1.0000
  C   C1109     1.0  0.20674  0.54738  0.25091  1.0000
  S   S161      1.0  0.19325  0.93081  0.46863  1.0000
  H   H901      1.0  0.07838  0.53224  0.27276  1.0000
  C   C1110     1.0  0.27058  0.53354  0.32650  1.0000
  C   C1111     1.0  0.22026  0.53184  0.24759  1.0000
  C   C1112     1.0  0.22836  0.73879  0.47554  1.0000
  H   H902      1.0  0.06367  0.77973  0.40771  1.0000
  H   H903      1.0  0.20661  0.96976  0.43148  1.0000
  C   C1113     1.0  0.05624  0.74945  0.39951  1.0000
  H   H904      1.0  0.05167  0.73372  0.44564  1.0000
  C   C1114     1.0  0.27927  0.50564  0.29761  1.0000
  H   H905      1.0  0.07633  0.57505  0.43701  1.0000
  H   H906      1.0  0.18588  0.78122  0.45170  1.0000
  C   C1115     1.0  0.18145  0.49537  0.34076  1.0000
  C   C1116     1.0  0.12997  0.70242  0.40726  1.0000
  C   C1117     1.0  0.16292  0.82329  0.43441  1.0000
  C   C1118     1.0  0.14288  0.77424  0.46666  1.0000
  H   H907      1.0  0.06059  0.50681  0.32248  1.0000
  H   H908      1.0  0.20178  0.53113  0.29769  1.0000
  C   C1119     1.0  0.17946  0.79552  0.45088  1.0000
  H   H909      1.0  0.31209  0.86782  0.45597  1.0000
  C   C1120     1.0  0.12498  0.69343  0.39632  1.0000
  C   C1121     1.0  0.16194  0.49550  0.26528  1.0000
  C   C1122     1.0  0.20141  0.98274  0.43580  1.0000
  H   H910      1.0  0.22494  0.54394  0.36105  1.0000
  H   H911      1.0  0.26565  0.71882  0.37908  1.0000
  C   C1123     1.0  0.11275  0.52636  0.29481  1.0000
  H   H912      1.0  0.15508  0.84666  0.44720  1.0000
  H   H913      1.0  0.15581  0.52756  0.31320  1.0000
  H   H914      1.0  0.31535  0.68336  0.23140  1.0000
  H   H915      1.0  0.01082  0.74899  0.41311  1.0000
  C   C1124     1.0  0.08872  0.50675  0.29036  1.0000
  H   H916      1.0  0.17097  0.54582  0.23348  1.0000
  H   H917      1.0  0.27206  0.79578  0.40242  1.0000
  C   C1125     1.0  0.07810  0.75675  0.44936  1.0000
  S   S162      1.0  0.16986  0.89524  0.41855  1.0000
  C   C1126     1.0  0.27965  0.74101  0.36544  1.0000
  C   C1127     1.0  0.19976  0.60798  0.24527  1.0000
  C   C1128     1.0  0.31444  0.57129  0.26736  1.0000
  C   C1129     1.0  0.10988  0.76418  0.39887  1.0000
  C   C1130     1.0  0.27275  0.64076  0.28058  1.0000
  C   C1131     1.0  0.29444  0.74881  0.36436  1.0000
  C   C1132     1.0  0.30323  0.84551  0.47673  1.0000
  H   H918      1.0  0.28786  0.70354  0.39900  1.0000
  C   C1133     1.0  0.08494  0.74097  0.44192  1.0000
  C   C1134     1.0  0.08632  0.57936  0.42501  1.0000
  H   H919      1.0  0.19343  0.54937  0.24785  1.0000
  H   H920      1.0  0.10588  0.80971  0.38027  1.0000
  H   H921      1.0  0.01977  0.73742  0.44313  1.0000
  C   C1135     1.0  0.31633  0.85509  0.46519  1.0000
  H   H922      1.0  0.13767  0.87695  0.47845  1.0000
  H   H923      1.0  0.29745  0.53568  0.26097  1.0000
  H   H924      1.0  0.08115  0.98113  0.46923  1.0000
  H   H925      1.0  0.19479  0.60854  0.25961  1.0000
  H   H926      1.0  0.29520  0.67656  0.47856  1.0000
  H   H927      1.0  0.24929  0.75411  0.47106  1.0000
  P   P35       1.0  0.07304  0.49404  0.28800  1.0000
  C   C1136     1.0  0.10759  0.69910  0.39212  1.0000
  H   H928      1.0  0.19262  0.96717  0.47482  1.0000
  H   H929      1.0  0.29569  0.76181  0.35515  1.0000
  C   C1137     1.0  0.30718  0.74021  0.37561  1.0000
  C   C1138     1.0  0.23322  0.49466  0.24012  1.0000
  C   C1139     1.0  0.23773  0.54103  0.35145  1.0000
  C   C1140     1.0  0.07808  0.77963  0.40242  1.0000
  H   H930      1.0  0.18721  0.52327  0.26979  1.0000
  C   C1141     1.0  0.28634  0.62568  0.28585  1.0000
  C   C1142     1.0  0.10181  0.79677  0.38691  1.0000
  C   C1143     1.0  0.09131  0.76341  0.40530  1.0000
  H   H931      1.0  0.13463  0.68208  0.39110  1.0000
  H   H932      1.0  0.27251  0.53513  0.28841  1.0000
  H   H933      1.0  0.23799  0.72620  0.47335  1.0000
  H   H934      1.0  0.06450  0.96642  0.44820  1.0000
  H   H935      1.0  0.04706  0.49234  0.35372  1.0000
  H   H936      1.0  0.25507  0.63359  0.24387  1.0000
  C   C1144     1.0  0.21832  0.60660  0.23774  1.0000
  C   C1145     1.0  0.30484  0.72368  0.38798  1.0000
  C   C1146     1.0  0.16962  0.82304  0.46345  1.0000
  H   H937      1.0  0.31755  0.74839  0.41545  1.0000
  C   C1147     1.0  0.07852  0.75619  0.46748  1.0000
  C   C1148     1.0  0.16198  0.83239  0.44821  1.0000
  C   C1149     1.0  0.08964  0.92479  0.42579  1.0000
  C   C1150     1.0  0.27194  0.60944  0.23457  1.0000
  H   H938      1.0  0.16547  0.75618  0.45321  1.0000
  C   C1151     1.0  0.23803  0.97327  0.47343  1.0000
  C   C1152     1.0  0.27714  0.59037  0.23905  1.0000
  H   H939      1.0  0.22987  0.51983  0.34372  1.0000
  H   H940      1.0  0.14377  0.78587  0.45533  1.0000
  C   C1153     1.0  0.17827  0.80445  0.46498  1.0000
  C   C1154     1.0  0.11788  0.93447  0.42247  1.0000
  C   C1155     1.0  0.10692  0.92716  0.41559  1.0000
  H   H941      1.0  0.13147  0.93590  0.41473  1.0000
  H   H942      1.0  0.11202  0.92287  0.40258  1.0000
  H   H943      1.0  0.08137  0.91863  0.42066  1.0000
  H   H944      1.0  0.10374  0.69210  0.38365  1.0000
  C   C1156     1.0  0.21015  0.56040  0.25855  1.0000
  C   C1157     1.0  0.21039  0.50223  0.29789  1.0000
  H   H945      1.0  0.26964  0.74782  0.35703  1.0000
  H   H946      1.0  0.26011  0.94979  0.47508  1.0000
  H   H947      1.0  0.17228  0.79777  0.42514  1.0000
  C   C1158     1.0  0.04820  0.73842  0.43228  1.0000
  C   C1159     1.0  0.29494  0.77686  0.39038  1.0000
  C   C1160     1.0  0.28155  0.52238  0.28569  1.0000
  H   H948      1.0  0.12051  0.75220  0.40128  1.0000
  H   H949      1.0  0.29167  0.60004  0.30518  1.0000
  C   C1161     1.0  0.21084  0.76851  0.41554  1.0000
  C   C1162     1.0  0.22024  0.76726  0.42916  1.0000
  C   C1163     1.0  0.22878  0.78139  0.42857  1.0000
  C   C1164     1.0  0.22784  0.79683  0.41440  1.0000
  C   C1165     1.0  0.21825  0.79827  0.40075  1.0000
  C   C1166     1.0  0.21002  0.78386  0.40123  1.0000
  P   P36       1.0  0.21927  0.81705  0.38131  1.0000
  C   C1167     1.0  0.20074  0.82080  0.36971  1.0000
  C   C1168     1.0  0.21641  0.83825  0.38848  1.0000
  C   C1169     1.0  0.20612  0.84063  0.40585  1.0000
  C   C1170     1.0  0.20341  0.85730  0.41115  1.0000
  C   C1171     1.0  0.21095  0.87166  0.39920  1.0000
  C   C1172     1.0  0.22077  0.86957  0.38171  1.0000
  C   C1173     1.0  0.22328  0.85301  0.37625  1.0000
  C   C1174     1.0  0.20356  0.82604  0.35055  1.0000
  C   C1175     1.0  0.18898  0.82956  0.34168  1.0000
  C   C1176     1.0  0.17145  0.82818  0.35188  1.0000
  C   C1177     1.0  0.16847  0.82345  0.37096  1.0000
  C   C1178     1.0  0.18301  0.81988  0.37986  1.0000
  C   C1179     1.0  0.24121  0.81083  0.36672  1.0000
  C   C1180     1.0  0.24363  0.79807  0.35576  1.0000
  C   C1181     1.0  0.26064  0.79291  0.34460  1.0000
  C   C1182     1.0  0.27541  0.80026  0.34452  1.0000
  C   C1183     1.0  0.27325  0.81255  0.35579  1.0000
  C   C1184     1.0  0.25629  0.81762  0.36707  1.0000
  H   H950      1.0  0.20484  0.75718  0.41570  1.0000
  H   H951      1.0  0.22150  0.75497  0.43972  1.0000
  H   H952      1.0  0.23669  0.78014  0.43870  1.0000
  H   H953      1.0  0.23496  0.80742  0.41391  1.0000
  H   H954      1.0  0.20334  0.78417  0.39041  1.0000
  H   H955      1.0  0.20002  0.82976  0.41527  1.0000
  H   H956      1.0  0.19538  0.85920  0.42452  1.0000
  H   H957      1.0  0.20885  0.88456  0.40341  1.0000
  H   H958      1.0  0.22621  0.88091  0.37237  1.0000
  H   H959      1.0  0.23049  0.85178  0.36249  1.0000
  H   H960      1.0  0.21693  0.82766  0.34245  1.0000
  H   H961      1.0  0.19122  0.83353  0.32691  1.0000
  H   H962      1.0  0.16012  0.83097  0.34506  1.0000
  H   H963      1.0  0.15482  0.82265  0.37888  1.0000
  H   H964      1.0  0.18035  0.81654  0.39465  1.0000
  H   H965      1.0  0.23236  0.79204  0.35591  1.0000
  H   H966      1.0  0.26236  0.78316  0.33608  1.0000
  H   H967      1.0  0.28860  0.79628  0.33589  1.0000
  H   H968      1.0  0.28482  0.81793  0.35601  1.0000
  H   H969      1.0  0.25510  0.82663  0.37620  1.0000
  H   H970      1.0  0.30530  0.56260  0.26778  1.0000
  C   C1185     1.0  0.18847  0.49634  0.24054  1.0000
  S   S163      1.0  0.04716  0.57624  0.23329  1.0000
  S   S164      1.0  0.19797  0.92668  0.42634  1.0000
  C   C1186     1.0  0.05597  0.96409  0.46176  1.0000
  H   H971      1.0  0.08186  0.71794  0.39537  1.0000
  C   C1187     1.0  0.06018  0.51646  0.25752  1.0000
  C   C1188     1.0  0.08340  0.92954  0.44296  1.0000
  S   S165      1.0  0.15782  0.92830  0.45401  1.0000
  C   C1189     1.0  0.24129  0.50433  0.30916  1.0000
  Fe  Fe81      1.0  0.17719  0.90879  0.43747  1.0000
  C   C1190     1.0  0.03811  0.75135  0.39823  1.0000
  C   C1191     1.0  0.24100  0.54324  0.25882  1.0000
  H   H972      1.0  0.09938  0.54910  0.27683  1.0000
  H   H973      1.0  0.31229  0.66253  0.26162  1.0000
  H   H974      1.0  0.23003  0.56866  0.26809  1.0000
  H   H975      1.0  0.03706  0.86217  0.47432  1.0000
  C   C1192     1.0  0.03010  0.74033  0.43092  1.0000
  C   C1193     1.0  0.25462  0.64195  0.29020  1.0000
  C   C1194     1.0  0.02503  0.74689  0.41395  1.0000
  H   H976      1.0  0.27417  0.56601  0.25968  1.0000
  C   C1195     1.0  0.17180  0.80492  0.43569  1.0000
  C   C1196     1.0  0.08333  0.79616  0.39311  1.0000
  C   C1197     1.0  0.19399  0.50884  0.24737  1.0000
  C   C1198     1.0  0.09457  0.93636  0.45028  1.0000
  H   H977      1.0  0.05066  0.53474  0.23403  1.0000
  H   H978      1.0  0.99273  0.80975  0.46115  1.0000
  C   C1199     1.0  0.11763  0.71710  0.41395  1.0000
  C   C1200     1.0  0.12796  0.58590  0.32503  1.0000
  C   C1201     1.0  0.12957  0.56692  0.32928  1.0000
  C   C1202     1.0  0.13061  0.55724  0.34708  1.0000
  C   C1203     1.0  0.13023  0.56652  0.36059  1.0000
  C   C1204     1.0  0.12890  0.58560  0.35638  1.0000
  C   C1205     1.0  0.12750  0.59525  0.33851  1.0000
  P   P37       1.0  0.12897  0.59740  0.37385  1.0000
  C   C1206     1.0  0.11234  0.59032  0.39392  1.0000
  C   C1207     1.0  0.15120  0.59242  0.37979  1.0000
  C   C1208     1.0  0.15604  0.60505  0.38706  1.0000
  C   C1209     1.0  0.17325  0.60158  0.39137  1.0000
  C   C1210     1.0  0.18578  0.58545  0.38856  1.0000
  C   C1211     1.0  0.18100  0.57265  0.38168  1.0000
  C   C1212     1.0  0.16379  0.57606  0.37736  1.0000
  C   C1213     1.0  0.09642  0.58599  0.39205  1.0000
  C   C1214     1.0  0.08350  0.58050  0.40755  1.0000
  H   H979      1.0  0.07304  0.80862  0.39115  1.0000
  C   C1215     1.0  0.10207  0.58375  0.42697  1.0000
  C   C1216     1.0  0.11503  0.58924  0.41150  1.0000
  C   C1217     1.0  0.12266  0.62186  0.36569  1.0000
  C   C1218     1.0  0.10457  0.63139  0.37021  1.0000
  C   C1219     1.0  0.09999  0.65034  0.36377  1.0000
  C   C1220     1.0  0.11341  0.65986  0.35279  1.0000
  C   C1221     1.0  0.13140  0.65043  0.34818  1.0000
  C   C1222     1.0  0.13597  0.63153  0.35449  1.0000
  H   H980      1.0  0.12750  0.59336  0.31114  1.0000
  H   H981      1.0  0.13033  0.55968  0.31869  1.0000
  H   H982      1.0  0.13220  0.54246  0.35027  1.0000
  H   H983      1.0  0.13128  0.55876  0.37424  1.0000
  H   H984      1.0  0.12663  0.60990  0.33469  1.0000
  H   H985      1.0  0.14666  0.61778  0.38914  1.0000
  H   H986      1.0  0.17707  0.61164  0.39645  1.0000
  H   H987      1.0  0.19926  0.58300  0.39152  1.0000
  H   H988      1.0  0.19076  0.56017  0.37937  1.0000
  H   H989      1.0  0.16068  0.56604  0.37171  1.0000
  H   H990      1.0  0.09398  0.58686  0.37862  1.0000
  H   H991      1.0  0.07130  0.57708  0.40602  1.0000
  H   H992      1.0  0.12942  0.78136  0.38533  1.0000
  C   C1223     1.0  0.10017  0.72302  0.40975  1.0000
  H   H993      1.0  0.12713  0.59255  0.41335  1.0000
  H   H994      1.0  0.09398  0.62429  0.37864  1.0000
  H   H995      1.0  0.08602  0.65763  0.36724  1.0000
  H   H996      1.0  0.10989  0.67451  0.34778  1.0000
  H   H997      1.0  0.14193  0.65768  0.33970  1.0000
  H   H998      1.0  0.14998  0.62449  0.35068  1.0000
  C   C1224     1.0  0.29605  0.80748  0.39204  1.0000
  P   P38       1.0  0.26083  0.50499  0.31735  1.0000
  C   C1225     1.0  0.16957  0.50272  0.32856  1.0000
  P   P39       1.0  0.21595  0.51533  0.23701  1.0000
  C   C1226     1.0  0.28147  0.61185  0.30090  1.0000
  H   H999      1.0  0.29438  0.48540  0.33039  1.0000
  C   C1227     1.0  0.31220  0.65760  0.24973  1.0000
  C   C1228     1.0  0.23965  0.48776  0.30602  1.0000
  H   H1000     1.0  0.29265  0.59404  0.27247  1.0000
  C   C1229     1.0  0.15502  0.75751  0.46546  1.0000
  C   C1230     1.0  0.00985  0.50954  0.23462  1.0000
  C   C1231     1.0  0.25687  0.52375  0.32875  1.0000
  H   H1001     1.0  0.00497  0.50863  0.24920  1.0000
  C   C1232     1.0  0.22784  0.52014  0.30559  1.0000
  P   P40       1.0  0.30978  0.62378  0.27326  1.0000
  C   C1233     1.0  0.99246  0.85714  0.43951  1.0000
  C   C1234     1.0  0.99214  0.86031  0.42093  1.0000
  C   C1235     1.0  0.29020  0.48924  0.29294  1.0000
  C   C1236     1.0  0.22414  0.48670  0.30066  1.0000
  H   H1002     1.0  0.17342  0.60879  0.24082  1.0000
  H   H1003     1.0  0.00549  0.77789  0.47442  1.0000
  S   S166      1.0  0.16735  0.97519  0.44207  1.0000
  C   C1237     1.0  0.18767  0.60828  0.23447  1.0000
  H   H1004     1.0  0.28892  0.85068  0.47636  1.0000
  Fe  Fe82      1.0  0.11569  0.56100  0.23050  1.0000
  C   C1238     1.0  0.31901  0.60062  0.26964  1.0000
  H   H1005     1.0  0.30900  0.61970  0.23667  1.0000
  C   C1239     1.0  0.31082  0.63941  0.25134  1.0000
  S   S167      1.0  0.27966  0.77628  0.47147  1.0000
  H   H1006     1.0  0.23830  0.63873  0.47697  1.0000
  C   C1240     1.0  0.08531  0.73972  0.47848  1.0000
  H   H1007     1.0  0.13490  0.69118  0.46709  1.0000
  C   C1241     1.0  0.31044  0.63352  0.23574  1.0000
  C   C1242     1.0  0.31356  0.77372  0.38183  1.0000
  C   C1243     1.0  0.01205  0.85389  0.47570  1.0000
  H   H1008     1.0  0.00190  0.86751  0.41085  1.0000
  C   C1244     1.0  0.06324  0.95228  0.47649  1.0000
  C   C1245     1.0  0.30730  0.58917  0.27015  1.0000
  P   P41       1.0  0.08705  0.94113  0.47315  1.0000
  H   H1009     1.0  0.16246  0.72928  0.47827  1.0000
  H   H1010     1.0  0.07362  0.76859  0.47296  1.0000
  Fe  Fe83      1.0  0.17249  0.91320  0.47661  1.0000
  C   C1246     1.0  0.11828  0.94848  0.47928  1.0000
  C   C1247     1.0  0.03760  0.97302  0.46447  1.0000
  H   H1011     1.0  0.01899  0.84277  0.46859  1.0000
  H   H1012     1.0  0.99386  0.81013  0.41255  1.0000
  H   H1013     1.0  0.14978  0.49015  0.27238  1.0000
  H   H1014     1.0  0.22750  0.78291  0.47598  1.0000
  C   C1248     1.0  0.10066  0.95589  0.47570  1.0000
  H   H1015     1.0  0.22319  0.83988  0.47288  1.0000
  H   H1016     1.0  0.13400  0.65668  0.23200  1.0000
  C   C1249     1.0  0.23469  0.75455  0.47434  1.0000
  C   C1250     1.0  0.09132  0.72369  0.47148  1.0000
  C   C1251     1.0  0.20747  0.81899  0.47836  1.0000
  C   C1252     1.0  0.20960  0.73936  0.47918  1.0000
  C   C1253     1.0  0.13958  0.69006  0.47948  1.0000
  H   H1017     1.0  0.03203  0.98200  0.45303  1.0000
  C   C1254     1.0  0.12969  0.95999  0.47905  1.0000
  S   S168      1.0  0.09564  0.54453  0.23009  1.0000
  C   C1255     1.0  0.15320  0.74226  0.47969  1.0000
  H   H1018     1.0  0.20474  0.72716  0.47984  1.0000
  C   C1256     1.0  0.02234  0.86482  0.47891  1.0000
  Fe  Fe84      1.0  0.07097  0.82862  0.57380  1.0000
  S   S169      1.0  0.06233  0.83876  0.60013  1.0000
  S   S170      1.0  0.06828  0.84628  0.54631  1.0000
  Fe  Fe85      1.0  0.08786  0.79027  0.59096  1.0000
  S   S171      1.0  0.08066  0.79676  0.61898  1.0000
  S   S172      1.0  0.10545  0.76499  0.58125  1.0000
  Fe  Fe86      1.0  0.05359  0.81168  0.61166  1.0000
  Fe  Fe87      1.0  0.08991  0.82316  0.60519  1.0000
  S   S173      1.0  0.11044  0.83161  0.61587  1.0000
  S   S174      1.0  0.05990  0.80289  0.58485  1.0000
  S   S175      1.0  0.09921  0.81535  0.57782  1.0000
  Fe  Fe88      1.0  0.14552  0.91717  0.61134  1.0000
  S   S176      1.0  0.17211  0.89767  0.60485  1.0000
  S   S177      1.0  0.11756  0.91210  0.61262  1.0000
  Fe  Fe89      1.0  0.16402  0.94718  0.61309  1.0000
  S   S178      1.0  0.19207  0.93020  0.60673  1.0000
  H   H1019     1.0  0.18903  0.67142  0.68030  1.0000
  Fe  Fe90      1.0  0.18180  0.92213  0.58607  1.0000
  S   S179      1.0  0.20033  0.91981  0.55894  1.0000
  Fe  Fe91      1.0  0.18061  0.90689  0.62608  1.0000
  S   S180      1.0  0.19733  0.88480  0.64423  1.0000
  S   S181      1.0  0.15457  0.94106  0.59052  1.0000
  S   S182      1.0  0.15295  0.92454  0.63457  1.0000
  C   C1257     1.0  0.25378  0.91890  0.55423  1.0000
  C   C1258     1.0  0.24610  0.93571  0.54425  1.0000
  H   H1020     1.0  0.29541  0.71999  0.50762  1.0000
  P   P42       1.0  0.31716  0.87347  0.69191  1.0000
  S   S183      1.0  0.23955  0.58249  0.69236  1.0000
  C   C1259     1.0  0.17932  0.80499  0.66349  1.0000
  C   C1260     1.0  0.18777  0.91028  0.51518  1.0000
  C   C1261     1.0  0.09319  0.88609  0.51486  1.0000
  C   C1262     1.0  0.27358  0.93374  0.56255  1.0000
  H   H1021     1.0  0.24432  0.52102  0.68984  1.0000
  Fe  Fe92      1.0  0.19371  0.70809  0.61134  1.0000
  S   S184      1.0  0.19378  0.68652  0.59659  1.0000
  S   S185      1.0  0.17037  0.72877  0.62289  1.0000
  Fe  Fe93      1.0  0.23414  0.69714  0.61096  1.0000
  S   S186      1.0  0.23818  0.67423  0.59613  1.0000
  S   S187      1.0  0.25669  0.70343  0.62072  1.0000
  Fe  Fe94      1.0  0.21962  0.69422  0.57857  1.0000
  S   S188      1.0  0.22686  0.70067  0.54747  1.0000
  Fe  Fe95      1.0  0.21219  0.66789  0.61523  1.0000
  S   S189      1.0  0.20536  0.63991  0.62828  1.0000
  S   S190      1.0  0.21786  0.71760  0.59188  1.0000
  S   S191      1.0  0.20979  0.68893  0.63147  1.0000
  Fe  Fe96      1.0  0.29307  0.83247  0.61217  1.0000
  S   S192      1.0  0.28630  0.81261  0.63839  1.0000
  S   S193      1.0  0.28094  0.86277  0.60721  1.0000
  H   H1022     1.0  0.07266  0.71579  0.53275  1.0000
  H   H1023     1.0  0.17326  0.82491  0.68047  1.0000
  H   H1024     1.0  0.09384  0.93882  0.54121  1.0000
  Fe  Fe97      1.0  0.28355  0.79472  0.62073  1.0000
  S   S194      1.0  0.25750  0.78488  0.62348  1.0000
  H   H1025     1.0  0.21739  0.79896  0.62981  1.0000
  H   H1026     1.0  0.27365  0.90482  0.57091  1.0000
  S   S195      1.0  0.28820  0.81576  0.59494  1.0000
  H   H1027     1.0  0.22238  0.76937  0.65295  1.0000
  C   C1263     1.0  0.13198  0.78710  0.64322  1.0000
  H   H1028     1.0  0.27512  0.59650  0.52064  1.0000
  H   H1029     1.0  0.26742  0.84419  0.50605  1.0000
  C   C1264     1.0  0.08127  0.90878  0.67993  1.0000
  C   C1265     1.0  0.01722  0.90337  0.54441  1.0000
  C   C1266     1.0  0.29681  0.79486  0.54008  1.0000
  C   C1267     1.0  0.30586  0.79747  0.55241  1.0000
  H   H1030     1.0  0.28217  0.79937  0.54195  1.0000
  H   H1031     1.0  0.29811  0.80420  0.56335  1.0000
  H   H1032     1.0  0.18896  0.81301  0.61208  1.0000
  C   C1268     1.0  0.15053  0.78769  0.63714  1.0000
  C   C1269     1.0  0.03822  0.88772  0.52150  1.0000
  H   H1033     1.0  0.24151  0.73967  0.66311  1.0000
  C   C1270     1.0  0.26313  0.59932  0.49770  1.0000
  C   C1271     1.0  0.22029  0.69094  0.53234  1.0000
  C   C1272     1.0  0.22577  0.69706  0.51338  1.0000
  C   C1273     1.0  0.22104  0.68958  0.50084  1.0000
  C   C1274     1.0  0.20489  0.67011  0.52613  1.0000
  C   C1275     1.0  0.20966  0.67757  0.53868  1.0000
  H   H1034     1.0  0.23391  0.70749  0.50837  1.0000
  H   H1035     1.0  0.19681  0.65963  0.53111  1.0000
  H   H1036     1.0  0.20519  0.67292  0.55323  1.0000
  C   C1276     1.0  0.25728  0.72631  0.62032  1.0000
  C   C1277     1.0  0.24382  0.74105  0.61435  1.0000
  C   C1278     1.0  0.24429  0.75899  0.61498  1.0000
  C   C1279     1.0  0.25820  0.76235  0.62156  1.0000
  C   C1280     1.0  0.27184  0.74768  0.62721  1.0000
  C   C1281     1.0  0.27136  0.72973  0.62658  1.0000
  H   H1037     1.0  0.23284  0.73859  0.60966  1.0000
  H   H1038     1.0  0.23370  0.77027  0.61062  1.0000
  H   H1039     1.0  0.28258  0.75011  0.63234  1.0000
  H   H1040     1.0  0.28183  0.71842  0.63119  1.0000
  P   P43       1.0  0.26670  0.93439  0.62737  1.0000
  C   C1282     1.0  0.02469  0.81919  0.55539  1.0000
  H   H1041     1.0  0.15510  0.79502  0.62345  1.0000
  C   C1283     1.0  0.19896  0.95786  0.50164  1.0000
  C   C1284     1.0  0.26763  0.91788  0.56326  1.0000
  C   C1285     1.0  0.22965  0.59875  0.67495  1.0000
  C   C1286     1.0  0.21383  0.59701  0.67056  1.0000
  C   C1287     1.0  0.20680  0.60960  0.65605  1.0000
  C   C1288     1.0  0.21489  0.62456  0.64641  1.0000
  C   C1289     1.0  0.23054  0.62653  0.65100  1.0000
  C   C1290     1.0  0.23813  0.61341  0.66494  1.0000
  H   H1042     1.0  0.20732  0.58565  0.67796  1.0000
  H   H1043     1.0  0.19511  0.60764  0.65216  1.0000
  H   H1044     1.0  0.23700  0.63792  0.64359  1.0000
  H   H1045     1.0  0.25042  0.61481  0.66820  1.0000
  H   H1046     1.0  0.11951  0.78873  0.48295  1.0000
  C   C1291     1.0  0.22056  0.87862  0.63382  1.0000
  C   C1292     1.0  0.23121  0.86198  0.64105  1.0000
  C   C1293     1.0  0.24965  0.85681  0.63277  1.0000
  C   C1294     1.0  0.25767  0.86843  0.61743  1.0000
  C   C1295     1.0  0.24709  0.88512  0.61033  1.0000
  C   C1296     1.0  0.22861  0.89009  0.61837  1.0000
  H   H1047     1.0  0.22527  0.85313  0.65315  1.0000
  H   H1048     1.0  0.25772  0.84403  0.63854  1.0000
  H   H1049     1.0  0.25311  0.89417  0.59847  1.0000
  H   H1050     1.0  0.22072  0.90288  0.61264  1.0000
  H   H1051     1.0  0.27035  0.96271  0.55281  1.0000
  C   C1297     1.0  0.25811  0.95993  0.64969  1.0000
  C   C1298     1.0  0.16644  0.60598  0.69859  1.0000
  C   C1299     1.0  0.23871  0.97265  0.50974  1.0000
  H   H1052     1.0  0.18876  0.95733  0.63301  1.0000
  C   C1300     1.0  0.16903  0.91057  0.52069  1.0000
  C   C1301     1.0  0.19736  0.91305  0.52703  1.0000
  C   C1302     1.0  0.18830  0.91577  0.54454  1.0000
  C   C1303     1.0  0.16968  0.91549  0.55032  1.0000
  C   C1304     1.0  0.16004  0.91300  0.53836  1.0000
  H   H1053     1.0  0.16262  0.91738  0.56391  1.0000
  H   H1054     1.0  0.14558  0.91326  0.54275  1.0000
  C   C1305     1.0  0.12394  0.75539  0.59231  1.0000
  C   C1306     1.0  0.13859  0.74252  0.58507  1.0000
  C   C1307     1.0  0.15321  0.73440  0.59415  1.0000
  C   C1308     1.0  0.15296  0.73901  0.61059  1.0000
  C   C1309     1.0  0.13842  0.75196  0.61768  1.0000
  C   C1310     1.0  0.12405  0.76029  0.60847  1.0000
  H   H1055     1.0  0.13849  0.73879  0.57255  1.0000
  H   H1056     1.0  0.16448  0.72442  0.58866  1.0000
  H   H1057     1.0  0.13816  0.75531  0.63050  1.0000
  H   H1058     1.0  0.11284  0.77012  0.61418  1.0000
  C   C1311     1.0  0.11203  0.85479  0.61129  1.0000
  C   C1312     1.0  0.12935  0.85909  0.60722  1.0000
  C   C1313     1.0  0.13122  0.87676  0.60701  1.0000
  C   C1314     1.0  0.11572  0.89036  0.61069  1.0000
  C   C1315     1.0  0.09833  0.88638  0.61366  1.0000
  C   C1316     1.0  0.09649  0.86864  0.61385  1.0000
  H   H1059     1.0  0.14140  0.84855  0.60473  1.0000
  H   H1060     1.0  0.14464  0.87969  0.60442  1.0000
  H   H1061     1.0  0.08627  0.89687  0.61637  1.0000
  H   H1062     1.0  0.08308  0.86550  0.61670  1.0000
  C   C1317     1.0  0.09101  0.74152  0.55017  1.0000
  H   H1063     1.0  0.22081  0.73918  0.55161  1.0000
  C   C1318     1.0  0.26527  0.67032  0.52756  1.0000
  C   C1319     1.0  0.07121  0.83978  0.51248  1.0000
  C   C1320     1.0  0.07352  0.83211  0.53038  1.0000
  C   C1321     1.0  0.07953  0.81314  0.53550  1.0000
  C   C1322     1.0  0.08198  0.80181  0.52308  1.0000
  C   C1323     1.0  0.28683  0.92541  0.61184  1.0000
  H   H1064     1.0  0.06673  0.85437  0.50837  1.0000
  H   H1065     1.0  0.08190  0.80709  0.54913  1.0000
  H   H1066     1.0  0.08590  0.78709  0.52732  1.0000
  S   S196      1.0  0.15672  0.90808  0.50558  1.0000
  H   H1067     1.0  0.09500  0.87300  0.52431  1.0000
  C   C1324     1.0  0.23394  0.63621  0.58044  1.0000
  C   C1325     1.0  0.21712  0.63398  0.57879  1.0000
  C   C1326     1.0  0.21488  0.63207  0.56205  1.0000
  C   C1327     1.0  0.22945  0.63236  0.54693  1.0000
  H   H1068     1.0  0.23563  0.63741  0.59357  1.0000
  H   H1069     1.0  0.20586  0.63375  0.59055  1.0000
  H   H1070     1.0  0.20179  0.63046  0.56074  1.0000
  H   H1071     1.0  0.21232  0.96777  0.64204  1.0000
  H   H1072     1.0  0.24913  0.76640  0.50065  1.0000
  H   H1073     1.0  0.22021  0.75954  0.52106  1.0000
  C   C1328     1.0  0.15804  0.60915  0.66471  1.0000
  C   C1329     1.0  0.16010  0.59214  0.67671  1.0000
  C   C1330     1.0  0.16422  0.59060  0.69368  1.0000
  C   C1331     1.0  0.10919  0.83444  0.69573  1.0000
  H   H1074     1.0  0.26787  0.58500  0.49690  1.0000
  H   H1075     1.0  0.15498  0.61036  0.65147  1.0000
  H   H1076     1.0  0.15855  0.58016  0.67285  1.0000
  H   H1077     1.0  0.16562  0.57750  0.70315  1.0000
  C   C1332     1.0  0.28004  0.68974  0.50089  1.0000
  C   C1333     1.0  0.25173  0.95180  0.54378  1.0000
  H   H1078     1.0  0.05745  0.94130  0.50565  1.0000
  S   S197      1.0  0.02823  0.80984  0.63366  1.0000
  C   C1334     1.0  0.00835  0.80453  0.63070  1.0000
  P   P44       1.0  0.18691  0.77961  0.64096  1.0000
  C   C1335     1.0  0.16129  0.70900  0.55791  1.0000
  C   C1336     1.0  0.17805  0.71436  0.55066  1.0000
  C   C1337     1.0  0.18248  0.72228  0.53211  1.0000
  H   H1079     1.0  0.21225  0.94978  0.49693  1.0000
  C   C1338     1.0  0.10831  0.97790  0.53788  1.0000
  C   C1339     1.0  0.00719  0.84923  0.60361  1.0000
  H   H1080     1.0  0.01319  0.84415  0.51525  1.0000
  H   H1081     1.0  0.15805  0.70246  0.57221  1.0000
  H   H1082     1.0  0.18778  0.71196  0.55932  1.0000
  H   H1083     1.0  0.19575  0.72584  0.52641  1.0000
  C   C1340     1.0  0.14870  0.71209  0.54676  1.0000
  C   C1341     1.0  0.12576  0.77737  0.66069  1.0000
  H   H1084     1.0  0.20154  0.71211  0.65884  1.0000
  H   H1085     1.0  0.15870  0.63747  0.65993  1.0000
  H   H1086     1.0  0.15862  0.82444  0.62819  1.0000
  H   H1087     1.0  0.31173  0.84003  0.68357  1.0000
  H   H1088     1.0  0.02502  0.95703  0.51021  1.0000
  C   C1342     1.0  0.00231  0.78836  0.48243  1.0000
  C   C1343     1.0  0.25212  0.94960  0.61255  1.0000
  C   C1344     1.0  0.23835  0.89220  0.49962  1.0000
  H   H1089     1.0  0.28420  0.93302  0.56965  1.0000
  C   C1345     1.0  0.27968  0.96607  0.66405  1.0000
  C   C1346     1.0  0.28688  0.67482  0.49226  1.0000
  H   H1090     1.0  0.22731  0.63085  0.53413  1.0000
  H   H1091     1.0  0.01640  0.80555  0.60167  1.0000
  H   H1092     1.0  0.10649  0.88408  0.64813  1.0000
  H   H1093     1.0  0.13241  0.57099  0.71581  1.0000
  H   H1094     1.0  0.19567  0.61457  0.70806  1.0000
  C   C1347     1.0  0.20753  0.80462  0.64077  1.0000
  H   H1095     1.0  0.21817  0.98226  0.58327  1.0000
  C   C1348     1.0  0.26031  0.50317  0.70902  1.0000
  H   H1096     1.0  0.24526  0.91841  0.48673  1.0000
  P   P45       1.0  0.00247  0.85437  0.55093  1.0000
  H   H1097     1.0  0.09759  0.92996  0.50916  1.0000
  C   C1349     1.0  0.02915  0.87307  0.52769  1.0000
  C   C1350     1.0  0.01670  0.83408  0.54319  1.0000
  C   C1351     1.0  0.30144  0.73415  0.57185  1.0000
  H   H1098     1.0  0.22575  0.69403  0.48629  1.0000
  C   C1352     1.0  0.15729  0.67253  0.50218  1.0000
  H   H1099     1.0  0.03278  0.81665  0.50430  1.0000
  H   H1100     1.0  0.16691  0.80000  0.67011  1.0000
  C   C1353     1.0  0.15939  0.68486  0.64959  1.0000
  Fe  Fe98      1.0  0.31642  0.80023  0.63282  1.0000
  C   C1354     1.0  0.03230  0.90284  0.52986  1.0000
  C   C1355     1.0  0.24233  0.85629  0.56381  1.0000
  C   C1356     1.0  0.13184  0.95682  0.52174  1.0000
  C   C1357     1.0  0.10267  0.94864  0.53717  1.0000
  C   C1358     1.0  0.08127  0.81519  0.66010  1.0000
  C   C1359     1.0  0.21766  0.98028  0.54518  1.0000
  H   H1101     1.0  0.26677  0.58715  0.71093  1.0000
  H   H1102     1.0  0.23398  0.86575  0.51456  1.0000
  C   C1360     1.0  0.30264  0.74434  0.58393  1.0000
  H   H1103     1.0  0.29941  0.93084  0.64191  1.0000
  C   C1361     1.0  0.30736  0.72894  0.52541  1.0000
  H   H1104     1.0  0.14549  0.95293  0.51391  1.0000
  C   C1362     1.0  0.03804  0.80250  0.53087  1.0000
  C   C1363     1.0  0.26458  0.90248  0.69495  1.0000
  H   H1105     1.0  0.28276  0.70311  0.49371  1.0000
  H   H1106     1.0  0.17381  0.64726  0.72815  1.0000
  C   C1364     1.0  0.23306  0.75367  0.52545  1.0000
  H   H1107     1.0  0.32188  0.89334  0.65406  1.0000
  H   H1108     1.0  0.22063  0.67092  0.68105  1.0000
  H   H1109     1.0  0.23765  0.79555  0.54920  1.0000
  C   C1365     1.0  0.09640  0.81590  0.72442  1.0000
  C   C1366     1.0  0.30367  0.90233  0.59398  1.0000
  C   C1367     1.0  0.17561  0.96861  0.52633  1.0000
  C   C1368     1.0  0.09126  0.90494  0.66304  1.0000
  H   H1110     1.0  0.07193  0.83464  0.48632  1.0000
  C   C1369     1.0  0.17741  0.98419  0.61910  1.0000
  C   C1370     1.0  0.25058  0.63622  0.49981  1.0000
  C   C1371     1.0  0.19808  0.80667  0.49185  1.0000
  C   C1372     1.0  0.23920  0.98028  0.59768  1.0000
  C   C1373     1.0  0.12595  0.97375  0.52723  1.0000
  C   C1374     1.0  0.01109  0.85111  0.58460  1.0000
  C   C1375     1.0  0.20793  0.96719  0.55681  1.0000
  H   H1111     1.0  0.14356  0.95420  0.48106  1.0000
  H   H1112     1.0  0.09324  0.91595  0.65120  1.0000
  C   C1376     1.0  0.19781  0.80557  0.51034  1.0000
  C   C1377     1.0  0.20618  0.81713  0.51528  1.0000
  C   C1378     1.0  0.21525  0.82952  0.50178  1.0000
  C   C1379     1.0  0.19717  0.75564  0.48180  1.0000
  C   C1380     1.0  0.05203  0.94998  0.49402  1.0000
  C   C1381     1.0  0.16823  0.78592  0.50371  1.0000
  C   C1382     1.0  0.15019  0.79564  0.50360  1.0000
  C   C1383     1.0  0.13588  0.79083  0.51792  1.0000
  C   C1384     1.0  0.13939  0.77633  0.53247  1.0000
  C   C1385     1.0  0.15718  0.76637  0.53257  1.0000
  C   C1386     1.0  0.17158  0.77116  0.51833  1.0000
  H   H1113     1.0  0.25337  0.49206  0.71096  1.0000
  C   C1387     1.0  0.26108  0.62448  0.51220  1.0000
  C   C1388     1.0  0.09687  0.90147  0.51849  1.0000
  H   H1114     1.0  0.26131  0.94952  0.50683  1.0000
  C   C1389     1.0  0.00020  0.79690  0.51101  1.0000
  C   C1390     1.0  0.21848  0.62718  0.70336  1.0000
  C   C1391     1.0  0.03526  0.80344  0.54924  1.0000
  C   C1392     1.0  0.19711  0.65880  0.68644  1.0000
  C   C1393     1.0  0.99276  0.81500  0.50365  1.0000
  C   C1394     1.0  0.30200  0.85416  0.56121  1.0000
  H   H1115     1.0  0.19118  0.79583  0.52095  1.0000
  H   H1116     1.0  0.20570  0.81649  0.52957  1.0000
  H   H1117     1.0  0.22191  0.83835  0.50555  1.0000
  C   C1395     1.0  0.20076  0.62704  0.70222  1.0000
  H   H1118     1.0  0.16639  0.66010  0.50735  1.0000
  H   H1119     1.0  0.30540  0.63352  0.52193  1.0000
  H   H1120     1.0  0.12195  0.79822  0.51773  1.0000
  H   H1121     1.0  0.12828  0.77285  0.54369  1.0000
  H   H1122     1.0  0.15978  0.75508  0.54391  1.0000
  H   H1123     1.0  0.18531  0.76335  0.51878  1.0000
  C   C1396     1.0  0.19957  0.77187  0.58822  1.0000
  C   C1397     1.0  0.19937  0.78961  0.57781  1.0000
  C   C1398     1.0  0.19553  0.80438  0.58652  1.0000
  H   H1124     1.0  0.20231  0.76038  0.58157  1.0000
  H   H1125     1.0  0.20194  0.79193  0.56304  1.0000
  H   H1126     1.0  0.19510  0.81818  0.57847  1.0000
  C   C1399     1.0  0.16295  0.77874  0.64863  1.0000
  C   C1400     1.0  0.22974  0.95415  0.59396  1.0000
  H   H1127     1.0  0.14698  0.80682  0.49244  1.0000
  P   P46       1.0  0.26586  0.63335  0.52960  1.0000
  C   C1401     1.0  0.27168  0.94628  0.64227  1.0000
  H   H1128     1.0  0.10413  0.71015  0.51481  1.0000
  C   C1402     1.0  0.13800  0.76855  0.67228  1.0000
  S   S198      1.0  0.15976  0.97725  0.61358  1.0000
  H   H1129     1.0  0.27116  0.88819  0.53156  1.0000
  H   H1130     1.0  0.06410  0.73590  0.55536  1.0000
  C   C1403     1.0  0.13952  0.86073  0.65853  1.0000
  C   C1404     1.0  0.15289  0.68754  0.51064  1.0000
  C   C1405     1.0  0.26358  0.53427  0.69451  1.0000
  C   C1406     1.0  0.17005  0.72510  0.52086  1.0000
  H   H1131     1.0  0.13583  0.70772  0.55262  1.0000
  H   H1132     1.0  0.03961  0.91397  0.52525  1.0000
  C   C1407     1.0  0.21731  0.75712  0.65456  1.0000
  H   H1133     1.0  0.03440  0.86132  0.52134  1.0000
  C   C1408     1.0  0.07407  0.82854  0.49996  1.0000
  C   C1409     1.0  0.10070  0.71894  0.52459  1.0000
  C   C1410     1.0  0.15337  0.64123  0.71713  1.0000
  C   C1411     1.0  0.17046  0.97745  0.49531  1.0000
  H   H1134     1.0  0.24535  0.65051  0.50057  1.0000
  C   C1412     1.0  0.26219  0.96996  0.66030  1.0000
  H   H1135     1.0  0.27905  0.87520  0.69238  1.0000
  C   C1413     1.0  0.19155  0.79772  0.64895  1.0000
  C   C1414     1.0  0.24169  0.94241  0.60476  1.0000
  C   C1415     1.0  0.27787  0.76804  0.57396  1.0000
  H   H1136     1.0  0.20127  0.83712  0.66570  1.0000
  H   H1137     1.0  0.22361  0.82368  0.64074  1.0000
  H   H1138     1.0  0.24977  0.79358  0.51661  1.0000
  C   C1416     1.0  0.11387  0.72716  0.52709  1.0000
  C   C1417     1.0  0.07795  0.73342  0.54750  1.0000
  C   C1418     1.0  0.08280  0.72210  0.53475  1.0000
  H   H1139     1.0  0.21591  0.50296  0.71150  1.0000
  C   C1419     1.0  0.29301  0.95188  0.65748  1.0000
  C   C1420     1.0  0.22828  0.74019  0.66043  1.0000
  C   C1421     1.0  0.31340  0.85030  0.67109  1.0000
  C   C1422     1.0  0.08645  0.87630  0.69338  1.0000
  H   H1140     1.0  0.29994  0.69299  0.53141  1.0000
  C   C1423     1.0  0.24104  0.87655  0.51331  1.0000
  C   C1424     1.0  0.22784  0.90578  0.65906  1.0000
  C   C1425     1.0  0.23823  0.88856  0.66502  1.0000
  C   C1426     1.0  0.25728  0.88533  0.65988  1.0000
  C   C1427     1.0  0.26593  0.89933  0.64876  1.0000
  C   C1428     1.0  0.25555  0.91643  0.64207  1.0000
  C   C1429     1.0  0.23645  0.91974  0.64774  1.0000
  C   C1430     1.0  0.26576  0.91968  0.69673  1.0000
  C   C1431     1.0  0.12545  0.85318  0.48870  1.0000
  H   H1141     1.0  0.21304  0.90812  0.66275  1.0000
  H   H1142     1.0  0.23145  0.87761  0.67328  1.0000
  H   H1143     1.0  0.26533  0.87188  0.66422  1.0000
  H   H1144     1.0  0.28069  0.89665  0.64509  1.0000
  H   H1145     1.0  0.22812  0.93296  0.64321  1.0000
  C   C1432     1.0  0.22812  0.97310  0.59083  1.0000
  H   H1146     1.0  0.25373  0.93063  0.69734  1.0000
  H   H1147     1.0  0.17707  0.84687  0.62721  1.0000
  P   P47       1.0  0.10650  0.84905  0.67381  1.0000
  C   C1433     1.0  0.23340  0.74226  0.54265  1.0000
  H   H1148     1.0  0.24448  0.96325  0.64688  1.0000
  C   C1434     1.0  0.31723  0.60985  0.53980  1.0000
  C   C1435     1.0  0.26602  0.74945  0.51935  1.0000
  H   H1149     1.0  0.27844  0.75282  0.51031  1.0000
  H   H1150     1.0  0.26140  0.63852  0.56687  1.0000
  C   C1436     1.0  0.12135  0.83937  0.50385  1.0000
  H   H1151     1.0  0.29241  0.51539  0.72407  1.0000
  C   C1437     1.0  0.16458  0.62314  0.68659  1.0000
  C   C1438     1.0  0.14043  0.86467  0.50608  1.0000
  C   C1439     1.0  0.13742  0.85019  0.52099  1.0000
  C   C1440     1.0  0.12736  0.83780  0.51993  1.0000
  P   P48       1.0  0.14305  0.84969  0.54244  1.0000
  C   C1441     1.0  0.14635  0.82667  0.55574  1.0000
  C   C1442     1.0  0.16429  0.85618  0.54098  1.0000
  C   C1443     1.0  0.16858  0.85768  0.55711  1.0000
  C   C1444     1.0  0.18452  0.86337  0.55644  1.0000
  C   C1445     1.0  0.19646  0.86726  0.53972  1.0000
  C   C1446     1.0  0.19273  0.86508  0.52373  1.0000
  C   C1447     1.0  0.17687  0.85920  0.52438  1.0000
  C   C1448     1.0  0.14001  0.82343  0.57470  1.0000
  C   C1449     1.0  0.14352  0.80572  0.58524  1.0000
  C   C1450     1.0  0.15405  0.79126  0.57699  1.0000
  C   C1451     1.0  0.16104  0.79453  0.55816  1.0000
  C   C1452     1.0  0.15700  0.81213  0.54749  1.0000
  C   C1453     1.0  0.12390  0.86455  0.55390  1.0000
  C   C1454     1.0  0.10639  0.86070  0.55779  1.0000
  C   C1455     1.0  0.09131  0.87221  0.56627  1.0000
  C   C1456     1.0  0.09359  0.88773  0.57088  1.0000
  C   C1457     1.0  0.11094  0.89187  0.56678  1.0000
  C   C1458     1.0  0.12600  0.88042  0.55818  1.0000
  H   H1152     1.0  0.11315  0.83016  0.50321  1.0000
  H   H1153     1.0  0.30474  0.88949  0.59009  1.0000
  C   C1459     1.0  0.20336  0.77141  0.48119  1.0000
  H   H1154     1.0  0.14664  0.87534  0.50705  1.0000
  H   H1155     1.0  0.12360  0.82730  0.53169  1.0000
  H   H1156     1.0  0.15923  0.85505  0.57015  1.0000
  H   H1157     1.0  0.18728  0.86538  0.56878  1.0000
  H   H1158     1.0  0.20829  0.87254  0.53912  1.0000
  H   H1159     1.0  0.20172  0.86861  0.51067  1.0000
  H   H1160     1.0  0.17448  0.85738  0.51185  1.0000
  H   H1161     1.0  0.13210  0.83456  0.58129  1.0000
  H   H1162     1.0  0.13778  0.80319  0.59975  1.0000
  H   H1163     1.0  0.15672  0.77754  0.58521  1.0000
  H   H1164     1.0  0.16950  0.78335  0.55194  1.0000
  H   H1165     1.0  0.16218  0.81449  0.53287  1.0000
  H   H1166     1.0  0.10430  0.84896  0.55398  1.0000
  H   H1167     1.0  0.07786  0.86902  0.56925  1.0000
  H   H1168     1.0  0.08198  0.89641  0.57784  1.0000
  H   H1169     1.0  0.11279  0.90379  0.57055  1.0000
  H   H1170     1.0  0.13917  0.88411  0.55489  1.0000
  C   C1460     1.0  0.26936  0.68745  0.51857  1.0000
  C   C1461     1.0  0.24936  0.75734  0.51386  1.0000
  H   H1171     1.0  0.12819  0.82534  0.64795  1.0000
  C   C1462     1.0  0.13497  0.86583  0.48987  1.0000
  C   C1463     1.0  0.21070  0.67594  0.50719  1.0000
  C   C1464     1.0  0.24848  0.63676  0.56532  1.0000
  H   H1172     1.0  0.25671  0.66898  0.54112  1.0000
  H   H1173     1.0  0.19498  0.90758  0.50192  1.0000
  H   H1174     1.0  0.21175  0.91321  0.52263  1.0000
  C   C1465     1.0  0.28855  0.66773  0.57383  1.0000
  H   H1175     1.0  0.13711  0.83678  0.69320  1.0000
  C   C1466     1.0  0.19207  0.80137  0.60563  1.0000
  C   C1467     1.0  0.24638  0.63472  0.54844  1.0000
  H   H1176     1.0  0.26382  0.69907  0.52522  1.0000
  C   C1468     1.0  0.20062  0.75794  0.65000  1.0000
  C   C1469     1.0  0.28142  0.70002  0.57472  1.0000
  H   H1177     1.0  0.02471  0.85250  0.57696  1.0000
  C   C1470     1.0  0.19605  0.76884  0.60732  1.0000
  C   C1471     1.0  0.07885  0.80950  0.50540  1.0000
  C   C1472     1.0  0.27167  0.65540  0.51877  1.0000
  H   H1178     1.0  0.26849  0.59954  0.55736  1.0000
  C   C1473     1.0  0.09882  0.88682  0.66131  1.0000
  C   C1474     1.0  0.19256  0.78352  0.61621  1.0000
  H   H1179     1.0  0.29943  0.94866  0.60734  1.0000
  C   C1475     1.0  0.21597  0.83038  0.48335  1.0000
  C   C1476     1.0  0.28014  0.88842  0.69398  1.0000
  C   C1477     1.0  0.26653  0.73758  0.53642  1.0000
  C   C1478     1.0  0.25006  0.73415  0.54810  1.0000
  H   H1180     1.0  0.31232  0.48633  0.70364  1.0000
  C   C1479     1.0  0.25884  0.81907  0.50931  1.0000
  C   C1480     1.0  0.29704  0.89145  0.69477  1.0000
  H   H1181     1.0  0.28307  0.54433  0.70273  1.0000
  H   H1182     1.0  0.08282  0.80064  0.66108  1.0000
  C   C1481     1.0  0.12015  0.94444  0.52655  1.0000
  C   C1482     1.0  0.00505  0.78359  0.50038  1.0000
  C   C1483     1.0  0.30753  0.72326  0.50947  1.0000
  H   H1183     1.0  0.24250  0.92778  0.60732  1.0000
  H   H1184     1.0  0.12483  0.93143  0.52221  1.0000
  H   H1185     1.0  0.23536  0.93619  0.53733  1.0000
  C   C1484     1.0  0.25512  0.51959  0.69701  1.0000
  H   H1186     1.0  0.13451  0.87093  0.66698  1.0000
  H   H1187     1.0  0.26728  0.76405  0.55259  1.0000
  C   C1485     1.0  0.25054  0.80531  0.52143  1.0000
  H   H1188     1.0  0.19601  0.75499  0.61506  1.0000
  H   H1189     1.0  0.12246  0.79386  0.63422  1.0000
  C   C1486     1.0  0.30269  0.62168  0.53243  1.0000
  C   C1487     1.0  0.28810  0.70444  0.55577  1.0000
  H   H1190     1.0  0.16922  0.60449  0.71199  1.0000
  C   C1488     1.0  0.18287  0.81913  0.66948  1.0000
  C   C1489     1.0  0.14185  0.70402  0.50347  1.0000
  C   C1490     1.0  0.15288  0.72048  0.52819  1.0000
  H   H1191     1.0  0.01780  0.84882  0.61064  1.0000
  H   H1192     1.0  0.24872  0.90675  0.55520  1.0000
  H   H1193     1.0  0.25936  0.54706  0.68535  1.0000
  P   P49       1.0  0.28779  0.72812  0.54422  1.0000
  Fe  Fe99      1.0  0.31782  0.80245  0.59243  1.0000
  H   H1194     1.0  0.25008  0.72516  0.56140  1.0000
  H   H1195     1.0  0.18269  0.75599  0.48435  1.0000
  H   H1196     1.0  0.29996  0.66115  0.54724  1.0000
  C   C1491     1.0  0.26070  0.83380  0.51561  1.0000
  H   H1197     1.0  0.17107  0.96854  0.54080  1.0000
  C   C1492     1.0  0.24376  0.80644  0.53977  1.0000
  H   H1198     1.0  0.23627  0.83342  0.60830  1.0000
  C   C1493     1.0  0.30063  0.93554  0.60398  1.0000
  C   C1494     1.0  0.29504  0.84144  0.53343  1.0000
  H   H1199     1.0  0.13529  0.53738  0.72072  1.0000
  H   H1200     1.0  0.32093  0.56607  0.72132  1.0000
  H   H1201     1.0  0.22927  0.89338  0.49056  1.0000
  C   C1495     1.0  0.28250  0.92281  0.69760  1.0000
  C   C1496     1.0  0.16029  0.62459  0.66958  1.0000
  C   C1497     1.0  0.21109  0.81867  0.64690  1.0000
  C   C1498     1.0  0.19867  0.82604  0.66112  1.0000
  C   C1499     1.0  0.25409  0.83506  0.53407  1.0000
  C   C1500     1.0  0.24538  0.82130  0.54606  1.0000
  H   H1202     1.0  0.13827  0.70918  0.64738  1.0000
  H   H1203     1.0  0.25614  0.83069  0.57829  1.0000
  H   H1204     1.0  0.31100  0.91185  0.69654  1.0000
  H   H1205     1.0  0.08148  0.82986  0.70321  1.0000
  H   H1206     1.0  0.20167  0.95123  0.52967  1.0000
  H   H1207     1.0  0.21343  0.95272  0.55800  1.0000
  C   C1501     1.0  0.24736  0.90637  0.49750  1.0000
  C   C1502     1.0  0.23385  0.84406  0.59641  1.0000
  S   S199      1.0  0.19777  0.55525  0.71954  1.0000
  C   C1503     1.0  0.29478  0.57729  0.71399  1.0000
  C   C1504     1.0  0.24515  0.84257  0.57935  1.0000
  S   S200      1.0  0.29364  0.78223  0.51179  1.0000
  H   H1208     1.0  0.24000  0.82168  0.56031  1.0000
  C   C1505     1.0  0.12727  0.76067  0.49651  1.0000
  C   C1506     1.0  0.30643  0.78621  0.52564  1.0000
  H   H1209     1.0  0.30650  0.94875  0.66058  1.0000
  H   H1210     1.0  0.30466  0.85872  0.57224  1.0000
  H   H1211     1.0  0.99631  0.80265  0.65932  1.0000
  C   C1507     1.0  0.22267  0.72396  0.66189  1.0000
  H   H1212     1.0  0.04153  0.79205  0.55867  1.0000
  C   C1508     1.0  0.21982  0.85942  0.59815  1.0000
  H   H1213     1.0  0.11878  0.74486  0.54231  1.0000
  H   H1214     1.0  0.21112  0.86072  0.61140  1.0000
  H   H1215     1.0  0.07542  0.92285  0.68125  1.0000
  C   C1509     1.0  0.22569  0.64292  0.69561  1.0000
  C   C1510     1.0  0.20305  0.97755  0.63413  1.0000
  C   C1511     1.0  0.19494  0.74154  0.65187  1.0000
  C   C1512     1.0  0.15651  0.76931  0.66633  1.0000
  C   C1513     1.0  0.01395  0.87349  0.54222  1.0000
  H   H1216     1.0  0.11149  0.77650  0.66515  1.0000
  C   C1514     1.0  0.28495  0.61814  0.53867  1.0000
  C   C1515     1.0  0.27701  0.53268  0.70428  1.0000
  C   C1516     1.0  0.25297  0.87480  0.52492  1.0000
  P   P50       1.0  0.25726  0.85407  0.54196  1.0000
  C   C1517     1.0  0.31294  0.83864  0.53579  1.0000
  H   H1217     1.0  0.05424  0.85564  0.64481  1.0000
  C   C1518     1.0  0.20589  0.72466  0.65783  1.0000
  H   H1218     1.0  0.18223  0.74173  0.64832  1.0000
  H   H1219     1.0  0.16583  0.76241  0.67547  1.0000
  C   C1519     1.0  0.21741  0.87345  0.58289  1.0000
  C   C1520     1.0  0.09660  0.87237  0.67645  1.0000
  C   C1521     1.0  0.22858  0.87195  0.56576  1.0000
  C   C1522     1.0  0.10889  0.73839  0.54006  1.0000
  C   C1523     1.0  0.07883  0.89447  0.69509  1.0000
  C   C1524     1.0  0.28205  0.60258  0.55235  1.0000
  H   H1220     1.0  0.05773  0.82229  0.64767  1.0000
  C   C1525     1.0  0.27698  0.75816  0.56146  1.0000
  C   C1526     1.0  0.99293  0.85743  0.48141  1.0000
  H   H1221     1.0  0.11625  0.76236  0.50819  1.0000
  C   C1527     1.0  0.09447  0.82703  0.70734  1.0000
  H   H1222     1.0  0.27316  0.86432  0.56793  1.0000
  H   H1223     1.0  0.05010  0.88708  0.51048  1.0000
  C   C1528     1.0  0.14076  0.67558  0.68575  1.0000
  C   C1529     1.0  0.28042  0.85049  0.54502  1.0000
  C   C1530     1.0  0.00811  0.88874  0.55061  1.0000
  H   H1224     1.0  0.08501  0.87550  0.49569  1.0000
  S   S201      1.0  0.07999  0.79538  0.49041  1.0000
  H   H1225     1.0  0.15855  0.68627  0.52245  1.0000
  H   H1226     1.0  0.08436  0.86543  0.70525  1.0000
  H   H1227     1.0  0.22650  0.88315  0.55424  1.0000
  C   C1531     1.0  0.13926  0.74370  0.49535  1.0000
  C   C1532     1.0  0.26189  0.88916  0.52281  1.0000
  H   H1228     1.0  0.20708  0.88571  0.58435  1.0000
  C   C1533     1.0  0.00569  0.80359  0.61365  1.0000
  C   C1534     1.0  0.28408  0.85713  0.55879  1.0000
  C   C1535     1.0  0.14335  0.69650  0.65625  1.0000
  C   C1536     1.0  0.25135  0.96859  0.60830  1.0000
  H   H1229     1.0  0.23153  0.71086  0.66571  1.0000
  H   H1230     1.0  0.27577  0.71064  0.58264  1.0000
  C   C1537     1.0  0.06511  0.84621  0.65094  1.0000
  C   C1538     1.0  0.06710  0.82740  0.65249  1.0000
  H   H1231     1.0  0.13318  0.76094  0.68580  1.0000
  C   C1539     1.0  0.21502  0.65872  0.68714  1.0000
  C   C1540     1.0  0.01368  0.87913  0.48810  1.0000
  C   C1541     1.0  0.03366  0.95893  0.49668  1.0000
  C   C1542     1.0  0.31762  0.91220  0.58666  1.0000
  C   C1543     1.0  0.21432  0.48936  0.71898  1.0000
  H   H1232     1.0  0.10167  0.90030  0.53080  1.0000
  C   C1544     1.0  0.07726  0.85286  0.65698  1.0000
  H   H1233     1.0  0.07549  0.86750  0.65542  1.0000
  H   H1234     1.0  0.16481  0.87005  0.64665  1.0000
  H   H1235     1.0  0.17394  0.73063  0.50646  1.0000
  H   H1236     1.0  0.02169  0.88762  0.49045  1.0000
  C   C1545     1.0  0.15343  0.83443  0.63682  1.0000
  C   C1546     1.0  0.13606  0.83500  0.64810  1.0000
  H   H1237     1.0  0.08731  0.75026  0.56012  1.0000
  C   C1547     1.0  0.09153  0.84069  0.66470  1.0000
  C   C1548     1.0  0.09342  0.82177  0.66622  1.0000
  C   C1549     1.0  0.16372  0.84714  0.63614  1.0000
  C   C1550     1.0  0.12885  0.84830  0.65891  1.0000
  C   C1551     1.0  0.15680  0.86022  0.64709  1.0000
  H   H1238     1.0  0.10428  0.81212  0.67214  1.0000
  P   P51       1.0  0.13690  0.72385  0.51363  1.0000
  C   C1552     1.0  0.12568  0.83094  0.70169  1.0000
  H   H1239     1.0  0.29265  0.83605  0.52291  1.0000
  H   H1240     1.0  0.31051  0.72093  0.57137  1.0000
  H   H1241     1.0  0.00170  0.79312  0.52515  1.0000
  C   C1553     1.0  0.26564  0.95064  0.55293  1.0000
  C   C1554     1.0  0.18975  0.97160  0.62897  1.0000
  H   H1242     1.0  0.29422  0.57887  0.57029  1.0000
  H   H1243     1.0  0.27745  0.90129  0.61159  1.0000
  C   C1555     1.0  0.03026  0.81731  0.51862  1.0000
  C   C1556     1.0  0.01940  0.83292  0.52480  1.0000
  H   H1244     1.0  0.28856  0.65364  0.58085  1.0000
  H   H1245     1.0  0.17876  0.65981  0.65560  1.0000
  H   H1246     1.0  0.04657  0.79047  0.52601  1.0000
  C   C1557     1.0  0.08731  0.88751  0.49884  1.0000
  H   H1247     1.0  0.26430  0.81799  0.49512  1.0000
  H   H1248     1.0  0.25968  0.97456  0.61353  1.0000
  C   C1558     1.0  0.29498  0.67197  0.55496  1.0000
  C   C1559     1.0  0.25906  0.90490  0.50915  1.0000
  C   C1560     1.0  0.25055  0.95979  0.48235  1.0000
  H   H1249     1.0  0.26609  0.91585  0.50748  1.0000
  H   H1250     1.0  0.26871  0.78112  0.57497  1.0000
  H   H1251     1.0  0.01276  0.91495  0.55113  1.0000
  C   C1561     1.0  0.08916  0.91967  0.48971  1.0000
  C   C1562     1.0  0.16420  0.97806  0.51395  1.0000
  H   H1252     1.0  0.01048  0.76949  0.50618  1.0000
  H   H1253     1.0  0.25161  0.90010  0.69417  1.0000
  S   S202      1.0  0.20583  0.66497  0.49202  1.0000
  C   C1563     1.0  0.28898  0.94186  0.64678  1.0000
  H   H1254     1.0  0.13625  0.97066  0.56042  1.0000
  H   H1255     1.0  0.16665  0.68852  0.63562  1.0000
  C   C1564     1.0  0.28825  0.90898  0.60639  1.0000
  H   H1256     1.0  0.29188  0.76926  0.59419  1.0000
  C   C1565     1.0  0.09674  0.96538  0.54283  1.0000
  C   C1566     1.0  0.09474  0.91823  0.50605  1.0000
  C   C1567     1.0  0.31639  0.84475  0.54985  1.0000
  C   C1568     1.0  0.19298  0.95867  0.52011  1.0000
  C   C1569     1.0  0.18785  0.96753  0.48920  1.0000
  C   C1570     1.0  0.13534  0.70520  0.48774  1.0000
  C   C1571     1.0  0.28258  0.65777  0.50106  1.0000
  H   H1257     1.0  0.18360  0.96265  0.57693  1.0000
  H   H1258     1.0  0.28764  0.64647  0.49396  1.0000
  C   C1572     1.0  0.18989  0.64283  0.69370  1.0000
  S   S203      1.0  0.31308  0.78025  0.61748  1.0000
  C   C1573     1.0  0.12908  0.77581  0.48217  1.0000
  C   C1574     1.0  0.27414  0.50129  0.71853  1.0000
  C   C1575     1.0  0.12756  0.81980  0.71879  1.0000
  C   C1576     1.0  0.13636  0.63607  0.72159  1.0000
  H   H1259     1.0  0.13059  0.63404  0.71106  1.0000
  C   C1577     1.0  0.25102  0.95956  0.50040  1.0000
  C   C1578     1.0  0.29814  0.90884  0.69642  1.0000
  C   C1579     1.0  0.99440  0.80199  0.64613  1.0000
  H   H1260     1.0  0.12154  0.70089  0.67940  1.0000
  H   H1261     1.0  0.30869  0.83335  0.65518  1.0000
  C   C1580     1.0  0.28223  0.51629  0.71634  1.0000
  C   C1581     1.0  0.12458  0.56378  0.72798  1.0000
  C   C1582     1.0  0.28194  0.68173  0.58369  1.0000
  C   C1583     1.0  0.31420  0.59443  0.55343  1.0000
  H   H1262     1.0  0.28339  0.93617  0.69897  1.0000
  H   H1263     1.0  0.08575  0.73946  0.49245  1.0000
  H   H1264     1.0  0.30004  0.58658  0.70180  1.0000
  H   H1265     1.0  0.13338  0.67234  0.69969  1.0000
  C   C1584     1.0  0.31921  0.88013  0.65441  1.0000
  C   C1585     1.0  0.19086  0.97273  0.56763  1.0000
  P   P52       1.0  0.16635  0.64307  0.69387  1.0000
  C   C1586     1.0  0.24653  0.62957  0.48640  1.0000
  C   C1587     1.0  0.26722  0.60592  0.51115  1.0000
  C   C1588     1.0  0.13400  0.69184  0.67429  1.0000
  Fe  Fe100     1.0  0.22185  0.56780  0.71716  1.0000
  C   C1589     1.0  0.99754  0.85090  0.57556  1.0000
  C   C1590     1.0  0.16619  0.66862  0.66096  1.0000
  C   C1591     1.0  0.15695  0.66384  0.67916  1.0000
  H   H1266     1.0  0.07103  0.89746  0.70817  1.0000
  C   C1592     1.0  0.29661  0.59080  0.55969  1.0000
  C   C1593     1.0  0.27604  0.57771  0.71916  1.0000
  H   H1267     1.0  0.02285  0.81963  0.56962  1.0000
  P   P53       1.0  0.24051  0.97373  0.53225  1.0000
  H   H1268     1.0  0.22147  0.94854  0.58834  1.0000
  C   C1594     1.0  0.31150  0.84649  0.65500  1.0000
  H   H1269     1.0  0.27694  0.67842  0.59835  1.0000
  C   C1595     1.0  0.29489  0.69020  0.54599  1.0000
  C   C1596     1.0  0.25281  0.61115  0.48532  1.0000
  C   C1597     1.0  0.28878  0.74111  0.56030  1.0000
  H   H1270     1.0  0.13209  0.98111  0.58912  1.0000
  C   C1598     1.0  0.30660  0.56539  0.72490  1.0000
  H   H1271     1.0  0.99667  0.88919  0.56215  1.0000
  H   H1272     1.0  0.08328  0.96855  0.55129  1.0000
  C   C1599     1.0  0.29097  0.76134  0.58485  1.0000
  C   C1600     1.0  0.31605  0.92886  0.59156  1.0000
  P   P54       1.0  0.18696  0.79210  0.48531  1.0000
  H   H1273     1.0  0.28287  0.97411  0.67202  1.0000
  H   H1274     1.0  0.23962  0.64278  0.69604  1.0000
  C   C1601     1.0  0.30863  0.82912  0.48863  1.0000
  C   C1602     1.0  0.99004  0.81993  0.48561  1.0000
  C   C1603     1.0  0.99475  0.88232  0.49440  1.0000
  H   H1275     1.0  0.29859  0.82143  0.49738  1.0000
  H   H1276     1.0  0.22681  0.61485  0.70977  1.0000
  C   C1604     1.0  0.31724  0.86720  0.67091  1.0000
  H   H1277     1.0  0.25182  0.98104  0.66527  1.0000
  H   H1278     1.0  0.12354  0.93381  0.48150  1.0000
  C   C1605     1.0  0.31369  0.85935  0.63859  1.0000
  H   H1279     1.0  0.14034  0.81708  0.72330  1.0000
  H   H1280     1.0  0.31250  0.73905  0.59272  1.0000
  C   C1606     1.0  0.30171  0.85324  0.72545  1.0000
  H   H1281     1.0  0.31235  0.85625  0.62613  1.0000
  C   C1607     1.0  0.31659  0.85387  0.71057  1.0000
  C   C1608     1.0  0.08481  0.90428  0.48659  1.0000
  H   H1282     1.0  0.12740  0.71795  0.48153  1.0000
  H   H1283     1.0  0.31951  0.88599  0.62554  1.0000
  C   C1609     1.0  0.15065  0.67378  0.48663  1.0000
  H   H1284     1.0  0.01220  0.97734  0.48396  1.0000
  H   H1285     1.0  0.28985  0.86431  0.72585  1.0000
  C   C1610     1.0  0.31769  0.87610  0.63827  1.0000
  Fe  Fe101     1.0  0.30178  0.78204  0.48173  1.0000
  C   C1611     1.0  0.98982  0.84708  0.61371  1.0000
  H   H1286     1.0  0.16190  0.98434  0.48545  1.0000
  C   C1612     1.0  0.13663  0.98476  0.55978  1.0000
  H   H1287     1.0  0.09631  0.71083  0.48009  1.0000
  C   C1613     1.0  0.02644  0.97040  0.48190  1.0000
  Fe  Fe102     1.0  0.05233  0.58974  0.84531  1.0000
  S   S204      1.0  0.07684  0.56859  0.83591  1.0000
  Fe  Fe103     1.0  0.06697  0.59107  0.87803  1.0000
  S   S205      1.0  0.09165  0.56988  0.87132  1.0000
  S   S206      1.0  0.06295  0.60305  0.90293  1.0000
  Fe  Fe104     1.0  0.09331  0.58533  0.84238  1.0000
  S   S207      1.0  0.12193  0.59000  0.82938  1.0000
  Fe  Fe105     1.0  0.07293  0.55524  0.86566  1.0000
  S   S208      1.0  0.07629  0.52488  0.87683  1.0000
  S   S209      1.0  0.06932  0.60774  0.84931  1.0000
  S   S210      1.0  0.04761  0.57522  0.87480  1.0000
  Fe  Fe106     1.0  0.14951  0.58873  0.95192  1.0000
  S   S211      1.0  0.17200  0.57309  0.93370  1.0000
  H   H1288     1.0  0.12292  0.50182  0.77869  1.0000
  C   C1614     1.0  0.05991  0.55145  0.77110  1.0000
  H   H1289     1.0  0.08175  0.60812  0.95647  1.0000
  Fe  Fe107     1.0  0.18754  0.59466  0.93202  1.0000
  S   S212      1.0  0.20405  0.60800  0.90574  1.0000
  C   C1615     1.0  0.00228  0.51411  0.83128  1.0000
  H   H1290     1.0  0.06358  0.54384  0.90676  1.0000
  S   S213      1.0  0.16396  0.61173  0.94810  1.0000
  S   S214      1.0  0.20029  0.57988  0.95611  1.0000
  C   C1616     1.0  0.10502  0.54507  0.76012  1.0000
  C   C1617     1.0  0.99660  0.59754  0.82517  1.0000
  Fe  Fe108     1.0  0.30099  0.57816  0.85618  1.0000
  S   S215      1.0  0.29629  0.60688  0.83922  1.0000
  S   S216      1.0  0.28649  0.56782  0.88495  1.0000
  H   H1291     1.0  0.15735  0.64103  0.76017  1.0000
  C   C1618     1.0  0.24393  0.56034  0.96522  1.0000
  C   C1619     1.0  0.30485  0.57034  0.92441  1.0000
  H   H1292     1.0  0.19391  0.54012  0.93001  1.0000
  S   S217      1.0  0.23549  0.55140  0.78159  1.0000
  Fe  Fe109     1.0  0.29723  0.59233  0.81703  1.0000
  S   S218      1.0  0.27888  0.60401  0.79631  1.0000
  H   H1293     1.0  0.25564  0.50937  0.75096  1.0000
  S   S219      1.0  0.29999  0.56398  0.83451  1.0000
  S   S220      1.0  0.19612  0.54549  0.76386  1.0000
  S   S221      1.0  0.20895  0.58319  0.73995  1.0000
  H   H1294     1.0  0.27713  0.49754  0.81905  1.0000
  H   H1295     1.0  0.06626  0.54792  0.75789  1.0000
  C   C1620     1.0  0.20319  0.50689  0.85761  1.0000
  C   C1621     1.0  0.30251  0.52684  0.77597  1.0000
  P   P55       1.0  0.16502  0.48614  0.81770  1.0000
  H   H1296     1.0  0.19022  0.50310  0.86464  1.0000
  C   C1622     1.0  0.00168  0.59204  0.85590  1.0000
  Fe  Fe110     1.0  0.22089  0.55754  0.75817  1.0000
  C   C1623     1.0  0.28991  0.52103  0.80860  1.0000
  H   H1297     1.0  0.10115  0.51235  0.84509  1.0000
  H   H1298     1.0  0.14258  0.54861  0.96960  1.0000
  C   C1624     1.0  0.24721  0.56658  0.78516  1.0000
  C   C1625     1.0  0.25737  0.56038  0.79895  1.0000
  C   C1626     1.0  0.26741  0.57162  0.80211  1.0000
  C   C1627     1.0  0.26691  0.58945  0.79192  1.0000
  C   C1628     1.0  0.25650  0.59584  0.77822  1.0000
  C   C1629     1.0  0.24674  0.58438  0.77475  1.0000
  H   H1299     1.0  0.27542  0.56652  0.81254  1.0000
  C   C1630     1.0  0.11287  0.57345  0.74093  1.0000
  C   C1631     1.0  0.12248  0.54366  0.81348  1.0000
  C   C1632     1.0  0.23073  0.51598  0.85850  1.0000
  H   H1300     1.0  0.14905  0.52952  0.85931  1.0000
  H   H1301     1.0  0.01047  0.59097  0.86514  1.0000
  H   H1302     1.0  0.25755  0.54673  0.80713  1.0000
  C   C1633     1.0  0.16415  0.48825  0.79399  1.0000
  C   C1634     1.0  0.23291  0.48987  0.92061  1.0000
  C   C1635     1.0  0.22716  0.59717  0.90074  1.0000
  C   C1636     1.0  0.23395  0.58042  0.91143  1.0000
  C   C1637     1.0  0.25229  0.57171  0.90676  1.0000
  C   C1638     1.0  0.26378  0.57942  0.89105  1.0000
  C   C1639     1.0  0.25700  0.59619  0.88041  1.0000
  C   C1640     1.0  0.23879  0.60516  0.88537  1.0000
  H   H1303     1.0  0.22501  0.57400  0.92309  1.0000
  H   H1304     1.0  0.25743  0.55884  0.91518  1.0000
  H   H1305     1.0  0.26572  0.60229  0.86834  1.0000
  H   H1306     1.0  0.23358  0.61810  0.87703  1.0000
  H   H1307     1.0  0.31607  0.65062  0.77361  1.0000
  C   C1641     1.0  0.09220  0.54945  0.93872  1.0000
  C   C1642     1.0  0.13800  0.56260  0.87317  1.0000
  H   H1308     1.0  0.31952  0.49348  0.84857  1.0000
  H   H1309     1.0  0.29996  0.58624  0.96945  1.0000
  C   C1643     1.0  0.13088  0.58845  0.80645  1.0000
  C   C1644     1.0  0.11955  0.59140  0.79406  1.0000
  C   C1645     1.0  0.12730  0.59010  0.77577  1.0000
  C   C1646     1.0  0.14632  0.58542  0.76998  1.0000
  C   C1647     1.0  0.15760  0.58248  0.78241  1.0000
  C   C1648     1.0  0.14988  0.58412  0.80057  1.0000
  H   H1310     1.0  0.10486  0.59473  0.79857  1.0000
  H   H1311     1.0  0.11854  0.59259  0.76617  1.0000
  H   H1312     1.0  0.17227  0.57905  0.77801  1.0000
  H   H1313     1.0  0.15863  0.58167  0.81019  1.0000
  C   C1649     1.0  0.07982  0.59967  0.91593  1.0000
  C   C1650     1.0  0.09824  0.59125  0.91064  1.0000
  C   C1651     1.0  0.11082  0.58910  0.92193  1.0000
  C   C1652     1.0  0.10490  0.59528  0.93852  1.0000
  C   C1653     1.0  0.08652  0.60340  0.94369  1.0000
  C   C1654     1.0  0.07417  0.60575  0.93245  1.0000
  H   H1314     1.0  0.10275  0.58641  0.89795  1.0000
  H   H1315     1.0  0.12492  0.58255  0.91790  1.0000
  H   H1316     1.0  0.16995  0.56850  0.89303  1.0000
  H   H1317     1.0  0.06004  0.61223  0.93666  1.0000
  H   H1318     1.0  0.13290  0.56730  0.86062  1.0000
  C   C1655     1.0  0.09371  0.50995  0.78076  1.0000
  C   C1656     1.0  0.11598  0.54344  0.79825  1.0000
  H   H1319     1.0  0.28152  0.87267  0.88229  1.0000
  H   H1320     1.0  0.13179  0.55242  0.81226  1.0000
  C   C1657     1.0  0.15114  0.55034  0.90558  1.0000
  C   C1658     1.0  0.10308  0.56417  0.75692  1.0000
  C   C1659     1.0  0.14512  0.50215  0.90186  1.0000
  H   H1321     1.0  0.31838  0.81280  0.75208  1.0000
  C   C1660     1.0  0.13457  0.63458  0.75369  1.0000
  C   C1661     1.0  0.28750  0.52105  0.91418  1.0000
  H   H1322     1.0  0.20128  0.62274  0.95990  1.0000
  H   H1323     1.0  0.11441  0.80362  0.74339  1.0000
  P   P56       1.0  0.26289  0.58660  0.96529  1.0000
  C   C1662     1.0  0.14784  0.51922  0.97389  1.0000
  H   H1324     1.0  0.27567  0.57351  0.93093  1.0000
  H   H1325     1.0  0.00157  0.60070  0.81054  1.0000
  C   C1663     1.0  0.14160  0.53696  0.96482  1.0000
  C   C1664     1.0  0.05701  0.52395  0.85191  1.0000
  H   H1326     1.0  0.18322  0.64629  0.85230  1.0000
  H   H1327     1.0  0.21582  0.61248  0.81389  1.0000
  H   H1328     1.0  0.03653  0.56418  0.81828  1.0000
  C   C1665     1.0  0.29908  0.53155  0.79309  1.0000
  C   C1666     1.0  0.19195  0.52625  0.93467  1.0000
  H   H1329     1.0  0.13459  0.61341  0.90775  1.0000
  C   C1667     1.0  0.25699  0.49694  0.76123  1.0000
  H   H1330     1.0  0.27703  0.61822  0.96509  1.0000
  H   H1331     1.0  0.09431  0.57183  0.76701  1.0000
  S   S222      1.0  0.23539  0.54303  0.73532  1.0000
  H   H1332     1.0  0.13897  0.49512  0.94720  1.0000
  H   H1333     1.0  0.12849  0.49000  0.81133  1.0000
  C   C1668     1.0  0.29209  0.48972  0.85266  1.0000
  H   H1334     1.0  0.25604  0.60963  0.77024  1.0000
  C   C1669     1.0  0.06701  0.48576  0.85634  1.0000
  P   P57       1.0  0.31491  0.53959  0.75585  1.0000
  C   C1670     1.0  0.20927  0.50745  0.83883  1.0000
  C   C1671     1.0  0.29665  0.51159  0.77454  1.0000
  C   C1672     1.0  0.09847  0.52088  0.81693  1.0000
  P   P58       1.0  0.12478  0.52849  0.92214  1.0000
  S   S223      1.0  0.03089  0.59935  0.82769  1.0000
  H   H1335     1.0  0.10434  0.49891  0.93135  1.0000
  H   H1336     1.0  0.30267  0.88319  0.85355  1.0000
  C   C1673     1.0  0.00831  0.59592  0.83700  1.0000
  H   H1337     1.0  0.30088  0.57748  0.76091  1.0000
  C   C1674     1.0  0.29539  0.50512  0.90730  1.0000
  H   H1338     1.0  0.18697  0.61182  0.87163  1.0000
  P   P59       1.0  0.24402  0.52316  0.87039  1.0000
  C   C1675     1.0  0.23769  0.54778  0.86587  1.0000
  C   C1676     1.0  0.24023  0.51405  0.89464  1.0000
  C   C1677     1.0  0.24230  0.52410  0.90653  1.0000
  C   C1678     1.0  0.23920  0.51727  0.92539  1.0000
  C   C1679     1.0  0.23431  0.50025  0.93243  1.0000
  C   C1680     1.0  0.31008  0.65282  0.80181  1.0000
  C   C1681     1.0  0.23614  0.49660  0.90174  1.0000
  C   C1682     1.0  0.24694  0.55833  0.85037  1.0000
  C   C1683     1.0  0.24172  0.57744  0.84689  1.0000
  C   C1684     1.0  0.22711  0.58604  0.85874  1.0000
  C   C1685     1.0  0.21758  0.57557  0.87393  1.0000
  C   C1686     1.0  0.22264  0.55651  0.87735  1.0000
  C   C1687     1.0  0.26791  0.51439  0.86259  1.0000
  C   C1688     1.0  0.27354  0.49708  0.85793  1.0000
  C   C1689     1.0  0.11665  0.49545  0.92135  1.0000
  C   C1690     1.0  0.30515  0.49933  0.85253  1.0000
  C   C1691     1.0  0.29968  0.51650  0.85735  1.0000
  C   C1692     1.0  0.28110  0.52398  0.86253  1.0000
  H   H1339     1.0  0.21486  0.54864  0.88905  1.0000
  S   S224      1.0  0.15938  0.57368  0.97783  1.0000
  H   H1340     1.0  0.24597  0.53738  0.90129  1.0000
  H   H1341     1.0  0.23993  0.52545  0.93458  1.0000
  H   H1342     1.0  0.27765  0.53158  0.90755  1.0000
  H   H1343     1.0  0.06435  0.51269  0.78481  1.0000
  C   C1693     1.0  0.28539  0.58120  0.95127  1.0000
  H   H1344     1.0  0.25815  0.55182  0.84100  1.0000
  H   H1345     1.0  0.24907  0.58562  0.83509  1.0000
  H   H1346     1.0  0.22330  0.60084  0.85632  1.0000
  S   S225      1.0  0.15588  0.58321  0.74725  1.0000
  C   C1694     1.0  0.22839  0.60726  0.96204  1.0000
  C   C1695     1.0  0.15911  0.50540  0.78271  1.0000
  H   H1347     1.0  0.03441  0.56551  0.76292  1.0000
  H   H1348     1.0  0.22421  0.60149  0.97644  1.0000
  H   H1349     1.0  0.30983  0.52405  0.85707  1.0000
  H   H1350     1.0  0.27710  0.53709  0.86669  1.0000
  C   C1696     1.0  0.06732  0.51382  0.86498  1.0000
  C   C1697     1.0  0.03347  0.56600  0.79088  1.0000
  C   C1698     1.0  0.07766  0.50375  0.78253  1.0000
  H   H1351     1.0  0.24905  0.52138  0.83226  1.0000
  H   H1352     1.0  0.19006  0.52375  0.90814  1.0000
  Fe  Fe111     1.0  0.17572  0.59520  0.97247  1.0000
  C   C1699     1.0  0.23647  0.51698  0.83956  1.0000
  C   C1700     1.0  0.25154  0.61042  0.93418  1.0000
  C   C1701     1.0  0.31503  0.57345  0.76236  1.0000
  H   H1353     1.0  0.09586  0.52837  0.90374  1.0000
  C   C1702     1.0  0.11295  0.81224  0.73013  1.0000
  C   C1703     1.0  0.28096  0.55385  0.74583  1.0000
  C   C1704     1.0  0.15543  0.51097  0.84093  1.0000
  C   C1705     1.0  0.13026  0.54978  0.88729  1.0000
  H   H1354     1.0  0.16799  0.61001  0.90273  1.0000
  H   H1355     1.0  0.18884  0.58199  0.85729  1.0000
  H   H1356     1.0  0.20304  0.55190  0.84908  1.0000
  C   C1706     1.0  0.22028  0.62674  0.93411  1.0000
  H   H1357     1.0  0.27509  0.54541  0.75838  1.0000
  H   H1358     1.0  0.21000  0.63564  0.92677  1.0000
  C   C1707     1.0  0.07154  0.54523  0.91583  1.0000
  H   H1359     1.0  0.12992  0.55371  0.94233  1.0000
  C   C1708     1.0  0.32092  0.84315  0.89067  1.0000
  C   C1709     1.0  0.25560  0.56496  0.97378  1.0000
  C   C1710     1.0  0.07195  0.49468  0.86749  1.0000
  H   H1360     1.0  0.04422  0.52282  0.83058  1.0000
  H   H1361     1.0  0.31485  0.72999  0.73613  1.0000
  C   C1711     1.0  0.13619  0.54412  0.90387  1.0000
  C   C1712     1.0  0.15135  0.63999  0.74935  1.0000
  C   C1713     1.0  0.08993  0.53648  0.91418  1.0000
  C   C1714     1.0  0.06105  0.55075  0.80232  1.0000
  C   C1715     1.0  0.31770  0.82413  0.74042  1.0000
  H   H1362     1.0  0.23026  0.51368  0.81513  1.0000
  H   H1363     1.0  0.15524  0.51066  0.89689  1.0000
  C   C1716     1.0  0.12702  0.63277  0.73980  1.0000
  H   H1364     1.0  0.11989  0.61784  0.88149  1.0000
  C   C1717     1.0  0.10512  0.52112  0.83203  1.0000
  H   H1365     1.0  0.13004  0.63040  0.79980  1.0000
  C   C1718     1.0  0.31848  0.65713  0.78341  1.0000
  H   H1366     1.0  0.16247  0.49159  0.74327  1.0000
  C   C1719     1.0  0.06355  0.55628  0.92868  1.0000
  H   H1367     1.0  0.20630  0.58222  0.88318  1.0000
  C   C1720     1.0  0.05733  0.49595  0.84280  1.0000
  C   C1721     1.0  0.00596  0.53167  0.82421  1.0000
  C   C1722     1.0  0.21376  0.51138  0.86739  1.0000
  C   C1723     1.0  0.23838  0.62238  0.92488  1.0000
  C   C1724     1.0  0.11644  0.53552  0.74675  1.0000
  H   H1368     1.0  0.08893  0.51215  0.81863  1.0000
  H   H1369     1.0  0.23080  0.49554  0.94709  1.0000
  H   H1370     1.0  0.06807  0.54688  0.81357  1.0000
  C   C1725     1.0  0.22583  0.51262  0.82980  1.0000
  H   H1371     1.0  0.24257  0.62454  0.81284  1.0000
  H   H1372     1.0  0.14820  0.50118  0.85089  1.0000
  H   H1373     1.0  0.25455  0.56726  0.73968  1.0000
  C   C1726     1.0  0.07382  0.55824  0.94025  1.0000
  C   C1727     1.0  0.11652  0.53299  0.83047  1.0000
  H   H1374     1.0  0.20137  0.57580  0.79272  1.0000
  H   H1375     1.0  0.15747  0.57989  0.86450  1.0000
  H   H1376     1.0  0.15167  0.49042  0.97443  1.0000
  H   H1377     1.0  0.13226  0.66294  0.78649  1.0000
  H   H1378     1.0  0.30348  0.54325  0.79454  1.0000
  C   C1728     1.0  0.24731  0.49740  0.77913  1.0000
  H   H1379     1.0  0.22826  0.54069  0.96579  1.0000
  H   H1380     1.0  0.12046  0.53407  0.84255  1.0000
  H   H1381     1.0  0.15013  0.61127  0.82041  1.0000
  H   H1382     1.0  0.23885  0.58934  0.76411  1.0000
  C   C1729     1.0  0.27077  0.61303  0.97909  1.0000
  H   H1383     1.0  0.24017  0.64703  0.83166  1.0000
  C   C1730     1.0  0.21121  0.48541  0.73808  1.0000
  H   H1384     1.0  0.31812  0.71190  0.76698  1.0000
  C   C1731     1.0  0.05191  0.51498  0.84091  1.0000
  H   H1385     1.0  0.29920  0.50771  0.76145  1.0000
  H   H1386     1.0  0.15686  0.54542  0.91774  1.0000
  H   H1387     1.0  0.24212  0.62804  0.91040  1.0000
  C   C1732     1.0  0.15875  0.50660  0.76442  1.0000
  C   C1733     1.0  0.06964  0.54607  0.78531  1.0000
  C   C1734     1.0  0.29585  0.86605  0.88009  1.0000
  C   C1735     1.0  0.24654  0.60250  0.95279  1.0000
  H   H1388     1.0  0.18727  0.60589  0.80061  1.0000
  C   C1736     1.0  0.15206  0.56956  0.87533  1.0000
  C   C1737     1.0  0.07860  0.48556  0.78194  1.0000
  C   C1738     1.0  0.28755  0.50113  0.79006  1.0000
  C   C1739     1.0  0.21533  0.61936  0.95272  1.0000
  H   H1389     1.0  0.01956  0.57380  0.79310  1.0000
  C   C1740     1.0  0.15889  0.56323  0.89140  1.0000
  H   H1390     1.0  0.30129  0.64292  0.80626  1.0000
  C   C1741     1.0  0.12899  0.50732  0.91435  1.0000
  C   C1742     1.0  0.30242  0.85163  0.89345  1.0000
  C   C1743     1.0  0.13430  0.53978  0.94937  1.0000
  H   H1391     1.0  0.21041  0.65792  0.85128  1.0000
  C   C1744     1.0  0.26915  0.56622  0.73520  1.0000
  H   H1392     1.0  0.09976  0.55177  0.94753  1.0000
  H   H1393     1.0  0.28324  0.48930  0.78889  1.0000
  Fe  Fe112     1.0  0.18563  0.56939  0.74331  1.0000
  C   C1745     1.0  0.30226  0.83834  0.74029  1.0000
  H   H1394     1.0  0.11419  0.62823  0.74325  1.0000
  H   H1395     1.0  0.15477  0.67606  0.79428  1.0000
  H   H1396     1.0  0.13822  0.62010  0.85032  1.0000
  H   H1397     1.0  0.17476  0.65705  0.81532  1.0000
  P   P60       1.0  0.09295  0.53336  0.78141  1.0000
  C   C1746     1.0  0.10354  0.53233  0.80000  1.0000
  H   H1398     1.0  0.28726  0.52476  0.82176  1.0000
  Fe  Fe113     1.0  0.21015  0.53196  0.74010  1.0000
  C   C1747     1.0  0.19116  0.49888  0.95842  1.0000
  H   H1399     1.0  0.20964  0.54886  0.81671  1.0000
  H   H1400     1.0  0.06772  0.56723  0.94987  1.0000
  C   C1748     1.0  0.28415  0.50581  0.80709  1.0000
  H   H1401     1.0  0.15539  0.51792  0.78783  1.0000
  H   H1402     1.0  0.29320  0.84704  0.90601  1.0000
  C   C1749     1.0  0.17385  0.52046  0.81110  1.0000
  C   C1750     1.0  0.17361  0.53690  0.81574  1.0000
  C   C1751     1.0  0.16461  0.54024  0.83308  1.0000
  H   H1403     1.0  0.12046  0.55222  0.78537  1.0000
  C   C1752     1.0  0.30103  0.58219  0.95674  1.0000
  H   H1404     1.0  0.18171  0.51772  0.79794  1.0000
  H   H1405     1.0  0.18045  0.54702  0.80584  1.0000
  H   H1406     1.0  0.16432  0.55304  0.83663  1.0000
  C   C1753     1.0  0.13455  0.61675  0.87919  1.0000
  C   C1754     1.0  0.14281  0.61404  0.89401  1.0000
  C   C1755     1.0  0.16169  0.61216  0.89115  1.0000
  C   C1756     1.0  0.17236  0.61329  0.87344  1.0000
  C   C1757     1.0  0.16413  0.61669  0.85832  1.0000
  C   C1758     1.0  0.14511  0.61807  0.86142  1.0000
  P   P61       1.0  0.17795  0.61848  0.83532  1.0000
  C   C1759     1.0  0.19744  0.62825  0.83344  1.0000
  C   C1760     1.0  0.18660  0.59612  0.82970  1.0000
  C   C1761     1.0  0.19030  0.59420  0.81143  1.0000
  C   C1762     1.0  0.19842  0.57717  0.80686  1.0000
  C   C1763     1.0  0.20308  0.56196  0.82041  1.0000
  C   C1764     1.0  0.19939  0.56371  0.83861  1.0000
  C   C1765     1.0  0.19127  0.58076  0.84322  1.0000
  C   C1766     1.0  0.19608  0.64141  0.84364  1.0000
  C   C1767     1.0  0.21146  0.64810  0.84304  1.0000
  C   C1768     1.0  0.22821  0.64198  0.83201  1.0000
  C   C1769     1.0  0.22957  0.62928  0.82144  1.0000
  C   C1770     1.0  0.21427  0.62247  0.82209  1.0000
  C   C1771     1.0  0.16404  0.63264  0.81932  1.0000
  C   C1772     1.0  0.16524  0.65101  0.81185  1.0000
  C   C1773     1.0  0.15391  0.66186  0.79991  1.0000
  C   C1774     1.0  0.14125  0.65448  0.79548  1.0000
  C   C1775     1.0  0.14003  0.63620  0.80285  1.0000
  C   C1776     1.0  0.15145  0.62532  0.81460  1.0000
  H   H1407     1.0  0.04954  0.56375  0.92931  1.0000
  C   C1777     1.0  0.11053  0.49748  0.77930  1.0000
  C   C1778     1.0  0.30568  0.51017  0.93751  1.0000
  S   S226      1.0  0.21028  0.50174  0.75074  1.0000
  H   H1408     1.0  0.12757  0.63138  0.76782  1.0000
  H   H1409     1.0  0.15576  0.51991  0.75558  1.0000
  H   H1410     1.0  0.23491  0.48838  0.89283  1.0000
  C   C1779     1.0  0.19209  0.51742  0.95286  1.0000
  C   C1780     1.0  0.18876  0.49844  0.92783  1.0000
  H   H1411     1.0  0.23859  0.51013  0.78229  1.0000
  Fe  Fe114     1.0  0.18299  0.55963  0.95932  1.0000
  C   C1781     1.0  0.04304  0.56061  0.80508  1.0000
  H   H1412     1.0  0.11960  0.54424  0.88530  1.0000
  C   C1782     1.0  0.10054  0.53861  0.92550  1.0000
  C   C1783     1.0  0.13931  0.50695  0.95211  1.0000
  C   C1784     1.0  0.04188  0.56137  0.77390  1.0000
  C   C1785     1.0  0.29985  0.55323  0.74069  1.0000
  H   H1413     1.0  0.20860  0.51132  0.88181  1.0000
  C   C1786     1.0  0.30776  0.87197  0.86390  1.0000
  S   S227      1.0  0.11908  0.59262  0.95416  1.0000
  H   H1414     1.0  0.20109  0.50412  0.83120  1.0000
  C   C1787     1.0  0.15590  0.52707  0.84580  1.0000
  H   H1415     1.0  0.26363  0.48916  0.85840  1.0000
  C   C1788     1.0  0.16411  0.50769  0.82339  1.0000
  C   C1789     1.0  0.19015  0.51683  0.92219  1.0000
  H   H1416     1.0  0.05328  0.53872  0.85001  1.0000
  H   H1417     1.0  0.30736  0.65709  0.82892  1.0000
  H   H1418     1.0  0.29117  0.50331  0.89567  1.0000
  C   C1790     1.0  0.13322  0.52479  0.94278  1.0000
  H   H1419     1.0  0.26544  0.60744  0.92671  1.0000
  C   C1791     1.0  0.23781  0.54386  0.97206  1.0000
  H   H1420     1.0  0.08502  0.81013  0.73326  1.0000
  S   S228      1.0  0.19347  0.52948  0.96866  1.0000
  H   H1421     1.0  0.30632  0.56572  0.91188  1.0000
  C   C1792     1.0  0.99678  0.54593  0.83332  1.0000
  C   C1793     1.0  0.30884  0.49175  0.91518  1.0000
  S   S229      1.0  0.18757  0.48664  0.91181  1.0000
  H   H1422     1.0  0.23939  0.56953  0.95334  1.0000
  C   C1794     1.0  0.28748  0.57484  0.93521  1.0000
  C   C1795     1.0  0.16239  0.49068  0.75753  1.0000
  C   C1796     1.0  0.14649  0.50421  0.96768  1.0000
  H   H1423     1.0  0.11791  0.52093  0.74844  1.0000
  H   H1424     1.0  0.00992  0.50048  0.87347  1.0000
  H   H1425     1.0  0.31558  0.60024  0.76544  1.0000
  H   H1426     1.0  0.29086  0.83795  0.75186  1.0000
  C   C1797     1.0  0.29255  0.52356  0.92933  1.0000
  C   C1798     1.0  0.32028  0.57187  0.92967  1.0000
  C   C1799     1.0  0.31838  0.57772  0.94587  1.0000
  C   C1800     1.0  0.18934  0.48940  0.94594  1.0000
  H   H1427     1.0  0.99976  0.55949  0.82793  1.0000
  H   H1428     1.0  0.07996  0.48682  0.87757  1.0000
  C   C1801     1.0  0.31345  0.66086  0.81457  1.0000
  S   S230      1.0  0.05295  0.48527  0.82738  1.0000
  H   H1429     1.0  0.19150  0.49198  0.97243  1.0000
  H   H1430     1.0  0.01613  0.53410  0.81179  1.0000
  H   H1431     1.0  0.11170  0.58811  0.73873  1.0000
  C   C1802     1.0  0.16069  0.64342  0.73113  1.0000
  H   H1432     1.0  0.00995  0.50328  0.82419  1.0000
  C   C1803     1.0  0.14858  0.48564  0.89602  1.0000
  H   H1433     1.0  0.28634  0.53595  0.93463  1.0000
  C   C1804     1.0  0.12627  0.54485  0.73082  1.0000
  C   C1805     1.0  0.01329  0.48567  0.87596  1.0000
  C   C1806     1.0  0.31391  0.49433  0.93042  1.0000
  H   H1434     1.0  0.30960  0.51218  0.94925  1.0000
  C   C1807     1.0  0.98928  0.51067  0.84752  1.0000
  Fe  Fe115     1.0  0.46984  0.18191  0.10850  1.0000
  S   S231      1.0  0.45193  0.20836  0.09820  1.0000
  S   S232      1.0  0.50033  0.17685  0.10282  1.0000
  Fe  Fe116     1.0  0.43918  0.16154  0.12243  1.0000
  S   S233      1.0  0.41788  0.18607  0.11358  1.0000
  S   S234      1.0  0.43797  0.13198  0.13473  1.0000
  Fe  Fe117     1.0  0.43889  0.19140  0.08769  1.0000
  S   S235      1.0  0.43366  0.20344  0.05917  1.0000
  Fe  Fe118     1.0  0.43229  0.20154  0.12459  1.0000
  S   S236      1.0  0.41598  0.22275  0.14122  1.0000
  S   S237      1.0  0.45873  0.16560  0.09547  1.0000
  S   S238      1.0  0.45156  0.17640  0.13596  1.0000
  H   H1435     1.0  0.52685  0.19224  0.07189  1.0000
  S   S239      1.0  0.46741  0.24078  0.22604  1.0000
  C   C1808     1.0  0.43556  0.01383  0.22440  1.0000
  H   H1436     1.0  0.48192  0.12979  0.10092  1.0000
  S   S240      1.0  0.43405  0.15208  0.00669  1.0000
  Fe  Fe119     1.0  0.58272  0.08951  0.21462  1.0000
  H   H1437     1.0  0.35211  0.46087  0.15321  1.0000
  H   H1438     1.0  0.43916  0.14973  0.20514  1.0000
  H   H1439     1.0  0.43701  0.11332  0.10339  1.0000
  C   C1809     1.0  0.64360  0.11324  0.16841  1.0000
  C   C1810     1.0  0.64744  0.22721  0.06559  1.0000
  C   C1811     1.0  0.51482  0.18429  0.21116  1.0000
  S   S241      1.0  0.59918  0.15238  0.02611  1.0000
  Fe  Fe120     1.0  0.56790  0.19010  0.14429  1.0000
  S   S242      1.0  0.56277  0.21665  0.12456  1.0000
  S   S243      1.0  0.54229  0.18088  0.16116  1.0000
  S   S244      1.0  0.58661  0.19874  0.15684  1.0000
  S   S245      1.0  0.59029  0.17639  0.12400  1.0000
  S   S246      1.0  0.48054  0.27490  0.18223  1.0000
  H   H1440     1.0  0.41888  0.10245  0.08757  1.0000
  C   C1812     1.0  0.39435  0.21896  0.98884  1.0000
  H   H1441     1.0  0.51693  0.11299  0.21135  1.0000
  H   H1442     1.0  0.63680  0.14017  0.05413  1.0000
  S   S247      1.0  0.60073  0.07143  0.19559  1.0000
  H   H1443     1.0  0.38191  0.16819  0.22056  1.0000
  C   C1813     1.0  0.35582  0.47162  0.14169  1.0000
  C   C1814     1.0  0.37208  0.26581  0.15101  1.0000
  H   H1444     1.0  0.36786  0.32390  0.14511  1.0000
  H   H1445     1.0  0.49500  0.17943  0.99170  1.0000
  H   H1446     1.0  0.39487  0.15834  0.99977  1.0000
  Fe  Fe121     1.0  0.33905  0.40375  0.18802  1.0000
  H   H1447     1.0  0.54594  0.20813  0.04455  1.0000
  S   S248      1.0  0.34669  0.46378  0.19201  1.0000
  H   H1448     1.0  0.40992  0.07228  0.10038  1.0000
  Fe  Fe122     1.0  0.45531  0.28902  0.17143  1.0000
  S   S249      1.0  0.45440  0.28481  0.14397  1.0000
  S   S250      1.0  0.45597  0.31645  0.17587  1.0000
  C   C1815     1.0  0.37033  0.36299  0.20380  1.0000
  C   C1816     1.0  0.38214  0.34960  0.21384  1.0000
  H   H1449     1.0  0.35708  0.36927  0.21075  1.0000
  C   C1817     1.0  0.53235  0.01497  0.12541  1.0000
  C   C1818     1.0  0.51952  0.31171  0.19567  1.0000
  C   C1819     1.0  0.51105  0.31448  0.21334  1.0000
  S   S251      1.0  0.32915  0.43234  0.17329  1.0000
  C   C1820     1.0  0.46271  0.34951  0.19671  1.0000
  C   C1821     1.0  0.54891  0.31208  0.20162  1.0000
  C   C1822     1.0  0.53843  0.31065  0.18984  1.0000
  C   C1823     1.0  0.42914  0.98697  0.21799  1.0000
  H   H1450     1.0  0.61421  0.17896  0.18441  1.0000
  H   H1451     1.0  0.56348  0.31122  0.19697  1.0000
  H   H1452     1.0  0.44646  0.09415  0.13149  1.0000
  H   H1453     1.0  0.58991  0.19230  0.01802  1.0000
  H   H1454     1.0  0.61025  0.15106  0.15952  1.0000
  H   H1455     1.0  0.61419  0.11823  0.17574  1.0000
  C   C1824     1.0  0.59448  0.16891  0.03972  1.0000
  C   C1825     1.0  0.59197  0.17586  0.06949  1.0000
  C   C1826     1.0  0.59512  0.16310  0.05833  1.0000
  H   H1456     1.0  0.59271  0.17121  0.08379  1.0000
  H   H1457     1.0  0.59814  0.14864  0.06411  1.0000
  C   C1827     1.0  0.59040  0.18765  0.03233  1.0000
  H   H1458     1.0  0.41477  0.43028  0.20817  1.0000
  C   C1828     1.0  0.53815  0.01519  0.19472  1.0000
  C   C1829     1.0  0.55674  0.10485  0.01195  1.0000
  H   H1459     1.0  0.35441  0.42522  0.09852  1.0000
  H   H1460     1.0  0.52820  0.11586  0.02028  1.0000
  C   C1830     1.0  0.42384  0.02787  0.16336  1.0000
  C   C1831     1.0  0.40355  0.13506  0.98729  1.0000
  C   C1832     1.0  0.43341  0.09997  0.10871  1.0000
  C   C1833     1.0  0.57570  0.16673  0.20223  1.0000
  C   C1834     1.0  0.42764  0.23891  0.14278  1.0000
  C   C1835     1.0  0.42094  0.24858  0.15703  1.0000
  C   C1836     1.0  0.42931  0.26246  0.15779  1.0000
  C   C1837     1.0  0.44423  0.26686  0.14411  1.0000
  C   C1838     1.0  0.45107  0.25701  0.13003  1.0000
  C   C1839     1.0  0.44298  0.24286  0.12954  1.0000
  H   H1461     1.0  0.40924  0.24533  0.16742  1.0000
  H   H1462     1.0  0.42401  0.26998  0.16872  1.0000
  H   H1463     1.0  0.46281  0.26012  0.11962  1.0000
  H   H1464     1.0  0.44834  0.23535  0.11867  1.0000
  C   C1840     1.0  0.42824  0.11772  0.19714  1.0000
  C   C1841     1.0  0.44018  0.10536  0.18683  1.0000
  C   C1842     1.0  0.44304  0.10976  0.16765  1.0000
  C   C1843     1.0  0.43448  0.12679  0.15870  1.0000
  C   C1844     1.0  0.42304  0.13938  0.16897  1.0000
  C   C1845     1.0  0.41970  0.13469  0.18814  1.0000
  H   H1465     1.0  0.44698  0.09233  0.19357  1.0000
  H   H1466     1.0  0.45205  0.10007  0.15974  1.0000
  H   H1467     1.0  0.41642  0.15256  0.16214  1.0000
  H   H1468     1.0  0.41051  0.14423  0.19605  1.0000
  C   C1846     1.0  0.43344  0.16642  0.02143  1.0000
  C   C1847     1.0  0.43426  0.18486  0.01455  1.0000
  C   C1848     1.0  0.43447  0.19599  0.02627  1.0000
  C   C1849     1.0  0.43391  0.18876  0.04496  1.0000
  C   C1850     1.0  0.43311  0.17030  0.05191  1.0000
  C   C1851     1.0  0.43274  0.15918  0.04017  1.0000
  H   H1469     1.0  0.43460  0.19063  0.00019  1.0000
  H   H1470     1.0  0.43512  0.21024  0.02082  1.0000
  H   H1471     1.0  0.43261  0.16465  0.06633  1.0000
  H   H1472     1.0  0.43212  0.14492  0.04557  1.0000
  C   C1852     1.0  0.51152  0.17640  0.12001  1.0000
  C   C1853     1.0  0.53034  0.17558  0.11525  1.0000
  C   C1854     1.0  0.53973  0.17654  0.12808  1.0000
  C   C1855     1.0  0.53042  0.17818  0.14582  1.0000
  C   C1856     1.0  0.51160  0.17855  0.15082  1.0000
  C   C1857     1.0  0.50211  0.17767  0.13787  1.0000
  H   H1473     1.0  0.53765  0.17472  0.10143  1.0000
  H   H1474     1.0  0.55417  0.17626  0.12408  1.0000
  H   H1475     1.0  0.50430  0.18006  0.16446  1.0000
  H   H1476     1.0  0.48757  0.17825  0.14161  1.0000
  C   C1858     1.0  0.54206  0.19575  0.04411  1.0000
  C   C1859     1.0  0.39273  0.35958  0.17594  1.0000
  C   C1860     1.0  0.53143  0.18672  0.05953  1.0000
  C   C1861     1.0  0.33541  0.34919  0.19232  1.0000
  C   C1862     1.0  0.45467  0.00492  0.14722  1.0000
  S   S252      1.0  0.36113  0.38502  0.17195  1.0000
  H   H1477     1.0  0.39117  0.28004  0.15413  1.0000
  C   C1863     1.0  0.57458  0.10516  0.01250  1.0000
  C   C1864     1.0  0.57757  0.11659  0.02237  1.0000
  C   C1865     1.0  0.56278  0.12815  0.03119  1.0000
  C   C1866     1.0  0.50772  0.14923  0.02935  1.0000
  C   C1867     1.0  0.50827  0.16345  0.01377  1.0000
  C   C1868     1.0  0.62423  0.13299  0.10040  1.0000
  H   H1478     1.0  0.33316  0.36370  0.18628  1.0000
  H   H1479     1.0  0.48843  0.06249  0.18246  1.0000
  C   C1869     1.0  0.49349  0.13955  0.03417  1.0000
  C   C1870     1.0  0.54783  0.18870  0.02817  1.0000
  C   C1871     1.0  0.54313  0.17253  0.02772  1.0000
  H   H1480     1.0  0.64564  0.24052  0.06879  1.0000
  H   H1481     1.0  0.59141  0.11711  0.02254  1.0000
  H   H1482     1.0  0.56537  0.13733  0.03830  1.0000
  H   H1483     1.0  0.51943  0.17061  0.00904  1.0000
  H   H1484     1.0  0.60180  0.00797  0.16979  1.0000
  C   C1872     1.0  0.59976  0.00790  0.21444  1.0000
  C   C1873     1.0  0.48509  0.06212  0.16978  1.0000
  H   H1485     1.0  0.49297  0.12811  0.04567  1.0000
  H   H1486     1.0  0.55604  0.19568  0.01613  1.0000
  H   H1487     1.0  0.54782  0.16730  0.01527  1.0000
  C   C1874     1.0  0.59618  0.27426  0.17374  1.0000
  C   C1875     1.0  0.34970  0.33703  0.18370  1.0000
  H   H1488     1.0  0.40976  0.30647  0.17717  1.0000
  H   H1489     1.0  0.65508  0.23965  0.20711  1.0000
  H   H1490     1.0  0.38706  0.19411  0.03231  1.0000
  Fe  Fe123     1.0  0.60435  0.05050  0.22137  1.0000
  P   P62       1.0  0.44111  0.18772  0.20438  1.0000
  C   C1876     1.0  0.42057  0.18484  0.19935  1.0000
  C   C1877     1.0  0.45113  0.20566  0.18798  1.0000
  C   C1878     1.0  0.46043  0.20275  0.17044  1.0000
  C   C1879     1.0  0.47013  0.21555  0.15842  1.0000
  C   C1880     1.0  0.47072  0.23128  0.16384  1.0000
  C   C1881     1.0  0.46138  0.23435  0.18116  1.0000
  C   C1882     1.0  0.45163  0.22165  0.19320  1.0000
  C   C1883     1.0  0.41734  0.19036  0.18154  1.0000
  C   C1884     1.0  0.40132  0.18817  0.17785  1.0000
  C   C1885     1.0  0.38842  0.18046  0.19194  1.0000
  C   C1886     1.0  0.39165  0.17467  0.20972  1.0000
  C   C1887     1.0  0.40775  0.17664  0.21339  1.0000
  C   C1888     1.0  0.45821  0.16687  0.20295  1.0000
  C   C1889     1.0  0.45333  0.15063  0.20270  1.0000
  C   C1890     1.0  0.46680  0.13527  0.19911  1.0000
  C   C1891     1.0  0.48522  0.13611  0.19532  1.0000
  C   C1892     1.0  0.49025  0.15211  0.19568  1.0000
  C   C1893     1.0  0.47683  0.16737  0.19974  1.0000
  C   C1894     1.0  0.60184  0.01427  0.19550  1.0000
  H   H1491     1.0  0.42061  0.33757  0.12248  1.0000
  H   H1492     1.0  0.48953  0.99928  0.16385  1.0000
  C   C1895     1.0  0.52769  0.02719  0.10967  1.0000
  C   C1896     1.0  0.50109  0.13559  0.07545  1.0000
  H   H1493     1.0  0.46048  0.19040  0.16619  1.0000
  H   H1494     1.0  0.47712  0.21331  0.14487  1.0000
  H   H1495     1.0  0.47804  0.24136  0.15451  1.0000
  H   H1496     1.0  0.46166  0.24659  0.18531  1.0000
  H   H1497     1.0  0.44495  0.22431  0.20667  1.0000
  H   H1498     1.0  0.42715  0.19628  0.17045  1.0000
  H   H1499     1.0  0.39900  0.19243  0.16398  1.0000
  H   H1500     1.0  0.37613  0.17863  0.18897  1.0000
  C   C1897     1.0  0.32746  0.32415  0.21686  1.0000
  C   C1898     1.0  0.38570  0.21027  0.98070  1.0000
  H   H1501     1.0  0.40014  0.45395  0.18529  1.0000
  C   C1899     1.0  0.59514  0.99078  0.22223  1.0000
  H   H1502     1.0  0.49562  0.12445  0.19190  1.0000
  H   H1503     1.0  0.50456  0.15281  0.19230  1.0000
  H   H1504     1.0  0.48101  0.17979  0.19959  1.0000
  H   H1505     1.0  0.47293  0.06141  0.12431  1.0000
  C   C1900     1.0  0.52287  0.00078  0.13409  1.0000
  C   C1901     1.0  0.56290  0.22610  0.21941  1.0000
  C   C1902     1.0  0.55799  0.22734  0.20277  1.0000
  C   C1903     1.0  0.55287  0.24446  0.19177  1.0000
  C   C1904     1.0  0.55192  0.26045  0.19754  1.0000
  C   C1905     1.0  0.55634  0.25942  0.21424  1.0000
  H   H1506     1.0  0.62149  0.11975  0.08014  1.0000
  C   C1906     1.0  0.50895  0.25935  0.21891  1.0000
  H   H1507     1.0  0.55836  0.21535  0.19787  1.0000
  H   H1508     1.0  0.55014  0.24536  0.17846  1.0000
  H   H1509     1.0  0.54802  0.27365  0.18886  1.0000
  C   C1907     1.0  0.39987  0.26673  0.22842  1.0000
  H   H1510     1.0  0.39371  0.08547  0.21500  1.0000
  C   C1908     1.0  0.42357  0.00957  0.16445  1.0000
  C   C1909     1.0  0.49162  0.32510  0.08829  1.0000
  C   C1910     1.0  0.47661  0.31713  0.09087  1.0000
  C   C1911     1.0  0.47693  0.29913  0.10058  1.0000
  C   C1912     1.0  0.49220  0.28908  0.10785  1.0000
  C   C1913     1.0  0.50728  0.29703  0.10545  1.0000
  C   C1914     1.0  0.50694  0.31508  0.09546  1.0000
  P   P63       1.0  0.52782  0.28382  0.11319  1.0000
  C   C1915     1.0  0.53743  0.29833  0.12164  1.0000
  C   C1916     1.0  0.52297  0.26445  0.13126  1.0000
  C   C1917     1.0  0.52205  0.26458  0.14963  1.0000
  C   C1918     1.0  0.51905  0.24912  0.16327  1.0000
  C   C1919     1.0  0.51706  0.23344  0.15874  1.0000
  C   C1920     1.0  0.51780  0.23326  0.14055  1.0000
  C   C1921     1.0  0.52070  0.24871  0.12687  1.0000
  C   C1922     1.0  0.55643  0.29623  0.11933  1.0000
  C   C1923     1.0  0.56360  0.30712  0.12650  1.0000
  C   C1924     1.0  0.55192  0.32031  0.13589  1.0000
  C   C1925     1.0  0.53303  0.32257  0.13818  1.0000
  C   C1926     1.0  0.52578  0.31152  0.13127  1.0000
  C   C1927     1.0  0.54368  0.27486  0.09433  1.0000
  C   C1928     1.0  0.54041  0.28051  0.07643  1.0000
  C   C1929     1.0  0.55264  0.27295  0.06216  1.0000
  C   C1930     1.0  0.57161  0.25432  0.08336  1.0000
  C   C1931     1.0  0.55922  0.26151  0.09766  1.0000
  H   H1511     1.0  0.49135  0.33910  0.08086  1.0000
  H   H1512     1.0  0.46461  0.32493  0.08557  1.0000
  H   H1513     1.0  0.46511  0.29309  0.10301  1.0000
  H   H1514     1.0  0.49193  0.27530  0.11564  1.0000
  H   H1515     1.0  0.51857  0.32136  0.09321  1.0000
  H   H1516     1.0  0.52376  0.27646  0.15353  1.0000
  H   H1517     1.0  0.51825  0.24938  0.17738  1.0000
  H   H1518     1.0  0.51501  0.22137  0.16927  1.0000
  H   H1519     1.0  0.51654  0.22095  0.13710  1.0000
  H   H1520     1.0  0.52147  0.24835  0.11280  1.0000
  H   H1521     1.0  0.56585  0.28593  0.11250  1.0000
  H   H1522     1.0  0.57825  0.30495  0.12520  1.0000
  H   H1523     1.0  0.55748  0.32845  0.14181  1.0000
  H   H1524     1.0  0.52396  0.33240  0.14598  1.0000
  H   H1525     1.0  0.51108  0.31294  0.13395  1.0000
  H   H1526     1.0  0.52845  0.29059  0.07342  1.0000
  H   H1527     1.0  0.55001  0.27719  0.04843  1.0000
  H   H1528     1.0  0.56179  0.25665  0.11138  1.0000
  S   S253      1.0  0.62679  0.26479  0.18892  1.0000
  C   C1932     1.0  0.33665  0.16680  0.99578  1.0000
  C   C1933     1.0  0.62499  0.17008  0.19099  1.0000
  C   C1934     1.0  0.49450  0.16843  0.00369  1.0000
  H   H1529     1.0  0.39147  0.39019  0.19684  1.0000
  H   H1530     1.0  0.57300  0.28162  0.16073  1.0000
  C   C1935     1.0  0.54486  0.12832  0.03024  1.0000
  H   H1531     1.0  0.53365  0.16243  0.19970  1.0000
  C   C1936     1.0  0.53235  0.16336  0.04311  1.0000
  S   S254      1.0  0.62839  0.05956  0.22477  1.0000
  H   H1532     1.0  0.50983  0.20282  0.00224  1.0000
  P   P64       1.0  0.52576  0.14274  0.04222  1.0000
  H   H1533     1.0  0.56700  0.14089  0.21081  1.0000
  H   H1534     1.0  0.47440  0.34007  0.19079  1.0000
  Fe  Fe124     1.0  0.59634  0.16156  0.99643  1.0000
  H   H1535     1.0  0.40167  0.21977  0.01368  1.0000
  C   C1937     1.0  0.52475  0.10462  0.09040  1.0000
  H   H1536     1.0  0.46877  0.13708  0.02767  1.0000
  C   C1938     1.0  0.46064  0.35136  0.21467  1.0000
  H   H1537     1.0  0.33770  0.42602  0.13041  1.0000
  C   C1939     1.0  0.50586  0.21140  0.01230  1.0000
  H   H1538     1.0  0.58087  0.16534  0.18813  1.0000
  H   H1539     1.0  0.35029  0.25338  0.15063  1.0000
  C   C1940     1.0  0.52713  0.02457  0.18209  1.0000
  C   C1941     1.0  0.52434  0.01559  0.16976  1.0000
  C   C1942     1.0  0.52150  0.31622  0.22505  1.0000
  H   H1540     1.0  0.34696  0.45144  0.07335  1.0000
  C   C1943     1.0  0.36264  0.46782  0.12420  1.0000
  C   C1944     1.0  0.44967  0.35974  0.18643  1.0000
  H   H1541     1.0  0.64453  0.16930  0.09163  1.0000
  H   H1542     1.0  0.50388  0.06439  0.12456  1.0000
  C   C1945     1.0  0.51198  0.24031  0.22160  1.0000
  C   C1946     1.0  0.38151  0.32342  0.14668  1.0000
  H   H1543     1.0  0.54505  0.30859  0.17617  1.0000
  H   H1544     1.0  0.61880  0.22637  0.07416  1.0000
  C   C1947     1.0  0.63615  0.17904  0.99736  1.0000
  C   C1948     1.0  0.48025  0.15898  0.00881  1.0000
  Fe  Fe125     1.0  0.58654  0.20396  0.10511  1.0000
  C   C1949     1.0  0.41122  0.33116  0.13379  1.0000
  S   S255      1.0  0.63682  0.17305  0.13862  1.0000
  C   C1950     1.0  0.53043  0.11456  0.07282  1.0000
  H   H1545     1.0  0.54409  0.11016  0.06536  1.0000
  C   C1951     1.0  0.38818  0.43543  0.17773  1.0000
  H   H1546     1.0  0.52057  0.03876  0.18209  1.0000
  H   H1547     1.0  0.51523  0.02290  0.16054  1.0000
  C   C1952     1.0  0.35288  0.31822  0.19152  1.0000
  C   C1953     1.0  0.46757  0.06035  0.16975  1.0000
  H   H1548     1.0  0.38217  0.25813  0.14160  1.0000
  H   H1549     1.0  0.47077  0.34334  0.22257  1.0000
  H   H1550     1.0  0.49188  0.14776  0.06997  1.0000
  C   C1954     1.0  0.37716  0.27820  0.15821  1.0000
  C   C1955     1.0  0.54853  0.07329  0.21137  1.0000
  H   H1551     1.0  0.34411  0.29753  0.21473  1.0000
  C   C1956     1.0  0.57007  0.18445  0.22576  1.0000
  C   C1957     1.0  0.37741  0.19562  0.99113  1.0000
  C   C1958     1.0  0.43898  0.99808  0.15645  1.0000
  C   C1959     1.0  0.49489  0.20610  0.02937  1.0000
  H   H1552     1.0  0.61274  0.14638  0.19832  1.0000
  C   C1960     1.0  0.33453  0.19500  0.00529  1.0000
  C   C1961     1.0  0.50666  0.23923  0.02083  1.0000
  C   C1962     1.0  0.49488  0.23445  0.03767  1.0000
  C   C1963     1.0  0.48971  0.21740  0.04215  1.0000
  P   P65       1.0  0.48818  0.24889  0.05435  1.0000
  C   C1964     1.0  0.50283  0.23838  0.07052  1.0000
  C   C1965     1.0  0.49141  0.27195  0.04427  1.0000
  C   C1966     1.0  0.49843  0.28140  0.05335  1.0000
  C   C1967     1.0  0.50014  0.29956  0.04581  1.0000
  C   C1968     1.0  0.49474  0.30844  0.02926  1.0000
  C   C1969     1.0  0.48739  0.29924  0.02037  1.0000
  C   C1970     1.0  0.48554  0.28113  0.02794  1.0000
  C   C1971     1.0  0.49589  0.23003  0.08848  1.0000
  C   C1972     1.0  0.50768  0.22137  0.10055  1.0000
  C   C1973     1.0  0.52646  0.22068  0.09469  1.0000
  C   C1974     1.0  0.53344  0.22902  0.07686  1.0000
  C   C1975     1.0  0.52169  0.23778  0.06476  1.0000
  C   C1976     1.0  0.46419  0.25174  0.06496  1.0000
  C   C1977     1.0  0.45193  0.24553  0.05849  1.0000
  C   C1978     1.0  0.43340  0.24809  0.06686  1.0000
  C   C1979     1.0  0.42687  0.25729  0.08138  1.0000
  C   C1980     1.0  0.43880  0.26422  0.08736  1.0000
  C   C1981     1.0  0.45740  0.26140  0.07925  1.0000
  C   C1982     1.0  0.42434  0.06675  0.17250  1.0000
  S   S256      1.0  0.50459  0.05280  0.21416  1.0000
  H   H1553     1.0  0.51045  0.26767  0.20518  1.0000
  H   H1554     1.0  0.51185  0.25169  0.01743  1.0000
  H   H1555     1.0  0.48148  0.21290  0.05545  1.0000
  H   H1556     1.0  0.50234  0.27490  0.06636  1.0000
  H   H1557     1.0  0.50550  0.30681  0.05287  1.0000
  H   H1558     1.0  0.49610  0.32250  0.02341  1.0000
  P   P66       1.0  0.37192  0.30226  0.18130  1.0000
  H   H1559     1.0  0.47947  0.27428  0.02110  1.0000
  H   H1560     1.0  0.48151  0.22974  0.09313  1.0000
  H   H1561     1.0  0.50227  0.21470  0.11430  1.0000
  H   H1562     1.0  0.53565  0.21357  0.10392  1.0000
  H   H1563     1.0  0.54801  0.22840  0.07235  1.0000
  H   H1564     1.0  0.52736  0.24385  0.05085  1.0000
  H   H1565     1.0  0.45644  0.23858  0.04712  1.0000
  H   H1566     1.0  0.42418  0.24262  0.06224  1.0000
  H   H1567     1.0  0.41258  0.25890  0.08809  1.0000
  H   H1568     1.0  0.43367  0.27143  0.09858  1.0000
  H   H1569     1.0  0.46652  0.26663  0.08422  1.0000
  H   H1570     1.0  0.45772  0.05934  0.18252  1.0000
  C   C1983     1.0  0.43464  0.37198  0.19401  1.0000
  C   C1984     1.0  0.42311  0.09389  0.09989  1.0000
  H   H1571     1.0  0.60925  0.23041  0.15333  1.0000
  H   H1572     1.0  0.61747  0.12398  0.11184  1.0000
  H   H1573     1.0  0.41526  0.09411  0.15729  1.0000
  Fe  Fe126     1.0  0.33125  0.44101  0.19815  1.0000
  C   C1985     1.0  0.42279  0.05537  0.18998  1.0000
  C   C1986     1.0  0.54191  0.11625  0.02094  1.0000
  C   C1987     1.0  0.53301  0.99722  0.16970  1.0000
  C   C1988     1.0  0.64648  0.16222  0.00446  1.0000
  S   S257      1.0  0.60471  0.10215  0.21731  1.0000
  H   H1574     1.0  0.46290  0.12277  0.19902  1.0000
  C   C1989     1.0  0.63891  0.13991  0.20577  1.0000
  Fe  Fe127     1.0  0.46170  0.26933  0.20932  1.0000
  C   C1990     1.0  0.57715  0.18216  0.20768  1.0000
  C   C1991     1.0  0.44010  0.40559  0.22874  1.0000
  C   C1992     1.0  0.51121  0.08676  0.21217  1.0000
  C   C1993     1.0  0.47981  0.14447  0.02394  1.0000
  C   C1994     1.0  0.39346  0.33197  0.13212  1.0000
  H   H1575     1.0  0.37242  0.47881  0.09581  1.0000
  H   H1576     1.0  0.41073  0.05321  0.21872  1.0000
  C   C1995     1.0  0.61213  0.26139  0.17659  1.0000
  C   C1996     1.0  0.34429  0.43728  0.10151  1.0000
  H   H1577     1.0  0.57772  0.25381  0.05471  1.0000
  C   C1997     1.0  0.39947  0.34150  0.20510  1.0000
  C   C1998     1.0  0.38715  0.31425  0.16315  1.0000
  C   C1999     1.0  0.49376  0.06322  0.13718  1.0000
  C   C2000     1.0  0.49543  0.12552  0.09297  1.0000
  C   C2001     1.0  0.43259  0.37416  0.21198  1.0000
  S   S258      1.0  0.60227  0.31624  0.19873  1.0000
  C   C2002     1.0  0.37561  0.36804  0.18480  1.0000
  H   H1578     1.0  0.39587  0.10563  0.18418  1.0000
  C   C2003     1.0  0.38631  0.19883  0.01798  1.0000
  C   C2004     1.0  0.41420  0.08482  0.17047  1.0000
  C   C2005     1.0  0.63234  0.21922  0.06872  1.0000
  H   H1579     1.0  0.46653  0.99592  0.14101  1.0000
  C   C2006     1.0  0.34643  0.28488  0.17608  1.0000
  S   S259      1.0  0.46304  0.29493  0.21715  1.0000
  C   C2007     1.0  0.61679  0.24558  0.16918  1.0000
  C   C2008     1.0  0.40307  0.09146  0.18574  1.0000
  Fe  Fe128     1.0  0.61600  0.28661  0.20589  1.0000
  C   C2009     1.0  0.32669  0.46740  0.09120  1.0000
  H   H1580     1.0  0.53511  0.03806  0.10297  1.0000
  H   H1581     1.0  0.36430  0.45405  0.12216  1.0000
  H   H1582     1.0  0.44169  0.02574  0.21984  1.0000
  S   S260      1.0  0.60654  0.21437  0.11438  1.0000
  C   C2010     1.0  0.41158  0.06200  0.20521  1.0000
  H   H1583     1.0  0.38112  0.31099  0.21207  1.0000
  C   C2011     1.0  0.59975  0.00322  0.18447  1.0000
  S   S261      1.0  0.63751  0.34419  0.20413  1.0000
  H   H1584     1.0  0.63058  0.22610  0.20450  1.0000
  H   H1585     1.0  0.41154  0.00409  0.17186  1.0000
  C   C2012     1.0  0.53723  0.06144  0.21217  1.0000
  H   H1586     1.0  0.59796  0.22786  0.20770  1.0000
  C   C2013     1.0  0.38984  0.26936  0.20043  1.0000
  H   H1587     1.0  0.53400  0.09279  0.09626  1.0000
  C   C2014     1.0  0.62660  0.13056  0.08257  1.0000
  H   H1588     1.0  0.41895  0.05307  0.12877  1.0000
  C   C2015     1.0  0.47619  0.06155  0.13710  1.0000
  C   C2016     1.0  0.42324  0.06603  0.12323  1.0000
  C   C2017     1.0  0.60555  0.24262  0.15901  1.0000
  C   C2018     1.0  0.43977  0.03470  0.15470  1.0000
  C   C2019     1.0  0.45511  0.02315  0.14636  1.0000
  C   C2020     1.0  0.36443  0.28772  0.17092  1.0000
  Fe  Fe129     1.0  0.47989  0.30153  0.18902  1.0000
  C   C2021     1.0  0.50721  0.11003  0.10042  1.0000
  H   H1589     1.0  0.41382  0.12851  0.99549  1.0000
  Fe  Fe130     1.0  0.60857  0.18770  0.13475  1.0000
  C   C2022     1.0  0.64180  0.15643  0.07076  1.0000
  C   C2023     1.0  0.62428  0.15172  0.19862  1.0000
  H   H1590     1.0  0.51167  0.06509  0.15366  1.0000
  C   C2024     1.0  0.57702  0.10216  0.08476  1.0000
  C   C2025     1.0  0.57512  0.12056  0.07590  1.0000
  C   C2026     1.0  0.56490  0.13421  0.08544  1.0000
  C   C2027     1.0  0.55691  0.12949  0.10393  1.0000
  C   C2028     1.0  0.55834  0.11102  0.11292  1.0000
  C   C2029     1.0  0.56874  0.09738  0.10321  1.0000
  P   P67       1.0  0.54905  0.10548  0.13727  1.0000
  C   C2030     1.0  0.55879  0.11819  0.14750  1.0000
  C   C2031     1.0  0.52434  0.11184  0.14290  1.0000
  C   C2032     1.0  0.51471  0.12703  0.13226  1.0000
  C   C2033     1.0  0.49576  0.13240  0.13742  1.0000
  C   C2034     1.0  0.48621  0.12270  0.15317  1.0000
  C   C2035     1.0  0.49557  0.10746  0.16378  1.0000
  C   C2036     1.0  0.51458  0.10218  0.15882  1.0000
  C   C2037     1.0  0.54844  0.12606  0.16235  1.0000
  C   C2038     1.0  0.55642  0.13531  0.17052  1.0000
  C   C2039     1.0  0.57465  0.13680  0.16400  1.0000
  C   C2040     1.0  0.58505  0.12898  0.14922  1.0000
  C   C2041     1.0  0.57719  0.11962  0.14103  1.0000
  C   C2042     1.0  0.55562  0.08134  0.14690  1.0000
  C   C2043     1.0  0.55017  0.06834  0.14077  1.0000
  C   C2044     1.0  0.55499  0.04965  0.14827  1.0000
  C   C2045     1.0  0.56495  0.04385  0.16220  1.0000
  C   C2046     1.0  0.56994  0.05672  0.16877  1.0000
  C   C2047     1.0  0.56530  0.07540  0.16121  1.0000
  H   H1591     1.0  0.58523  0.09163  0.07739  1.0000
  H   H1592     1.0  0.58193  0.12429  0.06175  1.0000
  H   H1593     1.0  0.56354  0.14852  0.07863  1.0000
  H   H1594     1.0  0.55010  0.14034  0.11135  1.0000
  H   H1595     1.0  0.57104  0.08310  0.10987  1.0000
  H   H1596     1.0  0.52153  0.13501  0.12005  1.0000
  H   H1597     1.0  0.48847  0.14428  0.12926  1.0000
  H   H1598     1.0  0.47160  0.12726  0.15724  1.0000
  H   H1599     1.0  0.48811  0.10005  0.17611  1.0000
  H   H1600     1.0  0.52161  0.09081  0.16772  1.0000
  H   H1601     1.0  0.53434  0.12496  0.16785  1.0000
  H   H1602     1.0  0.54847  0.14117  0.18209  1.0000
  H   H1603     1.0  0.58066  0.14396  0.17049  1.0000
  H   H1604     1.0  0.59923  0.13007  0.14423  1.0000
  H   H1605     1.0  0.58551  0.11337  0.12977  1.0000
  H   H1606     1.0  0.54226  0.07269  0.13014  1.0000
  H   H1607     1.0  0.55098  0.03962  0.14339  1.0000
  H   H1608     1.0  0.56869  0.02937  0.16805  1.0000
  H   H1609     1.0  0.57734  0.05224  0.17984  1.0000
  H   H1610     1.0  0.56916  0.08504  0.16681  1.0000
  H   H1611     1.0  0.40341  0.24418  0.21536  1.0000
  S   S262      1.0  0.58465  0.21122  0.07520  1.0000
  C   C2048     1.0  0.39263  0.15212  0.98971  1.0000
  H   H1612     1.0  0.53999  0.02203  0.20450  1.0000
  H   H1613     1.0  0.62285  0.19581  0.06759  1.0000
  C   C2049     1.0  0.49817  0.06360  0.15352  1.0000
  C   C2050     1.0  0.43367  0.07204  0.13211  1.0000
  C   C2051     1.0  0.38581  0.41746  0.18097  1.0000
  C   C2052     1.0  0.39869  0.43990  0.18756  1.0000
  C   C2053     1.0  0.52659  0.17059  0.05905  1.0000
  C   C2054     1.0  0.62600  0.12411  0.16864  1.0000
  C   C2055     1.0  0.62427  0.21534  0.21388  1.0000
  C   C2056     1.0  0.62374  0.14257  0.15941  1.0000
  H   H1614     1.0  0.44848  0.40236  0.21593  1.0000
  H   H1615     1.0  0.43055  0.04146  0.19190  1.0000
  C   C2057     1.0  0.63464  0.20192  0.06492  1.0000
  H   H1616     1.0  0.38150  0.44599  0.16791  1.0000
  H   H1617     1.0  0.54301  0.04706  0.21280  1.0000
  H   H1618     1.0  0.46974  0.16271  0.00080  1.0000
  C   C2058     1.0  0.43515  0.19348  0.22669  1.0000
  C   C2059     1.0  0.34014  0.45208  0.08736  1.0000
  C   C2060     1.0  0.43872  0.08907  0.12470  1.0000
  C   C2061     1.0  0.50462  0.01067  0.11064  1.0000
  H   H1619     1.0  0.54346  0.01642  0.13072  1.0000
  P   P68       1.0  0.44005  0.05842  0.15316  1.0000
  H   H1620     1.0  0.49645  0.31555  0.21785  1.0000
  H   H1621     1.0  0.50278  0.10248  0.11410  1.0000
  C   C2062     1.0  0.56827  0.25988  0.06563  1.0000
  C   C2063     1.0  0.41805  0.07691  0.10713  1.0000
  H   H1622     1.0  0.49413  0.00876  0.10471  1.0000
  H   H1623     1.0  0.41163  0.03654  0.16950  1.0000
  C   C2064     1.0  0.34435  0.18170  0.99495  1.0000
  C   C2065     1.0  0.41697  0.32191  0.15005  1.0000
  S   S263      1.0  0.50694  0.31040  0.18015  1.0000
  S   S264      1.0  0.63607  0.29272  0.21870  1.0000
  H   H1624     1.0  0.49031  0.19326  0.03274  1.0000
  H   H1625     1.0  0.43084  0.32104  0.15120  1.0000
  S   S265      1.0  0.64707  0.09005  0.17936  1.0000
  H   H1626     1.0  0.37745  0.41404  0.17352  1.0000
  C   C2066     1.0  0.46289  0.06021  0.15339  1.0000
  S   S266      1.0  0.55530  0.10656  0.21068  1.0000
  H   H1627     1.0  0.32743  0.27047  0.17265  1.0000
  Fe  Fe131     1.0  0.62307  0.08212  0.20061  1.0000
  C   C2067     1.0  0.51852  0.06808  0.21277  1.0000
  Fe  Fe132     1.0  0.62084  0.32181  0.21425  1.0000
  S   S267      1.0  0.34308  0.41256  0.21193  1.0000
  C   C2068     1.0  0.37764  0.19010  0.00990  1.0000
  H   H1628     1.0  0.38899  0.33911  0.11950  1.0000
  C   C2069     1.0  0.52259  0.09866  0.21130  1.0000
  H   H1629     1.0  0.34381  0.15639  0.98792  1.0000
  H   H1630     1.0  0.56287  0.06792  0.21130  1.0000
  C   C2070     1.0  0.56187  0.24232  0.22513  1.0000
  C   C2071     1.0  0.58982  0.25566  0.15584  1.0000
  H   H1631     1.0  0.58367  0.24414  0.08614  1.0000
  Fe  Fe133     1.0  0.58304  0.22452  0.13561  1.0000
  H   H1632     1.0  0.46742  0.02812  0.13922  1.0000
  C   C2072     1.0  0.58806  0.19460  0.06203  1.0000
  H   H1633     1.0  0.35844  0.34260  0.17126  1.0000
  H   H1634     1.0  0.51922  0.19482  0.19971  1.0000
  C   C2073     1.0  0.34166  0.31191  0.20822  1.0000
  H   H1635     1.0  0.58388  0.19233  0.19775  1.0000
  H   H1636     1.0  0.60549  0.02744  0.18935  1.0000
  C   C2074     1.0  0.56788  0.15300  0.21499  1.0000
  Fe  Fe134     1.0  0.43889  0.30775  0.20360  1.0000
  S   S268      1.0  0.43633  0.28137  0.19804  1.0000
  S   S269      1.0  0.41422  0.32534  0.21833  1.0000
  H   H1637     1.0  0.39686  0.36336  0.16123  1.0000
  C   C2075     1.0  0.40689  0.42639  0.20062  1.0000
  C   C2076     1.0  0.58723  0.20045  0.04345  1.0000
  C   C2077     1.0  0.40471  0.34648  0.18609  1.0000
  C   C2078     1.0  0.58518  0.27151  0.16315  1.0000
  H   H1638     1.0  0.59251  0.28649  0.17940  1.0000
  C   C2079     1.0  0.39378  0.40397  0.19417  1.0000
  H   H1639     1.0  0.58426  0.21494  0.03758  1.0000
  H   H1640     1.0  0.41804  0.34036  0.17922  1.0000
  C   C2080     1.0  0.52294  0.16591  0.21112  1.0000
  H   H1641     1.0  0.49647  0.01743  0.21415  1.0000
  H   H1642     1.0  0.52093  0.23150  0.99506  1.0000
  C   C2081     1.0  0.50106  0.98845  0.21529  1.0000
  C   C2082     1.0  0.39812  0.25867  0.21486  1.0000
  C   C2083     1.0  0.63080  0.19315  0.00708  1.0000
  H   H1643     1.0  0.40863  0.20999  0.22290  1.0000
  S   S270      1.0  0.57590  0.25241  0.14266  1.0000
  H   H1644     1.0  0.37147  0.17877  0.01820  1.0000
  C   C2084     1.0  0.51857  0.13004  0.06511  1.0000
  H   H1645     1.0  0.51834  0.16387  0.07112  1.0000
  C   C2085     1.0  0.51200  0.22778  0.00816  1.0000
  C   C2086     1.0  0.34132  0.27265  0.16864  1.0000
  C   C2087     1.0  0.50029  0.00380  0.22210  1.0000
  C   C2088     1.0  0.54044  0.31509  0.21919  1.0000
  C   C2089     1.0  0.40442  0.40829  0.20409  1.0000
  C   C2090     1.0  0.54124  0.09191  0.21094  1.0000
  C   C2091     1.0  0.63535  0.14221  0.06779  1.0000
  H   H1646     1.0  0.49686  0.09206  0.21228  1.0000
  H   H1647     1.0  0.52301  0.13794  0.22462  1.0000
  H   H1648     1.0  0.62912  0.23561  0.17123  1.0000
  C   C2092     1.0  0.40499  0.31354  0.16473  1.0000
  H   H1649     1.0  0.45117  0.35812  0.17256  1.0000
  H   H1650     1.0  0.62894  0.14889  0.11732  1.0000
  C   C2093     1.0  0.64853  0.34980  0.21890  1.0000
  S   S271      1.0  0.45050  0.06112  0.22198  1.0000
  C   C2094     1.0  0.54375  0.98784  0.18268  1.0000
  H   H1651     1.0  0.51025  0.03445  0.09007  1.0000
  H   H1652     1.0  0.58610  0.09685  0.00495  1.0000
  H   H1653     1.0  0.33634  0.29199  0.18582  1.0000
  H   H1654     1.0  0.53218  0.14415  0.98835  1.0000
  C   C2095     1.0  0.33493  0.43775  0.11949  1.0000
  H   H1655     1.0  0.51553  0.23378  0.20996  1.0000
  H   H1656     1.0  0.44273  0.00686  0.19784  1.0000
  C   C2096     1.0  0.39461  0.21329  0.00747  1.0000
  S   S272      1.0  0.57494  0.15251  0.98801  1.0000
  C   C2097     1.0  0.50089  0.18897  0.22576  1.0000
  C   C2098     1.0  0.38340  0.28829  0.19937  1.0000
  H   H1657     1.0  0.41030  0.17160  0.22714  1.0000
  S   S273      1.0  0.42394  0.11263  0.22122  1.0000
  C   C2099     1.0  0.64641  0.17372  0.03104  1.0000
  H   H1658     1.0  0.55492  0.98944  0.20487  1.0000
  H   H1659     1.0  0.38862  0.26274  0.19019  1.0000
  H   H1660     1.0  0.42477  0.37962  0.18573  1.0000
  C   C2100     1.0  0.38558  0.29635  0.21283  1.0000
  P   P69       1.0  0.41391  0.39079  0.22169  1.0000
  C   C2101     1.0  0.51374  0.02512  0.10237  1.0000
  H   H1661     1.0  0.48300  0.30618  0.00765  1.0000
  H   H1662     1.0  0.55446  0.09608  0.00417  1.0000
  C   C2102     1.0  0.43635  0.00295  0.21204  1.0000
  H   H1663     1.0  0.62248  0.20605  0.00172  1.0000
  C   C2103     1.0  0.51696  0.15209  0.22543  1.0000
  C   C2104     1.0  0.63905  0.15013  0.15026  1.0000
  C   C2105     1.0  0.54644  0.99682  0.19503  1.0000
  C   C2106     1.0  0.35416  0.26305  0.15620  1.0000
  H   H1664     1.0  0.49423  0.20321  0.22561  1.0000
  C   C2107     1.0  0.32437  0.34281  0.20892  1.0000
  C   C2108     1.0  0.63067  0.14703  0.10349  1.0000
  C   C2109     1.0  0.40189  0.08012  0.20312  1.0000
  H   H1665     1.0  0.55594  0.27192  0.21845  1.0000
  C   C2110     1.0  0.63465  0.20079  0.22420  1.0000
  C   C2111     1.0  0.63580  0.19051  0.02389  1.0000
  H   H1666     1.0  0.63125  0.20163  0.03116  1.0000
  C   C2112     1.0  0.60560  0.21630  0.21585  1.0000
  H   H1667     1.0  0.34009  0.20670  0.00479  1.0000
  C   C2113     1.0  0.63944  0.15869  0.08879  1.0000
  C   C2114     1.0  0.44564  0.36359  0.22232  1.0000
  Fe  Fe135     1.0  0.58393  0.31018  0.22643  1.0000
  H   H1668     1.0  0.49788  0.99016  0.20207  1.0000
  C   C2115     1.0  0.50930  0.99841  0.12633  1.0000
  C   C2116     1.0  0.65198  0.19264  0.05752  1.0000
  C   C2117     1.0  0.36725  0.48177  0.10939  1.0000
  C   C2118     1.0  0.63998  0.17686  0.19125  1.0000
  H   H1669     1.0  0.65031  0.15119  0.99704  1.0000
  H   H1670     1.0  0.64904  0.20029  0.22289  1.0000
  S   S274      1.0  0.60291  0.02046  0.22915  1.0000
  C   C2119     1.0  0.39371  0.28559  0.22733  1.0000
  H   H1671     1.0  0.37774  0.34541  0.22843  1.0000
  H   H1672     1.0  0.63832  0.12559  0.21083  1.0000
  C   C2120     1.0  0.65168  0.15958  0.02117  1.0000
  C   C2121     1.0  0.59712  0.20265  0.22833  1.0000
  H   H1673     1.0  0.64049  0.19109  0.18522  1.0000
  H   H1674     1.0  0.32302  0.47842  0.08003  1.0000
  C   C2122     1.0  0.33754  0.48405  0.20054  1.0000
  C   C2123     1.0  0.65423  0.14653  0.20569  1.0000
  H   H1675     1.0  0.63216  0.18109  0.98439  1.0000
  H   H1676     1.0  0.50249  0.98697  0.13223  1.0000
  P   P70       1.0  0.65442  0.17066  0.05194  1.0000
  C   C2124     1.0  0.65446  0.16520  0.19881  1.0000
  H   H1677     1.0  0.40133  0.22976  0.98056  1.0000
  S   S275      1.0  0.59012  0.19045  0.98068  1.0000
  H   H1678     1.0  0.50324  0.14245  0.98095  1.0000
  C   C2125     1.0  0.59540  0.98589  0.19233  1.0000
  P   P71       1.0  0.52887  0.98521  0.15445  1.0000
  P   P72       1.0  0.36650  0.18395  0.98069  1.0000
  S   S276      1.0  0.62779  0.18115  0.31651  1.0000
  S   S277      1.0  0.42917  0.07071  0.26263  1.0000
  C   C2126     1.0  0.46536  0.00160  0.31139  1.0000
  C   C2127     1.0  0.62123  0.13403  0.27771  1.0000
  S   S278      1.0  0.46861  0.04194  0.25803  1.0000
  H   H1679     1.0  0.56901  0.02638  0.25873  1.0000
  Fe  Fe136     1.0  0.44160  0.04561  0.25044  1.0000
  S   S279      1.0  0.42659  0.02212  0.25872  1.0000
  Fe  Fe137     1.0  0.45698  0.06821  0.26807  1.0000
  S   S280      1.0  0.46519  0.06973  0.29365  1.0000
  C   C2128     1.0  0.62639  0.18702  0.23635  1.0000
  H   H1680     1.0  0.46040  0.41716  0.23391  1.0000
  H   H1681     1.0  0.60155  0.17712  0.24804  1.0000
  H   H1682     1.0  0.41926  0.08106  0.33297  1.0000
  H   H1683     1.0  0.46617  0.99306  0.23931  1.0000
  Fe  Fe138     1.0  0.59312  0.15203  0.34757  1.0000
  S   S281      1.0  0.57035  0.13717  0.36363  1.0000
  H   H1684     1.0  0.51167  0.21504  0.24134  1.0000
  C   C2129     1.0  0.59359  0.23344  0.30921  1.0000
  H   H1685     1.0  0.48851  0.26173  0.34248  1.0000
  C   C2130     1.0  0.58961  0.09989  0.33647  1.0000
  C   C2131     1.0  0.51566  0.22839  0.36797  1.0000
  H   H1686     1.0  0.51796  0.23986  0.29279  1.0000
  H   H1687     1.0  0.34452  0.20974  0.42291  1.0000
  H   H1688     1.0  0.48339  0.20977  0.42252  1.0000
  H   H1689     1.0  0.52964  0.99639  0.29537  1.0000
  C   C2132     1.0  0.50663  0.25593  0.41706  1.0000
  Fe  Fe139     1.0  0.44070  0.16025  0.33384  1.0000
  S   S282      1.0  0.45400  0.15548  0.35799  1.0000
  S   S283      1.0  0.42799  0.14255  0.32350  1.0000
  Fe  Fe140     1.0  0.43688  0.20175  0.32612  1.0000
  S   S284      1.0  0.44884  0.20049  0.34993  1.0000
  S   S285      1.0  0.42646  0.22907  0.30883  1.0000
  Fe  Fe141     1.0  0.46980  0.17691  0.34046  1.0000
  S   S286      1.0  0.49820  0.18215  0.33684  1.0000
  Fe  Fe142     1.0  0.43225  0.17957  0.36559  1.0000
  S   S287      1.0  0.41854  0.17990  0.39511  1.0000
  S   S288      1.0  0.45856  0.17931  0.31553  1.0000
  S   S289      1.0  0.41811  0.18306  0.34272  1.0000
  C   C2133     1.0  0.44354  0.19413  0.25468  1.0000
  H   H1690     1.0  0.48678  0.24065  0.37262  1.0000
  S   S290      1.0  0.33429  0.17756  0.41562  1.0000
  C   C2134     1.0  0.64278  0.23754  0.24370  1.0000
  C   C2135     1.0  0.39520  0.17889  0.40080  1.0000
  C   C2136     1.0  0.38456  0.18492  0.38745  1.0000
  C   C2137     1.0  0.36592  0.18444  0.39221  1.0000
  C   C2138     1.0  0.35784  0.17750  0.41021  1.0000
  C   C2139     1.0  0.36846  0.17132  0.42362  1.0000
  C   C2140     1.0  0.38707  0.17223  0.41895  1.0000
  H   H1691     1.0  0.39053  0.19049  0.37355  1.0000
  H   H1692     1.0  0.35768  0.18974  0.38196  1.0000
  H   H1693     1.0  0.36233  0.16605  0.43760  1.0000
  H   H1694     1.0  0.39522  0.16755  0.42937  1.0000
  C   C2141     1.0  0.45656  0.23859  0.24914  1.0000
  C   C2142     1.0  0.46404  0.22425  0.26204  1.0000
  C   C2143     1.0  0.45528  0.22182  0.28051  1.0000
  C   C2144     1.0  0.43866  0.23330  0.28609  1.0000
  C   C2145     1.0  0.43136  0.24796  0.27324  1.0000
  C   C2146     1.0  0.44038  0.25069  0.25477  1.0000
  H   H1695     1.0  0.47660  0.21495  0.25776  1.0000
  H   H1696     1.0  0.46141  0.21103  0.29036  1.0000
  H   H1697     1.0  0.41861  0.25704  0.27752  1.0000
  H   H1698     1.0  0.43478  0.26200  0.24485  1.0000
  C   C2147     1.0  0.44734  0.13597  0.24716  1.0000
  S   S291      1.0  0.33605  0.14177  0.46236  1.0000
  C   C2148     1.0  0.34740  0.21939  0.46241  1.0000
  C   C2149     1.0  0.48969  0.25282  0.29208  1.0000
  H   H1699     1.0  0.55552  0.14401  0.24311  1.0000
  C   C2150     1.0  0.34223  0.21755  0.43338  1.0000
  H   H1700     1.0  0.33158  0.18224  0.36391  1.0000
  C   C2151     1.0  0.54896  0.15023  0.35935  1.0000
  C   C2152     1.0  0.54733  0.16867  0.35077  1.0000
  C   C2153     1.0  0.53128  0.17839  0.34479  1.0000
  C   C2154     1.0  0.51658  0.16988  0.34750  1.0000
  C   C2155     1.0  0.51743  0.15194  0.35763  1.0000
  C   C2156     1.0  0.53365  0.14211  0.36363  1.0000
  H   H1701     1.0  0.55852  0.17547  0.34861  1.0000
  H   H1702     1.0  0.53040  0.19253  0.33784  1.0000
  H   H1703     1.0  0.50591  0.14548  0.36028  1.0000
  H   H1704     1.0  0.53469  0.12798  0.37072  1.0000
  Fe  Fe143     1.0  0.61539  0.28893  0.24473  1.0000
  C   C2157     1.0  0.42705  0.00914  0.24273  1.0000
  C   C2158     1.0  0.45483  0.08980  0.30221  1.0000
  C   C2159     1.0  0.43939  0.10134  0.29637  1.0000
  C   C2160     1.0  0.43105  0.11713  0.30354  1.0000
  C   C2161     1.0  0.43855  0.12197  0.31590  1.0000
  C   C2162     1.0  0.45378  0.11026  0.32207  1.0000
  C   C2163     1.0  0.46188  0.09413  0.31526  1.0000
  H   H1705     1.0  0.43374  0.09801  0.28648  1.0000
  H   H1706     1.0  0.41890  0.12584  0.29918  1.0000
  H   H1707     1.0  0.45919  0.11356  0.33213  1.0000
  H   H1708     1.0  0.47370  0.08508  0.31998  1.0000
  H   H1709     1.0  0.58845  0.27230  0.27624  1.0000
  H   H1710     1.0  0.62296  0.14381  0.24863  1.0000
  H   H1711     1.0  0.42843  0.07842  0.36216  1.0000
  H   H1712     1.0  0.61903  0.21930  0.31728  1.0000
  C   C2164     1.0  0.32809  0.24475  0.44593  1.0000
  C   C2165     1.0  0.32939  0.23297  0.37913  1.0000
  C   C2166     1.0  0.56325  0.20457  0.25642  1.0000
  C   C2167     1.0  0.43618  0.41858  0.25525  1.0000
  S   S292      1.0  0.46658  0.08600  0.24121  1.0000
  C   C2168     1.0  0.61793  0.11638  0.25708  1.0000
  H   H1713     1.0  0.36021  0.23997  0.39999  1.0000
  C   C2169     1.0  0.41056  0.08887  0.34298  1.0000
  C   C2170     1.0  0.61383  0.25791  0.28430  1.0000
  H   H1714     1.0  0.35881  0.19606  0.44966  1.0000
  C   C2171     1.0  0.50994  0.24662  0.43435  1.0000
  C   C2172     1.0  0.39970  0.36148  0.24556  1.0000
  H   H1715     1.0  0.61195  0.10303  0.34642  1.0000
  C   C2173     1.0  0.53782  0.20268  0.28255  1.0000
  H   H1716     1.0  0.54829  0.14942  0.39828  1.0000
  C   C2174     1.0  0.52838  0.29162  0.28829  1.0000
  C   C2175     1.0  0.54965  0.01188  0.27876  1.0000
  C   C2176     1.0  0.51329  0.28590  0.28647  1.0000
  C   C2177     1.0  0.50784  0.24614  0.40370  1.0000
  C   C2178     1.0  0.50469  0.23813  0.25443  1.0000
  S   S293      1.0  0.59657  0.28019  0.23251  1.0000
  H   H1717     1.0  0.54163  0.99744  0.23737  1.0000
  C   C2179     1.0  0.62090  0.24805  0.34627  1.0000
  C   C2180     1.0  0.50165  0.25727  0.25180  1.0000
  C   C2181     1.0  0.49699  0.98932  0.28660  1.0000
  Fe  Fe144     1.0  0.62972  0.16257  0.34397  1.0000
  C   C2182     1.0  0.64041  0.28034  0.30806  1.0000
  H   H1718     1.0  0.38880  0.33899  0.26411  1.0000
  H   H1719     1.0  0.40109  0.21987  0.25242  1.0000
  C   C2183     1.0  0.61693  0.23385  0.36128  1.0000
  C   C2184     1.0  0.59941  0.22997  0.36679  1.0000
  C   C2185     1.0  0.58563  0.24038  0.35754  1.0000
  C   C2186     1.0  0.58930  0.25481  0.34292  1.0000
  C   C2187     1.0  0.60685  0.25864  0.33726  1.0000
  C   C2188     1.0  0.37776  0.38984  0.23943  1.0000
  H   H1720     1.0  0.48480  0.17911  0.25182  1.0000
  C   C2189     1.0  0.46637  0.19599  0.41526  1.0000
  C   C2190     1.0  0.47667  0.28757  0.26634  1.0000
  C   C2191     1.0  0.56637  0.18641  0.39409  1.0000
  S   S294      1.0  0.62591  0.15405  0.28097  1.0000
  C   C2192     1.0  0.32580  0.10334  0.42133  1.0000
  H   H1721     1.0  0.37441  0.40406  0.23268  1.0000
  H   H1722     1.0  0.63700  0.24057  0.29487  1.0000
  C   C2193     1.0  0.49537  0.17526  0.24043  1.0000
  C   C2194     1.0  0.42664  0.20534  0.25993  1.0000
  H   H1723     1.0  0.49043  0.30911  0.26548  1.0000
  C   C2195     1.0  0.60534  0.09342  0.34386  1.0000
  C   C2196     1.0  0.50317  0.15670  0.24030  1.0000
  H   H1724     1.0  0.49957  0.01778  0.27902  1.0000
  C   C2197     1.0  0.44746  0.31646  0.25820  1.0000
  Fe  Fe145     1.0  0.60831  0.07889  0.24119  1.0000
  H   H1725     1.0  0.59668  0.21859  0.37796  1.0000
  H   H1726     1.0  0.57224  0.23695  0.36132  1.0000
  H   H1727     1.0  0.57875  0.26255  0.33542  1.0000
  H   H1728     1.0  0.60935  0.26950  0.32554  1.0000
  C   C2198     1.0  0.50381  0.24028  0.29971  1.0000
  Fe  Fe146     1.0  0.32277  0.16741  0.44534  1.0000
  C   C2199     1.0  0.65158  0.25143  0.38896  1.0000
  H   H1729     1.0  0.63842  0.33104  0.24302  1.0000
  S   S295      1.0  0.62680  0.27321  0.26938  1.0000
  C   C2200     1.0  0.41769  0.13530  0.40017  1.0000
  C   C2201     1.0  0.41487  0.12726  0.41876  1.0000
  C   C2202     1.0  0.40007  0.11868  0.42675  1.0000
  C   C2203     1.0  0.38805  0.11823  0.41617  1.0000
  C   C2204     1.0  0.39028  0.12707  0.39760  1.0000
  C   C2205     1.0  0.40536  0.13545  0.38967  1.0000
  P   P73       1.0  0.37560  0.12544  0.38344  1.0000
  C   C2206     1.0  0.38871  0.11018  0.36825  1.0000
  C   C2207     1.0  0.35570  0.11711  0.39779  1.0000
  C   C2208     1.0  0.35070  0.10197  0.39488  1.0000
  H   H1730     1.0  0.62466  0.06971  0.35374  1.0000
  H   H1731     1.0  0.61791  0.11525  0.24344  1.0000
  C   C2209     1.0  0.33059  0.11849  0.42421  1.0000
  C   C2210     1.0  0.34539  0.12542  0.41247  1.0000
  C   C2211     1.0  0.38341  0.11126  0.35184  1.0000
  C   C2212     1.0  0.39434  0.10069  0.33925  1.0000
  C   C2213     1.0  0.40484  0.09797  0.37207  1.0000
  C   C2214     1.0  0.36863  0.14758  0.36920  1.0000
  C   C2215     1.0  0.38102  0.15421  0.35362  1.0000
  C   C2216     1.0  0.37568  0.17076  0.34188  1.0000
  C   C2217     1.0  0.35785  0.18086  0.34550  1.0000
  C   C2218     1.0  0.34534  0.17434  0.36086  1.0000
  C   C2219     1.0  0.35069  0.15781  0.37270  1.0000
  H   H1732     1.0  0.42921  0.14189  0.39398  1.0000
  H   H1733     1.0  0.42411  0.12780  0.42695  1.0000
  H   H1734     1.0  0.37717  0.11085  0.42262  1.0000
  H   H1735     1.0  0.40779  0.14199  0.37536  1.0000
  H   H1736     1.0  0.35837  0.09527  0.38373  1.0000
  H   H1737     1.0  0.55227  0.01567  0.29027  1.0000
  Fe  Fe147     1.0  0.61837  0.15876  0.30998  1.0000
  C   C2220     1.0  0.36776  0.36327  0.26019  1.0000
  H   H1738     1.0  0.34900  0.13711  0.41501  1.0000
  H   H1739     1.0  0.37108  0.12064  0.34856  1.0000
  H   H1740     1.0  0.39050  0.10197  0.32636  1.0000
  H   H1741     1.0  0.40927  0.09683  0.38458  1.0000
  H   H1742     1.0  0.39478  0.14644  0.35030  1.0000
  H   H1743     1.0  0.38546  0.17565  0.32994  1.0000
  H   H1744     1.0  0.35378  0.19372  0.33644  1.0000
  C   C2221     1.0  0.50476  0.00162  0.23906  1.0000
  H   H1745     1.0  0.34075  0.15331  0.38457  1.0000
  C   C2222     1.0  0.56615  0.20804  0.28588  1.0000
  C   C2223     1.0  0.54840  0.20532  0.29349  1.0000
  C   C2224     1.0  0.41944  0.99338  0.24863  1.0000
  C   C2225     1.0  0.47148  0.25295  0.30135  1.0000
  C   C2226     1.0  0.53342  0.17741  0.39455  1.0000
  C   C2227     1.0  0.57350  0.20785  0.26742  1.0000
  H   H1746     1.0  0.33777  0.27364  0.38523  1.0000
  H   H1747     1.0  0.38144  0.22993  0.37291  1.0000
  H   H1748     1.0  0.57429  0.21027  0.29431  1.0000
  H   H1749     1.0  0.54290  0.20540  0.30784  1.0000
  H   H1750     1.0  0.40642  0.25844  0.23950  1.0000
  H   H1751     1.0  0.58717  0.21037  0.26189  1.0000
  C   C2228     1.0  0.60775  0.18780  0.23830  1.0000
  C   C2229     1.0  0.62727  0.21486  0.26551  1.0000
  C   C2230     1.0  0.58489  0.24848  0.29773  1.0000
  H   H1752     1.0  0.47873  0.21940  0.33863  1.0000
  H   H1753     1.0  0.41337  0.35331  0.24315  1.0000
  H   H1754     1.0  0.46465  0.33422  0.25880  1.0000
  H   H1755     1.0  0.63429  0.17592  0.24461  1.0000
  H   H1756     1.0  0.63037  0.26295  0.37354  1.0000
  H   H1757     1.0  0.55331  0.16302  0.31256  1.0000
  H   H1758     1.0  0.45345  0.24078  0.32496  1.0000
  C   C2231     1.0  0.61242  0.07463  0.34809  1.0000
  H   H1759     1.0  0.42342  0.20987  0.27278  1.0000
  C   C2232     1.0  0.51746  0.25245  0.33375  1.0000
  H   H1760     1.0  0.61477  0.21076  0.27365  1.0000
  H   H1761     1.0  0.51066  0.21857  0.32229  1.0000
  H   H1762     1.0  0.33201  0.08341  0.40442  1.0000
  H   H1763     1.0  0.34976  0.38919  0.25299  1.0000
  S   S296      1.0  0.58894  0.16957  0.32045  1.0000
  H   H1764     1.0  0.57036  0.25067  0.29851  1.0000
  H   H1765     1.0  0.47610  0.12840  0.23653  1.0000
  H   H1766     1.0  0.55184  0.21437  0.39036  1.0000
  H   H1767     1.0  0.56007  0.27509  0.25375  1.0000
  C   C2233     1.0  0.62246  0.24286  0.29573  1.0000
  H   H1768     1.0  0.36971  0.22198  0.34962  1.0000
  C   C2234     1.0  0.53314  0.24015  0.33821  1.0000
  C   C2235     1.0  0.48160  0.20390  0.41197  1.0000
  P   P74       1.0  0.49476  0.13948  0.25911  1.0000
  C   C2236     1.0  0.49795  0.14305  0.28010  1.0000
  C   C2237     1.0  0.47085  0.14184  0.25930  1.0000
  C   C2238     1.0  0.45715  0.15054  0.27200  1.0000
  C   C2239     1.0  0.43873  0.15199  0.27215  1.0000
  C   C2240     1.0  0.39584  0.37984  0.23648  1.0000
  C   C2241     1.0  0.33578  0.09516  0.40660  1.0000
  C   C2242     1.0  0.48171  0.22865  0.32562  1.0000
  C   C2243     1.0  0.48887  0.13408  0.29676  1.0000
  C   C2244     1.0  0.49102  0.13663  0.31325  1.0000
  C   C2245     1.0  0.50281  0.14763  0.31322  1.0000
  C   C2246     1.0  0.51235  0.15624  0.29669  1.0000
  C   C2247     1.0  0.51000  0.15394  0.28012  1.0000
  C   C2248     1.0  0.50693  0.11624  0.25826  1.0000
  C   C2249     1.0  0.52605  0.11204  0.25553  1.0000
  C   C2250     1.0  0.53561  0.09409  0.25511  1.0000
  C   C2251     1.0  0.52619  0.08017  0.25743  1.0000
  C   C2252     1.0  0.50713  0.08402  0.26123  1.0000
  C   C2253     1.0  0.49750  0.10191  0.26199  1.0000
  S   S297      1.0  0.58097  0.21835  0.32509  1.0000
  C   C2254     1.0  0.47805  0.30582  0.26438  1.0000
  H   H1769     1.0  0.58434  0.11453  0.33349  1.0000
  C   C2255     1.0  0.65080  0.30519  0.32207  1.0000
  H   H1770     1.0  0.53683  0.20057  0.25564  1.0000
  H   H1771     1.0  0.46050  0.15624  0.28184  1.0000
  H   H1772     1.0  0.42825  0.15846  0.28220  1.0000
  C   C2256     1.0  0.62661  0.23198  0.25372  1.0000
  C   C2257     1.0  0.51449  0.22750  0.43829  1.0000
  C   C2258     1.0  0.47603  0.01394  0.30022  1.0000
  H   H1773     1.0  0.47995  0.12527  0.29689  1.0000
  H   H1774     1.0  0.48348  0.13012  0.32605  1.0000
  H   H1775     1.0  0.50471  0.14928  0.32603  1.0000
  H   H1776     1.0  0.52148  0.16473  0.29684  1.0000
  H   H1777     1.0  0.51767  0.16054  0.26746  1.0000
  H   H1778     1.0  0.53363  0.12263  0.25350  1.0000
  H   H1779     1.0  0.55037  0.09114  0.25239  1.0000
  H   H1780     1.0  0.53364  0.06644  0.25624  1.0000
  H   H1781     1.0  0.49974  0.07316  0.26354  1.0000
  H   H1782     1.0  0.48274  0.10428  0.26564  1.0000
  C   C2259     1.0  0.57176  0.06044  0.28975  1.0000
  C   C2260     1.0  0.55456  0.05851  0.28892  1.0000
  C   C2261     1.0  0.53887  0.06761  0.29922  1.0000
  C   C2262     1.0  0.54039  0.07869  0.31032  1.0000
  C   C2263     1.0  0.55768  0.08061  0.31134  1.0000
  C   C2264     1.0  0.57330  0.07149  0.30083  1.0000
  P   P75       1.0  0.55998  0.09592  0.32450  1.0000
  C   C2265     1.0  0.54102  0.09758  0.34383  1.0000
  C   C2266     1.0  0.58079  0.08756  0.33326  1.0000
  C   C2267     1.0  0.58772  0.06865  0.33798  1.0000
  C   C2268     1.0  0.60359  0.06224  0.34519  1.0000
  C   C2269     1.0  0.54333  0.08894  0.36171  1.0000
  C   C2270     1.0  0.52853  0.09033  0.37651  1.0000
  C   C2271     1.0  0.51133  0.10030  0.37360  1.0000
  C   C2272     1.0  0.50893  0.10893  0.35589  1.0000
  C   C2273     1.0  0.52374  0.10767  0.34109  1.0000
  C   C2274     1.0  0.56108  0.11817  0.30979  1.0000
  C   C2275     1.0  0.56993  0.11968  0.29132  1.0000
  C   C2276     1.0  0.57288  0.13670  0.28065  1.0000
  C   C2277     1.0  0.56702  0.15230  0.28832  1.0000
  C   C2278     1.0  0.55477  0.13401  0.31717  1.0000
  H   H1783     1.0  0.58399  0.05375  0.28148  1.0000
  H   H1784     1.0  0.55339  0.05029  0.28000  1.0000
  H   H1785     1.0  0.52547  0.06637  0.29835  1.0000
  H   H1786     1.0  0.52802  0.08578  0.31786  1.0000
  H   H1787     1.0  0.58674  0.07316  0.30094  1.0000
  H   H1788     1.0  0.58084  0.05884  0.33621  1.0000
  H   H1789     1.0  0.60899  0.04766  0.34861  1.0000
  H   H1790     1.0  0.55652  0.08128  0.36439  1.0000
  H   H1791     1.0  0.53047  0.08383  0.39027  1.0000
  H   H1792     1.0  0.49991  0.10150  0.38509  1.0000
  H   H1793     1.0  0.49562  0.11680  0.35372  1.0000
  H   H1794     1.0  0.52183  0.11447  0.32743  1.0000
  H   H1795     1.0  0.57533  0.10768  0.28529  1.0000
  C   C2279     1.0  0.55904  0.01794  0.26106  1.0000
  C   C2280     1.0  0.64476  0.27490  0.32546  1.0000
  C   C2281     1.0  0.49419  0.20415  0.39520  1.0000
  H   H1796     1.0  0.47425  0.18213  0.37504  1.0000
  C   C2282     1.0  0.64410  0.20314  0.26705  1.0000
  H   H1797     1.0  0.56596  0.24180  0.23768  1.0000
  C   C2283     1.0  0.49980  0.22822  0.31637  1.0000
  H   H1798     1.0  0.35686  0.35680  0.26905  1.0000
  H   H1799     1.0  0.45661  0.19585  0.42814  1.0000
  H   H1800     1.0  0.63631  0.18874  0.37160  1.0000
  H   H1801     1.0  0.54598  0.23995  0.32840  1.0000
  H   H1802     1.0  0.50902  0.25423  0.44468  1.0000
  H   H1803     1.0  0.45193  0.18199  0.40452  1.0000
  C   C2284     1.0  0.55769  0.15100  0.30650  1.0000
  C   C2285     1.0  0.55579  0.01294  0.24623  1.0000
  H   H1804     1.0  0.50272  0.22969  0.26801  1.0000
  H   H1805     1.0  0.51823  0.26167  0.32054  1.0000
  C   C2286     1.0  0.53231  0.22807  0.35521  1.0000
  C   C2287     1.0  0.61566  0.10316  0.28935  1.0000
  C   C2288     1.0  0.54514  0.20254  0.26401  1.0000
  H   H1806     1.0  0.43392  0.29550  0.25767  1.0000
  C   C2289     1.0  0.46370  0.18817  0.40195  1.0000
  H   H1807     1.0  0.53376  0.26488  0.25038  1.0000
  C   C2290     1.0  0.56539  0.16810  0.39640  1.0000
  H   H1808     1.0  0.50456  0.01371  0.24385  1.0000
  H   H1809     1.0  0.45817  0.99313  0.27227  1.0000
  S   S298      1.0  0.60120  0.31837  0.24129  1.0000
  H   H1810     1.0  0.50535  0.25367  0.39040  1.0000
  H   H1811     1.0  0.57015  0.16529  0.28039  1.0000
  C   C2291     1.0  0.36687  0.23110  0.37450  1.0000
  H   H1812     1.0  0.52701  0.29937  0.29862  1.0000
  C   C2292     1.0  0.33633  0.23692  0.46106  1.0000
  H   H1813     1.0  0.50068  0.19670  0.36879  1.0000
  H   H1814     1.0  0.52096  0.17348  0.39461  1.0000
  C   C2293     1.0  0.61837  0.11939  0.29238  1.0000
  C   C2294     1.0  0.59508  0.26066  0.28512  1.0000
  P   P76       1.0  0.51421  0.21388  0.39054  1.0000
  C   C2295     1.0  0.62092  0.13252  0.26006  1.0000
  H   H1815     1.0  0.51927  0.20282  0.42825  1.0000
  C   C2296     1.0  0.46578  0.13501  0.24655  1.0000
  C   C2297     1.0  0.49175  0.00787  0.28782  1.0000
  C   C2298     1.0  0.42261  0.40144  0.23506  1.0000
  C   C2299     1.0  0.35037  0.20974  0.44855  1.0000
  H   H1816     1.0  0.57747  0.15736  0.39756  1.0000
  H   H1817     1.0  0.55685  0.29255  0.27751  1.0000
  C   C2300     1.0  0.41406  0.21091  0.24848  1.0000
  C   C2301     1.0  0.38574  0.35329  0.25749  1.0000
  S   S299      1.0  0.62226  0.13925  0.33648  1.0000
  C   C2302     1.0  0.35479  0.23663  0.38991  1.0000
  H   H1818     1.0  0.55757  0.17121  0.25278  1.0000
  C   C2303     1.0  0.51571  0.21766  0.42498  1.0000
  C   C2304     1.0  0.46344  0.32018  0.26042  1.0000
  H   H1819     1.0  0.45983  0.27015  0.26420  1.0000
  H   H1820     1.0  0.50317  0.27077  0.41399  1.0000
  S   S300      1.0  0.61225  0.08087  0.26855  1.0000
  C   C2305     1.0  0.47619  0.18835  0.38529  1.0000
  C   C2306     1.0  0.46074  0.28404  0.26366  1.0000
  P   P77       1.0  0.49546  0.26867  0.27085  1.0000
  C   C2307     1.0  0.54525  0.28765  0.27653  1.0000
  H   H1821     1.0  0.51711  0.22027  0.45168  1.0000
  C   C2308     1.0  0.51233  0.22690  0.40759  1.0000
  H   H1822     1.0  0.64485  0.20369  0.39236  1.0000
  H   H1823     1.0  0.64450  0.18986  0.27619  1.0000
  H   H1824     1.0  0.50029  0.28900  0.29570  1.0000
  H   H1825     1.0  0.61858  0.12043  0.30602  1.0000
  C   C2309     1.0  0.61542  0.10160  0.27172  1.0000
  H   H1826     1.0  0.45327  0.19012  0.26356  1.0000
  C   C2310     1.0  0.53429  0.19587  0.39219  1.0000
  H   H1827     1.0  0.46018  0.26223  0.29596  1.0000
  C   C2311     1.0  0.50987  0.22972  0.23933  1.0000
  C   C2312     1.0  0.46755  0.24084  0.31803  1.0000
  C   C2313     1.0  0.51492  0.27646  0.27262  1.0000
  H   H1828     1.0  0.47193  0.02835  0.30091  1.0000
  C   C2314     1.0  0.34152  0.22749  0.36370  1.0000
  H   H1829     1.0  0.52395  0.20076  0.28849  1.0000
  H   H1830     1.0  0.41955  0.14513  0.26037  1.0000
  C   C2315     1.0  0.44608  0.29838  0.25993  1.0000
  C   C2316     1.0  0.54343  0.00160  0.24905  1.0000
  H   H1831     1.0  0.54467  0.21856  0.35816  1.0000
  H   H1832     1.0  0.58045  0.13759  0.26666  1.0000
  H   H1833     1.0  0.63741  0.30209  0.28446  1.0000
  H   H1834     1.0  0.59337  0.98596  0.23685  1.0000
  C   C2317     1.0  0.55088  0.20025  0.39207  1.0000
  C   C2318     1.0  0.53689  0.00091  0.28160  1.0000
  C   C2319     1.0  0.33595  0.23759  0.39235  1.0000
  H   H1835     1.0  0.45305  0.00645  0.32078  1.0000
  H   H1836     1.0  0.65508  0.35222  0.47321  1.0000
  C   C2320     1.0  0.36024  0.22656  0.36138  1.0000
  H   H1837     1.0  0.57924  0.18982  0.39367  1.0000
  S   S301      1.0  0.55307  0.31802  0.23389  1.0000
  C   C2321     1.0  0.49984  0.24046  0.36315  1.0000
  C   C2322     1.0  0.54890  0.16362  0.39678  1.0000
  H   H1838     1.0  0.41036  0.41831  0.27420  1.0000
  C   C2323     1.0  0.43382  0.14455  0.25986  1.0000
  H   H1839     1.0  0.61378  0.09176  0.30072  1.0000
  H   H1840     1.0  0.54835  0.13309  0.33141  1.0000
  C   C2324     1.0  0.49122  0.19652  0.38183  1.0000
  S   S302      1.0  0.60084  0.17348  0.35742  1.0000
  Fe  Fe148     1.0  0.59841  0.19017  0.32947  1.0000
  C   C2325     1.0  0.41574  0.08743  0.35942  1.0000
  C   C2326     1.0  0.50077  0.25251  0.34615  1.0000
  C   C2327     1.0  0.54707  0.27782  0.26307  1.0000
  C   C2328     1.0  0.61236  0.23061  0.30814  1.0000
  C   C2329     1.0  0.53200  0.27227  0.26106  1.0000
  H   H1841     1.0  0.61358  0.24120  0.25268  1.0000
  H   H1842     1.0  0.51493  0.31861  0.23861  1.0000
  H   H1843     1.0  0.39790  0.11235  0.44116  1.0000
  C   C2330     1.0  0.53360  0.99580  0.26673  1.0000
  C   C2331     1.0  0.41834  0.20516  0.23185  1.0000
  C   C2332     1.0  0.36376  0.38152  0.25112  1.0000
  H   H1844     1.0  0.33643  0.22371  0.35367  1.0000
  H   H1845     1.0  0.43630  0.32754  0.25472  1.0000
  H   H1846     1.0  0.41291  0.98962  0.26283  1.0000
  H   H1847     1.0  0.44350  0.12980  0.23796  1.0000
  C   C2333     1.0  0.64670  0.34133  0.23743  1.0000
  H   H1848     1.0  0.35358  0.21316  0.47425  1.0000
  C   C2334     1.0  0.64919  0.18342  0.37601  1.0000
  H   H1849     1.0  0.63656  0.27082  0.30238  1.0000
  H   H1850     1.0  0.33399  0.24438  0.47186  1.0000
  Fe  Fe149     1.0  0.44002  0.08604  0.23455  1.0000
  H   H1851     1.0  0.46092  0.17952  0.23419  1.0000
  S   S303      1.0  0.58456  0.06790  0.24003  1.0000
  C   C2335     1.0  0.32616  0.28014  0.39424  1.0000
  H   H1852     1.0  0.50147  0.28252  0.23167  1.0000
  C   C2336     1.0  0.41189  0.40615  0.25150  1.0000
  H   H1853     1.0  0.44142  0.42520  0.26304  1.0000
  C   C2337     1.0  0.56240  0.17044  0.23857  1.0000
  H   H1854     1.0  0.62749  0.22544  0.36847  1.0000
  C   C2338     1.0  0.33113  0.23519  0.43183  1.0000
  C   C2339     1.0  0.50381  0.26778  0.23395  1.0000
  C   C2340     1.0  0.44781  0.18818  0.23812  1.0000
  H   H1855     1.0  0.33021  0.30729  0.38036  1.0000
  C   C2341     1.0  0.41869  0.41467  0.26155  1.0000
  C   C2342     1.0  0.44687  0.41405  0.23885  1.0000
  H   H1856     1.0  0.39826  0.40340  0.25657  1.0000
  H   H1857     1.0  0.65408  0.14709  0.24450  1.0000
  C   C2343     1.0  0.56131  0.15482  0.23318  1.0000
  H   H1858     1.0  0.39564  0.29202  0.23746  1.0000
  H   H1859     1.0  0.56305  0.01773  0.23253  1.0000
  P   P78       1.0  0.57273  0.20436  0.23246  1.0000
  P   P79       1.0  0.64408  0.25178  0.33835  1.0000
  C   C2344     1.0  0.64404  0.25477  0.37350  1.0000
  C   C2345     1.0  0.64625  0.31048  0.30481  1.0000
  C   C2346     1.0  0.64103  0.29804  0.29783  1.0000
  H   H1860     1.0  0.64372  0.25676  0.40094  1.0000
  H   H1861     1.0  0.64678  0.32420  0.29683  1.0000
  H   H1862     1.0  0.65379  0.33986  0.26312  1.0000
  C   C2347     1.0  0.65401  0.24736  0.35819  1.0000
  H   H1863     1.0  0.44429  0.36487  0.23626  1.0000
  H   H1864     1.0  0.64510  0.21250  0.34227  1.0000
  H   H1865     1.0  0.64190  0.25107  0.23500  1.0000
  H   H1866     1.0  0.65375  0.28373  0.34563  1.0000
  C   C2348     1.0  0.65006  0.28748  0.33238  1.0000
  C   C2349     1.0  0.65430  0.21699  0.32973  1.0000
  H   H1867     1.0  0.64927  0.99535  0.26514  1.0000
  C   C2350     1.0  0.65404  0.19184  0.38780  1.0000
  Fe  Fe150     1.0  0.47632  0.05996  0.23080  1.0000
  C   C2351     1.0  0.65544  0.34634  0.24881  1.0000
  H   H1868     1.0  0.65490  0.31485  0.32742  1.0000
  H   H1869     1.0  0.32295  0.12471  0.43573  1.0000
  Fe  Fe151     1.0  0.59891  0.20686  0.71018  1.0000
  S   S304      1.0  0.45196  0.19772  0.72755  1.0000
  S   S305      1.0  0.62617  0.19537  0.69358  1.0000
  C   C2352     1.0  0.58444  0.19512  0.66209  1.0000
  H   H1870     1.0  0.62070  0.24228  0.63722  1.0000
  C   C2353     1.0  0.32251  0.23677  0.66784  1.0000
  C   C2354     1.0  0.57907  0.24348  0.63836  1.0000
  H   H1871     1.0  0.58095  0.34605  0.72676  1.0000
  H   H1872     1.0  0.46351  0.07491  0.70912  1.0000
  S   S306      1.0  0.34599  0.15820  0.50243  1.0000
  H   H1873     1.0  0.61144  0.38908  0.71567  1.0000
  Fe  Fe152     1.0  0.42424  0.21583  0.72724  1.0000
  C   C2355     1.0  0.52301  0.21064  0.64221  1.0000
  H   H1874     1.0  0.32925  0.22937  0.67908  1.0000
  C   C2356     1.0  0.57108  0.26047  0.66279  1.0000
  C   C2357     1.0  0.38494  0.14244  0.69744  1.0000
  C   C2358     1.0  0.65170  0.21090  0.72285  1.0000
  S   S307      1.0  0.38662  0.19099  0.69938  1.0000
  C   C2359     1.0  0.61778  0.23216  0.58266  1.0000
  H   H1875     1.0  0.58403  0.26020  0.61100  1.0000
  S   S308      1.0  0.36634  0.17420  0.63087  1.0000
  C   C2360     1.0  0.47793  0.28768  0.69172  1.0000
  H   H1876     1.0  0.56665  0.27473  0.71406  1.0000
  C   C2361     1.0  0.48976  0.28857  0.70233  1.0000
  C   C2362     1.0  0.38124  0.18725  0.67973  1.0000
  C   C2363     1.0  0.39437  0.18493  0.66379  1.0000
  C   C2364     1.0  0.38951  0.18120  0.64889  1.0000
  C   C2365     1.0  0.37158  0.17954  0.64979  1.0000
  C   C2366     1.0  0.35841  0.18209  0.66563  1.0000
  C   C2367     1.0  0.36320  0.18602  0.68044  1.0000
  H   H1877     1.0  0.40827  0.18589  0.66300  1.0000
  H   H1878     1.0  0.39979  0.17935  0.63666  1.0000
  H   H1879     1.0  0.34458  0.18094  0.66647  1.0000
  H   H1880     1.0  0.35295  0.18784  0.69266  1.0000
  C   C2368     1.0  0.33455  0.16421  0.52352  1.0000
  S   S309      1.0  0.57320  0.19640  0.71394  1.0000
  C   C2369     1.0  0.61599  0.37443  0.71652  1.0000
  S   S310      1.0  0.32441  0.14845  0.65314  1.0000
  C   C2370     1.0  0.33550  0.16781  0.55369  1.0000
  C   C2371     1.0  0.34455  0.16364  0.53654  1.0000
  H   H1881     1.0  0.43083  0.07509  0.72196  1.0000
  H   H1882     1.0  0.34323  0.16707  0.56381  1.0000
  H   H1883     1.0  0.35928  0.15963  0.53346  1.0000
  H   H1884     1.0  0.60967  0.22795  0.66957  1.0000
  H   H1885     1.0  0.61487  0.23409  0.61047  1.0000
  C   C2372     1.0  0.33636  0.47614  0.71515  1.0000
  H   H1886     1.0  0.61938  0.16094  0.67463  1.0000
  H   H1887     1.0  0.56631  0.30570  0.69441  1.0000
  C   C2373     1.0  0.34747  0.11993  0.57244  1.0000
  H   H1888     1.0  0.49794  0.25030  0.69478  1.0000
  H   H1889     1.0  0.56648  0.26085  0.67719  1.0000
  C   C2374     1.0  0.45413  0.28391  0.71884  1.0000
  Fe  Fe153     1.0  0.45319  0.19907  0.69806  1.0000
  C   C2375     1.0  0.62269  0.22192  0.66206  1.0000
  C   C2376     1.0  0.63333  0.20607  0.67061  1.0000
  H   H1890     1.0  0.32987  0.20406  0.51404  1.0000
  C   C2377     1.0  0.39594  0.09493  0.71789  1.0000
  H   H1891     1.0  0.64560  0.26911  0.62867  1.0000
  H   H1892     1.0  0.48280  0.28812  0.67718  1.0000
  H   H1893     1.0  0.39402  0.14639  0.70363  1.0000
  C   C2378     1.0  0.49610  0.20934  0.68717  1.0000
  H   H1894     1.0  0.54050  0.20229  0.69145  1.0000
  H   H1895     1.0  0.48751  0.16898  0.72440  1.0000
  C   C2379     1.0  0.37900  0.13537  0.67107  1.0000
  H   H1896     1.0  0.53671  0.18391  0.63704  1.0000
  H   H1897     1.0  0.64596  0.20116  0.59613  1.0000
  C   C2380     1.0  0.53743  0.27913  0.72300  1.0000
  H   H1898     1.0  0.57031  0.20072  0.66754  1.0000
  C   C2381     1.0  0.59213  0.22466  0.60701  1.0000
  C   C2382     1.0  0.45661  0.08143  0.72061  1.0000
  H   H1899     1.0  0.51908  0.18668  0.68502  1.0000
  C   C2383     1.0  0.58095  0.25987  0.62553  1.0000
  C   C2384     1.0  0.46588  0.28495  0.72943  1.0000
  C   C2385     1.0  0.55810  0.21835  0.63457  1.0000
  C   C2386     1.0  0.64629  0.25908  0.65728  1.0000
  C   C2387     1.0  0.32993  0.11627  0.57636  1.0000
  C   C2388     1.0  0.35465  0.13836  0.69793  1.0000
  C   C2389     1.0  0.57343  0.27655  0.64999  1.0000
  H   H1900     1.0  0.47622  0.23426  0.68984  1.0000
  H   H1901     1.0  0.63179  0.26396  0.66187  1.0000
  C   C2390     1.0  0.55587  0.20111  0.63368  1.0000
  C   C2391     1.0  0.63492  0.34879  0.70343  1.0000
  C   C2392     1.0  0.60878  0.23064  0.60097  1.0000
  C   C2393     1.0  0.62090  0.18005  0.64876  1.0000
  C   C2394     1.0  0.32780  0.11205  0.69365  1.0000
  C   C2395     1.0  0.48371  0.28750  0.72129  1.0000
  H   H1902     1.0  0.36222  0.14543  0.71996  1.0000
  H   H1903     1.0  0.58778  0.21843  0.56625  1.0000
  H   H1904     1.0  0.36980  0.07395  0.70383  1.0000
  C   C2396     1.0  0.58460  0.22029  0.59433  1.0000
  Fe  Fe154     1.0  0.34028  0.16596  0.62992  1.0000
  H   H1905     1.0  0.57188  0.23174  0.66727  1.0000
  C   C2397     1.0  0.35077  0.11856  0.54078  1.0000
  H   H1906     1.0  0.35290  0.23502  0.59057  1.0000
  H   H1907     1.0  0.54371  0.24497  0.64063  1.0000
  C   C2398     1.0  0.64586  0.22222  0.63379  1.0000
  C   C2399     1.0  0.52070  0.22737  0.69366  1.0000
  C   C2400     1.0  0.36090  0.13511  0.68006  1.0000
  H   H1908     1.0  0.35860  0.12008  0.52685  1.0000
  H   H1909     1.0  0.37140  0.12409  0.55158  1.0000
  H   H1910     1.0  0.38342  0.13372  0.65697  1.0000
  C   C2401     1.0  0.34134  0.23642  0.58446  1.0000
  H   H1911     1.0  0.40410  0.10538  0.71254  1.0000
  C   C2402     1.0  0.52057  0.30908  0.71105  1.0000
  C   C2403     1.0  0.33241  0.25373  0.57664  1.0000
  P   P80       1.0  0.33081  0.13997  0.70903  1.0000
  C   C2404     1.0  0.57407  0.24395  0.65707  1.0000
  H   H1912     1.0  0.57998  0.28877  0.62138  1.0000
  S   S311      1.0  0.48163  0.19895  0.68047  1.0000
  C   C2405     1.0  0.54253  0.23169  0.63938  1.0000
  C   C2406     1.0  0.52648  0.20924  0.69127  1.0000
  C   C2407     1.0  0.55357  0.30178  0.70202  1.0000
  H   H1913     1.0  0.32246  0.08382  0.59538  1.0000
  H   H1914     1.0  0.40477  0.14024  0.67240  1.0000
  C   C2408     1.0  0.62907  0.36768  0.70230  1.0000
  H   H1915     1.0  0.35288  0.12207  0.58318  1.0000
  C   C2409     1.0  0.62891  0.22993  0.64367  1.0000
  H   H1916     1.0  0.63068  0.23670  0.57828  1.0000
  H   H1917     1.0  0.63518  0.17452  0.64385  1.0000
  Fe  Fe155     1.0  0.41341  0.19403  0.70489  1.0000
  C   C2410     1.0  0.59365  0.22182  0.57598  1.0000
  C   C2411     1.0  0.61024  0.22773  0.57015  1.0000
  C   C2412     1.0  0.32281  0.11337  0.56256  1.0000
  C   C2413     1.0  0.49016  0.22717  0.69037  1.0000
  C   C2414     1.0  0.55378  0.28429  0.71302  1.0000
  H   H1918     1.0  0.56769  0.19050  0.63037  1.0000
  S   S312      1.0  0.44067  0.17439  0.70296  1.0000
  C   C2415     1.0  0.50250  0.23625  0.69318  1.0000
  H   H1919     1.0  0.58691  0.17378  0.68612  1.0000
  H   H1920     1.0  0.65126  0.20572  0.56229  1.0000
  H   H1921     1.0  0.35375  0.10899  0.72908  1.0000
  C   C2416     1.0  0.39102  0.13907  0.67974  1.0000
  C   C2417     1.0  0.36685  0.14207  0.70654  1.0000
  C   C2418     1.0  0.46015  0.28529  0.69997  1.0000
  C   C2419     1.0  0.33830  0.36967  0.72394  1.0000
  S   S313      1.0  0.34127  0.14915  0.60946  1.0000
  H   H1922     1.0  0.44056  0.28137  0.72539  1.0000
  C   C2420     1.0  0.61200  0.17237  0.66609  1.0000
  H   H1923     1.0  0.57107  0.28928  0.65454  1.0000
  C   C2421     1.0  0.33531  0.22085  0.58446  1.0000
  H   H1924     1.0  0.53677  0.32776  0.69254  1.0000
  C   C2422     1.0  0.59333  0.20311  0.64470  1.0000
  H   H1925     1.0  0.34185  0.10609  0.69472  1.0000
  H   H1926     1.0  0.38888  0.09751  0.69197  1.0000
  S   S314      1.0  0.58533  0.23652  0.70458  1.0000
  C   C2423     1.0  0.59374  0.17978  0.67266  1.0000
  C   C2424     1.0  0.51432  0.20040  0.68765  1.0000
  H   H1927     1.0  0.34217  0.20738  0.59058  1.0000
  C   C2425     1.0  0.52509  0.22778  0.64324  1.0000
  H   H1928     1.0  0.51314  0.23785  0.64758  1.0000
  S   S315      1.0  0.53609  0.23990  0.69569  1.0000
  H   H1929     1.0  0.57174  0.21580  0.59846  1.0000
  H   H1930     1.0  0.50380  0.28928  0.69581  1.0000
  H   H1931     1.0  0.33022  0.06513  0.65402  1.0000
  P   P81       1.0  0.58087  0.22256  0.63090  1.0000
  S   S316      1.0  0.32924  0.10245  0.63847  1.0000
  C   C2426     1.0  0.61165  0.19534  0.63809  1.0000
  C   C2427     1.0  0.57841  0.27625  0.63136  1.0000
  H   H1932     1.0  0.50947  0.20754  0.64563  1.0000
  H   H1933     1.0  0.33994  0.21989  0.64919  1.0000
  S   S317      1.0  0.42613  0.21904  0.69706  1.0000
  H   H1934     1.0  0.32601  0.09132  0.68032  1.0000
  Fe  Fe156     1.0  0.55933  0.22600  0.71061  1.0000
  Fe  Fe157     1.0  0.32326  0.13334  0.63230  1.0000
  H   H1935     1.0  0.61907  0.20109  0.62493  1.0000
  H   H1936     1.0  0.61724  0.22889  0.55594  1.0000
  C   C2428     1.0  0.53839  0.19731  0.63744  1.0000
  C   C2429     1.0  0.35794  0.12094  0.55469  1.0000
  C   C2430     1.0  0.53695  0.31418  0.70101  1.0000
  C   C2431     1.0  0.32328  0.17361  0.71951  1.0000
  H   H1937     1.0  0.45118  0.28399  0.69185  1.0000
  C   C2432     1.0  0.38729  0.09056  0.70621  1.0000
  H   H1938     1.0  0.50218  0.19344  0.72596  1.0000
  H   H1939     1.0  0.33705  0.26582  0.57671  1.0000
  C   C2433     1.0  0.33326  0.11483  0.54466  1.0000
  H   H1940     1.0  0.35179  0.13302  0.67269  1.0000
  H   H1941     1.0  0.34560  0.47872  0.70207  1.0000
  H   H1942     1.0  0.51545  0.08926  0.72456  1.0000
  Fe  Fe158     1.0  0.32712  0.15801  0.48464  1.0000
  C   C2434     1.0  0.65405  0.26207  0.63862  1.0000
  H   H1943     1.0  0.50487  0.25209  0.72286  1.0000
  C   C2435     1.0  0.32862  0.23144  0.65097  1.0000
  H   H1944     1.0  0.64507  0.34355  0.69240  1.0000
  C   C2436     1.0  0.65011  0.19825  0.66064  1.0000
  S   S318      1.0  0.65361  0.23257  0.61080  1.0000
  H   H1945     1.0  0.63252  0.32204  0.71935  1.0000
  H   H1946     1.0  0.63466  0.37710  0.69040  1.0000
  H   H1947     1.0  0.36339  0.37204  0.72943  1.0000
  C   C2437     1.0  0.46621  0.08995  0.72792  1.0000
  C   C2438     1.0  0.43802  0.08170  0.72785  1.0000
  H   H1948     1.0  0.64041  0.20426  0.72455  1.0000
  C   C2439     1.0  0.37650  0.07732  0.71290  1.0000
  H   H1949     1.0  0.50777  0.31885  0.71037  1.0000
  H   H1950     1.0  0.32800  0.11323  0.53360  1.0000
  H   H1951     1.0  0.34158  0.37590  0.70957  1.0000
  C   C2440     1.0  0.52069  0.29147  0.72201  1.0000
  H   H1952     1.0  0.65080  0.24759  0.68439  1.0000
  H   H1953     1.0  0.48044  0.09026  0.72196  1.0000
  H   H1954     1.0  0.54999  0.34349  0.72624  1.0000
  C   C2441     1.0  0.62772  0.33660  0.71876  1.0000
  H   H1955     1.0  0.32468  0.23663  0.62339  1.0000
  H   H1956     1.0  0.32407  0.05202  0.61200  1.0000
  C   C2442     1.0  0.63564  0.27248  0.92719  1.0000
  Fe  Fe159     1.0  0.45335  0.07162  0.83795  1.0000
  S   S319      1.0  0.44647  0.05238  0.86448  1.0000
  S   S320      1.0  0.48198  0.07078  0.82209  1.0000
  Fe  Fe160     1.0  0.41447  0.09066  0.83810  1.0000
  S   S321      1.0  0.40386  0.07316  0.86497  1.0000
  S   S322      1.0  0.39738  0.11351  0.82122  1.0000
  Fe  Fe161     1.0  0.42780  0.07723  0.87389  1.0000
  S   S323      1.0  0.42878  0.07966  0.90226  1.0000
  Fe  Fe162     1.0  0.42340  0.04969  0.85341  1.0000
  S   S324      1.0  0.41559  0.02202  0.85915  1.0000
  S   S325      1.0  0.43667  0.09679  0.84800  1.0000
  S   S326      1.0  0.43200  0.06691  0.82587  1.0000
  Fe  Fe163     1.0  0.59126  0.05596  0.85669  1.0000
  S   S327      1.0  0.57360  0.07013  0.83615  1.0000
  Fe  Fe164     1.0  0.59266  0.09250  0.86575  1.0000
  S   S328      1.0  0.57455  0.10881  0.84623  1.0000
  S   S329      1.0  0.60227  0.11241  0.87655  1.0000
  Fe  Fe165     1.0  0.55805  0.08701  0.85705  1.0000
  S   S330      1.0  0.52747  0.09329  0.86685  1.0000
  Fe  Fe166     1.0  0.59184  0.09061  0.82728  1.0000
  S   S331      1.0  0.60338  0.10303  0.79826  1.0000
  S   S332      1.0  0.57463  0.07196  0.87820  1.0000
  S   S333      1.0  0.61103  0.07519  0.84607  1.0000
  H   H1957     1.0  0.44285  0.00294  0.79997  1.0000
  S   S334      1.0  0.42529  0.23066  0.94312  1.0000
  C   C2443     1.0  0.34960  0.35324  0.79217  1.0000
  Fe  Fe167     1.0  0.61047  0.17990  0.95729  1.0000
  C   C2444     1.0  0.62499  0.27685  0.74138  1.0000
  S   S335      1.0  0.63075  0.19578  0.93775  1.0000
  C   C2445     1.0  0.38151  0.18260  0.79348  1.0000
  C   C2446     1.0  0.51666  0.12546  0.96135  1.0000
  C   C2447     1.0  0.46924  0.32680  0.76241  1.0000
  S   S336      1.0  0.59016  0.17236  0.94590  1.0000
  C   C2448     1.0  0.33173  0.45430  0.92084  1.0000
  C   C2449     1.0  0.33998  0.29345  0.86716  1.0000
  H   H1958     1.0  0.36816  0.45808  0.85193  1.0000
  H   H1959     1.0  0.36815  0.15927  0.95664  1.0000
  Fe  Fe168     1.0  0.56971  0.19737  0.74346  1.0000
  S   S337      1.0  0.55544  0.17868  0.76696  1.0000
  Fe  Fe169     1.0  0.59951  0.27768  0.86202  1.0000
  S   S338      1.0  0.62854  0.27313  0.84639  1.0000
  S   S339      1.0  0.58840  0.26651  0.89160  1.0000
  Fe  Fe170     1.0  0.58403  0.30086  0.82933  1.0000
  S   S340      1.0  0.61196  0.29890  0.81107  1.0000
  S   S341      1.0  0.55870  0.31517  0.81754  1.0000
  Fe  Fe171     1.0  0.61642  0.26921  0.82441  1.0000
  S   S342      1.0  0.62749  0.24711  0.80772  1.0000
  Fe  Fe172     1.0  0.62194  0.30344  0.83432  1.0000
  H   H1960     1.0  0.49381  0.06182  0.94282  1.0000
  S   S343      1.0  0.58812  0.27084  0.84126  1.0000
  S   S344      1.0  0.59340  0.30822  0.85135  1.0000
  C   C2450     1.0  0.62968  0.16113  0.89086  1.0000
  C   C2451     1.0  0.51300  0.14481  0.75623  1.0000
  H   H1961     1.0  0.54511  0.04473  0.80990  1.0000
  C   C2452     1.0  0.41731  0.98956  0.84997  1.0000
  Fe  Fe173     1.0  0.46349  0.28607  0.83664  1.0000
  S   S345      1.0  0.45415  0.26173  0.83411  1.0000
  S   S346      1.0  0.48826  0.27961  0.84951  1.0000
  Fe  Fe174     1.0  0.43208  0.31287  0.82077  1.0000
  S   S347      1.0  0.42031  0.29071  0.81700  1.0000
  S   S348      1.0  0.42111  0.34285  0.81015  1.0000
  Fe  Fe175     1.0  0.42603  0.27643  0.84483  1.0000
  S   S349      1.0  0.40644  0.25976  0.86442  1.0000
  Fe  Fe176     1.0  0.44928  0.27780  0.80664  1.0000
  S   S350      1.0  0.46025  0.26415  0.78239  1.0000
  S   S351      1.0  0.43541  0.29971  0.84963  1.0000
  S   S352      1.0  0.46097  0.30098  0.80819  1.0000
  H   H1962     1.0  0.58358  0.12247  0.74172  1.0000
  H   H1963     1.0  0.55811  0.02574  0.86320  1.0000
  S   S353      1.0  0.44922  0.14722  0.74980  1.0000
  H   H1964     1.0  0.54834  0.01178  0.94046  1.0000
  S   S354      1.0  0.59686  0.02491  0.86646  1.0000
  C   C2453     1.0  0.59664  0.00972  0.85275  1.0000
  C   C2454     1.0  0.32379  0.11077  0.76967  1.0000
  H   H1965     1.0  0.51654  0.29380  0.76133  1.0000
  H   H1966     1.0  0.65158  0.30936  0.96652  1.0000
  C   C2455     1.0  0.48290  0.00636  0.84947  1.0000
  C   C2456     1.0  0.44637  0.25747  0.77143  1.0000
  C   C2457     1.0  0.42744  0.26377  0.77445  1.0000
  C   C2458     1.0  0.41696  0.25848  0.76500  1.0000
  C   C2459     1.0  0.42538  0.24706  0.75237  1.0000
  C   C2460     1.0  0.44436  0.24124  0.74899  1.0000
  C   C2461     1.0  0.45478  0.24627  0.75863  1.0000
  H   H1967     1.0  0.42088  0.27271  0.78401  1.0000
  H   H1968     1.0  0.40227  0.26313  0.76759  1.0000
  C   C2462     1.0  0.64125  0.12930  0.90407  1.0000
  S   S355      1.0  0.34094  0.38074  0.84469  1.0000
  C   C2463     1.0  0.36272  0.37004  0.83394  1.0000
  C   C2464     1.0  0.36840  0.35091  0.83823  1.0000
  C   C2465     1.0  0.38626  0.34238  0.83092  1.0000
  C   C2466     1.0  0.39849  0.35294  0.81926  1.0000
  C   C2467     1.0  0.39264  0.37199  0.81456  1.0000
  C   C2468     1.0  0.37484  0.38051  0.82186  1.0000
  H   H1969     1.0  0.35909  0.34268  0.84740  1.0000
  H   H1970     1.0  0.39064  0.32768  0.83436  1.0000
  H   H1971     1.0  0.40202  0.38023  0.80548  1.0000
  H   H1972     1.0  0.37072  0.39525  0.81859  1.0000
  C   C2469     1.0  0.32620  0.36251  0.81765  1.0000
  C   C2470     1.0  0.43378  0.17007  0.79649  1.0000
  C   C2471     1.0  0.53896  0.30552  0.82655  1.0000
  C   C2472     1.0  0.53820  0.29132  0.84200  1.0000
  C   C2473     1.0  0.52251  0.28372  0.84889  1.0000
  C   C2474     1.0  0.50739  0.29015  0.84044  1.0000
  C   C2475     1.0  0.50796  0.30456  0.82512  1.0000
  C   C2476     1.0  0.52372  0.31219  0.81819  1.0000
  H   H1973     1.0  0.54958  0.28634  0.84885  1.0000
  H   H1974     1.0  0.52207  0.27285  0.86094  1.0000
  H   H1975     1.0  0.49629  0.30974  0.81863  1.0000
  H   H1976     1.0  0.52412  0.32331  0.80636  1.0000
  C   C2477     1.0  0.54966  0.11735  0.95675  1.0000
  C   C2478     1.0  0.50060  0.14867  0.74458  1.0000
  C   C2479     1.0  0.41397  0.24294  0.81634  1.0000
  C   C2480     1.0  0.43585  0.20133  0.78154  1.0000
  C   C2481     1.0  0.33580  0.47790  0.88440  1.0000
  C   C2482     1.0  0.59349  0.25280  0.76519  1.0000
  C   C2483     1.0  0.60777  0.23762  0.76775  1.0000
  C   C2484     1.0  0.61797  0.23571  0.78108  1.0000
  C   C2485     1.0  0.61372  0.24877  0.79209  1.0000
  C   C2486     1.0  0.59900  0.26352  0.78996  1.0000
  C   C2487     1.0  0.58905  0.26557  0.77646  1.0000
  H   H1977     1.0  0.61135  0.22776  0.75902  1.0000
  H   H1978     1.0  0.62939  0.22432  0.78262  1.0000
  H   H1979     1.0  0.59554  0.27365  0.79838  1.0000
  H   H1980     1.0  0.57803  0.27725  0.77451  1.0000
  C   C2488     1.0  0.61913  0.21500  0.92424  1.0000
  C   C2489     1.0  0.62867  0.22463  0.90822  1.0000
  C   C2490     1.0  0.61936  0.24027  0.89774  1.0000
  C   C2491     1.0  0.60060  0.24654  0.90359  1.0000
  C   C2492     1.0  0.59119  0.23699  0.91968  1.0000
  C   C2493     1.0  0.60035  0.22112  0.92981  1.0000
  H   H1981     1.0  0.57669  0.24178  0.92426  1.0000
  H   H1982     1.0  0.59286  0.21384  0.94213  1.0000
  C   C2494     1.0  0.41930  0.23918  0.92163  1.0000
  C   C2495     1.0  0.41227  0.22846  0.91414  1.0000
  C   C2496     1.0  0.40779  0.23517  0.89683  1.0000
  C   C2497     1.0  0.41122  0.25217  0.88651  1.0000
  C   C2498     1.0  0.41832  0.26290  0.89397  1.0000
  C   C2499     1.0  0.42196  0.25658  0.91170  1.0000
  H   H1983     1.0  0.41038  0.21497  0.92170  1.0000
  H   H1984     1.0  0.40227  0.22688  0.89118  1.0000
  H   H1985     1.0  0.42096  0.27605  0.88614  1.0000
  H   H1986     1.0  0.42749  0.26487  0.91743  1.0000
  C   C2500     1.0  0.59026  0.12440  0.79001  1.0000
  C   C2501     1.0  0.59793  0.13599  0.77434  1.0000
  C   C2502     1.0  0.58741  0.15284  0.76725  1.0000
  C   C2503     1.0  0.56915  0.15801  0.77574  1.0000
  C   C2504     1.0  0.56148  0.14642  0.79136  1.0000
  C   C2505     1.0  0.57199  0.12963  0.79847  1.0000
  H   H1987     1.0  0.61201  0.13190  0.76768  1.0000
  H   H1988     1.0  0.59337  0.16172  0.75513  1.0000
  H   H1989     1.0  0.54737  0.15038  0.79790  1.0000
  H   H1990     1.0  0.56583  0.12053  0.81021  1.0000
  C   C2506     1.0  0.60009  0.11316  0.89965  1.0000
  C   C2507     1.0  0.59690  0.13025  0.90437  1.0000
  C   C2508     1.0  0.59639  0.13148  0.92232  1.0000
  C   C2509     1.0  0.59957  0.11560  0.93562  1.0000
  C   C2510     1.0  0.60275  0.09845  0.93095  1.0000
  C   C2511     1.0  0.60313  0.09725  0.91297  1.0000
  H   H1991     1.0  0.59522  0.14259  0.89397  1.0000
  H   H1992     1.0  0.59406  0.14469  0.92574  1.0000
  H   H1993     1.0  0.35271  0.14187  0.76846  1.0000
  H   H1994     1.0  0.60656  0.08407  0.90917  1.0000
  C   C2512     1.0  0.41163  0.12294  0.80128  1.0000
  C   C2513     1.0  0.40424  0.13770  0.78863  1.0000
  C   C2514     1.0  0.41569  0.14562  0.77294  1.0000
  C   C2515     1.0  0.43444  0.13825  0.76952  1.0000
  C   C2516     1.0  0.44173  0.12321  0.78197  1.0000
  C   C2517     1.0  0.43041  0.11573  0.79791  1.0000
  H   H1995     1.0  0.38967  0.14299  0.79102  1.0000
  H   H1996     1.0  0.41000  0.15729  0.76345  1.0000
  H   H1997     1.0  0.45618  0.11730  0.77929  1.0000
  H   H1998     1.0  0.43626  0.10431  0.80752  1.0000
  C   C2518     1.0  0.42708  0.10124  0.90707  1.0000
  C   C2519     1.0  0.41987  0.11738  0.89588  1.0000
  C   C2520     1.0  0.41718  0.13427  0.90094  1.0000
  C   C2521     1.0  0.43220  0.10219  0.92294  1.0000
  H   H1999     1.0  0.41567  0.11674  0.88377  1.0000
  H   H2000     1.0  0.41076  0.14659  0.89281  1.0000
  H   H2001     1.0  0.43737  0.08966  0.93183  1.0000
  C   C2522     1.0  0.49428  0.07815  0.83406  1.0000
  C   C2523     1.0  0.48623  0.08204  0.85141  1.0000
  C   C2524     1.0  0.49644  0.08709  0.86123  1.0000
  C   C2525     1.0  0.51486  0.08767  0.85397  1.0000
  C   C2526     1.0  0.52285  0.08403  0.83654  1.0000
  C   C2527     1.0  0.51245  0.07958  0.82648  1.0000
  H   H2002     1.0  0.47225  0.08086  0.85745  1.0000
  H   H2003     1.0  0.49019  0.09000  0.87469  1.0000
  H   H2004     1.0  0.53693  0.08489  0.83068  1.0000
  H   H2005     1.0  0.51867  0.07661  0.81309  1.0000
  C   C2528     1.0  0.35496  0.39674  0.75770  1.0000
  H   H2006     1.0  0.35321  0.28127  0.84367  1.0000
  C   C2529     1.0  0.53496  0.04372  0.89613  1.0000
  C   C2530     1.0  0.42201  0.00684  0.84381  1.0000
  C   C2531     1.0  0.43141  0.01155  0.82576  1.0000
  C   C2532     1.0  0.43577  0.99914  0.81394  1.0000
  C   C2533     1.0  0.50843  0.23778  0.77381  1.0000
  H   H2007     1.0  0.33670  0.45950  0.76037  1.0000
  H   H2008     1.0  0.43510  0.02482  0.82091  1.0000
  C   C2534     1.0  0.39658  0.25418  0.81879  1.0000
  P   P82       1.0  0.60512  0.32796  0.75315  1.0000
  C   C2535     1.0  0.58192  0.32750  0.75303  1.0000
  C   C2536     1.0  0.60627  0.33635  0.77259  1.0000
  C   C2537     1.0  0.59071  0.34032  0.78620  1.0000
  C   C2538     1.0  0.59206  0.34633  0.80133  1.0000
  C   C2539     1.0  0.60886  0.34879  0.80282  1.0000
  C   C2540     1.0  0.62425  0.34558  0.78901  1.0000
  C   C2541     1.0  0.62295  0.33952  0.77389  1.0000
  H   H2009     1.0  0.50686  0.31681  0.78101  1.0000
  S   S356      1.0  0.55412  0.22628  0.74037  1.0000
  C   C2542     1.0  0.63566  0.14264  0.88939  1.0000
  C   C2543     1.0  0.55473  0.31474  0.76698  1.0000
  C   C2544     1.0  0.57233  0.31602  0.76733  1.0000
  C   C2545     1.0  0.45735  0.09832  0.74277  1.0000
  C   C2546     1.0  0.53344  0.11668  0.95215  1.0000
  H   H2010     1.0  0.51898  0.01248  0.78892  1.0000
  C   C2547     1.0  0.38881  0.19781  0.79236  1.0000
  H   H2011     1.0  0.57751  0.33852  0.78555  1.0000
  H   H2012     1.0  0.58014  0.34851  0.81218  1.0000
  H   H2013     1.0  0.61006  0.35277  0.81489  1.0000
  S   S357      1.0  0.32328  0.43485  0.83782  1.0000
  P   P83       1.0  0.36211  0.31749  0.89546  1.0000
  H   H2014     1.0  0.63352  0.30384  0.77330  1.0000
  H   H2015     1.0  0.54742  0.30598  0.77822  1.0000
  H   H2016     1.0  0.57847  0.30806  0.77884  1.0000
  C   C2548     1.0  0.35470  0.28861  0.85324  1.0000
  C   C2549     1.0  0.47451  0.31372  0.75140  1.0000
  C   C2550     1.0  0.59956  0.20985  0.82602  1.0000
  C   C2551     1.0  0.60680  0.19895  0.81290  1.0000
  C   C2552     1.0  0.59527  0.19148  0.80695  1.0000
  C   C2553     1.0  0.57647  0.19502  0.81399  1.0000
  C   C2554     1.0  0.56907  0.20592  0.82725  1.0000
  C   C2555     1.0  0.58083  0.21307  0.83341  1.0000
  P   P84       1.0  0.54465  0.21284  0.83467  1.0000
  C   C2556     1.0  0.53311  0.19720  0.83027  1.0000
  C   C2557     1.0  0.53978  0.21293  0.85885  1.0000
  C   C2558     1.0  0.52984  0.22870  0.86549  1.0000
  C   C2559     1.0  0.52448  0.22805  0.88433  1.0000
  C   C2560     1.0  0.52907  0.21169  0.89667  1.0000
  C   C2561     1.0  0.53960  0.19615  0.89016  1.0000
  C   C2562     1.0  0.54536  0.19689  0.87132  1.0000
  C   C2563     1.0  0.52540  0.18410  0.84445  1.0000
  C   C2564     1.0  0.51784  0.17133  0.84043  1.0000
  C   C2565     1.0  0.51746  0.17183  0.82236  1.0000
  C   C2566     1.0  0.52421  0.18530  0.80832  1.0000
  C   C2567     1.0  0.53206  0.19791  0.81219  1.0000
  C   C2568     1.0  0.53715  0.23553  0.82176  1.0000
  C   C2569     1.0  0.51919  0.24103  0.81881  1.0000
  C   C2570     1.0  0.51298  0.25878  0.80958  1.0000
  C   C2571     1.0  0.52477  0.27106  0.80292  1.0000
  C   C2572     1.0  0.54263  0.26578  0.80581  1.0000
  C   C2573     1.0  0.54883  0.24810  0.81518  1.0000
  H   H2017     1.0  0.60837  0.21631  0.83006  1.0000
  H   H2018     1.0  0.62130  0.19657  0.80710  1.0000
  H   H2019     1.0  0.60084  0.18314  0.79665  1.0000
  H   H2020     1.0  0.56794  0.18931  0.80878  1.0000
  H   H2021     1.0  0.57544  0.22184  0.84333  1.0000
  H   H2022     1.0  0.52585  0.24146  0.85622  1.0000
  H   H2023     1.0  0.51652  0.24019  0.88937  1.0000
  H   H2024     1.0  0.52458  0.21106  0.91129  1.0000
  H   H2025     1.0  0.54318  0.18353  0.89979  1.0000
  H   H2026     1.0  0.55347  0.18474  0.86646  1.0000
  H   H2027     1.0  0.52514  0.18348  0.85860  1.0000
  H   H2028     1.0  0.51246  0.16089  0.85130  1.0000
  H   H2029     1.0  0.51196  0.16179  0.81916  1.0000
  H   H2030     1.0  0.52388  0.18560  0.79433  1.0000
  H   H2031     1.0  0.53785  0.20785  0.80096  1.0000
  H   H2032     1.0  0.50985  0.23172  0.82379  1.0000
  H   H2033     1.0  0.49891  0.26313  0.80793  1.0000
  H   H2034     1.0  0.51989  0.28487  0.79604  1.0000
  H   H2035     1.0  0.55159  0.27550  0.80122  1.0000
  H   H2036     1.0  0.56268  0.24455  0.81731  1.0000
  C   C2574     1.0  0.33040  0.34376  0.89084  1.0000
  C   C2575     1.0  0.53385  0.02520  0.90003  1.0000
  H   H2037     1.0  0.35917  0.22985  0.91113  1.0000
  C   C2576     1.0  0.49695  0.16610  0.73352  1.0000
  H   H2038     1.0  0.63508  0.33679  0.76346  1.0000
  C   C2577     1.0  0.52299  0.03751  0.83187  1.0000
  C   C2578     1.0  0.53089  0.99296  0.88645  1.0000
  H   H2039     1.0  0.36402  0.16400  0.85905  1.0000
  H   H2040     1.0  0.62426  0.33304  0.91057  1.0000
  H   H2041     1.0  0.59592  0.35203  0.90173  1.0000
  H   H2042     1.0  0.45102  0.23284  0.73894  1.0000
  C   C2579     1.0  0.50665  0.12461  0.79327  1.0000
  C   C2580     1.0  0.48783  0.12499  0.79848  1.0000
  C   C2581     1.0  0.47857  0.12605  0.81639  1.0000
  C   C2582     1.0  0.48803  0.12705  0.82915  1.0000
  C   C2583     1.0  0.50666  0.12727  0.82393  1.0000
  C   C2584     1.0  0.51595  0.12621  0.80601  1.0000
  H   H2043     1.0  0.54017  0.09321  0.79309  1.0000
  H   H2044     1.0  0.57344  0.08190  0.79070  1.0000
  H   H2045     1.0  0.48047  0.12381  0.78881  1.0000
  H   H2046     1.0  0.46420  0.12544  0.82052  1.0000
  H   H2047     1.0  0.48107  0.12705  0.84321  1.0000
  H   H2048     1.0  0.51410  0.12749  0.83401  1.0000
  H   H2049     1.0  0.53043  0.12615  0.80233  1.0000
  H   H2050     1.0  0.46185  0.04692  0.76437  1.0000
  H   H2051     1.0  0.43200  0.10517  0.76144  1.0000
  C   C2585     1.0  0.53844  0.01377  0.91622  1.0000
  H   H2052     1.0  0.32751  0.41482  0.95252  1.0000
  H   H2053     1.0  0.63524  0.15654  0.93430  1.0000
  H   H2054     1.0  0.65044  0.27236  0.77279  1.0000
  P   P85       1.0  0.36146  0.35864  0.76874  1.0000
  H   H2055     1.0  0.41048  0.11382  0.97175  1.0000
  C   C2586     1.0  0.36696  0.38099  0.76474  1.0000
  H   H2056     1.0  0.41565  0.12765  0.73216  1.0000
  H   H2057     1.0  0.64491  0.12388  0.93182  1.0000
  C   C2587     1.0  0.37452  0.41600  0.75935  1.0000
  C   C2588     1.0  0.38641  0.40048  0.76663  1.0000
  C   C2589     1.0  0.38270  0.38306  0.76929  1.0000
  C   C2590     1.0  0.59402  0.15801  0.84590  1.0000
  H   H2058     1.0  0.50042  0.09160  0.79034  1.0000
  C   C2591     1.0  0.38214  0.34134  0.76491  1.0000
  H   H2059     1.0  0.36055  0.32401  0.79559  1.0000
  C   C2592     1.0  0.62954  0.16595  0.90724  1.0000
  C   C2593     1.0  0.49149  0.30147  0.75108  1.0000
  H   H2060     1.0  0.64343  0.19594  0.88616  1.0000
  C   C2594     1.0  0.54946  0.09964  0.78175  1.0000
  H   H2061     1.0  0.34223  0.31656  0.82660  1.0000
  C   C2595     1.0  0.40226  0.31918  0.74731  1.0000
  C   C2596     1.0  0.46234  0.03608  0.90903  1.0000
  H   H2062     1.0  0.38948  0.26050  0.95115  1.0000
  H   H2063     1.0  0.38870  0.18377  0.94339  1.0000
  C   C2597     1.0  0.64658  0.19939  0.87140  1.0000
  C   C2598     1.0  0.64852  0.34360  0.86780  1.0000
  H   H2064     1.0  0.39202  0.37143  0.77523  1.0000
  C   C2599     1.0  0.39219  0.15576  0.86150  1.0000
  H   H2065     1.0  0.61088  0.28565  0.90117  1.0000
  C   C2600     1.0  0.50568  0.24829  0.73713  1.0000
  H   H2066     1.0  0.50580  0.20915  0.96270  1.0000
  C   C2601     1.0  0.57401  0.11592  0.75270  1.0000
  C   C2602     1.0  0.35130  0.33496  0.80173  1.0000
  H   H2067     1.0  0.38059  0.06621  0.75735  1.0000
  H   H2068     1.0  0.46598  0.06262  0.89281  1.0000
  H   H2069     1.0  0.63641  0.19294  0.83341  1.0000
  H   H2070     1.0  0.56735  0.03713  0.82998  1.0000
  H   H2071     1.0  0.39971  0.04477  0.82147  1.0000
  P   P86       1.0  0.49950  0.28559  0.73569  1.0000
  C   C2603     1.0  0.55278  0.07338  0.95494  1.0000
  H   H2072     1.0  0.46041  0.20472  0.76134  1.0000
  C   C2604     1.0  0.39367  0.11612  0.75170  1.0000
  H   H2073     1.0  0.35791  0.46460  0.73034  1.0000
  C   C2605     1.0  0.64098  0.27883  0.76369  1.0000
  H   H2074     1.0  0.58048  0.23905  0.87523  1.0000
  C   C2606     1.0  0.48377  0.00909  0.80121  1.0000
  C   C2607     1.0  0.62693  0.23975  0.94977  1.0000
  C   C2608     1.0  0.33682  0.36699  0.80018  1.0000
  S   S358      1.0  0.41186  0.23996  0.74136  1.0000
  S   S359      1.0  0.35478  0.46504  0.79751  1.0000
  P   P87       1.0  0.49460  0.99181  0.81809  1.0000
  C   C2609     1.0  0.40993  0.15868  0.85402  1.0000
  C   C2610     1.0  0.48572  0.00594  0.78362  1.0000
  C   C2611     1.0  0.47776  0.01948  0.77040  1.0000
  C   C2612     1.0  0.46806  0.03639  0.77455  1.0000
  C   C2613     1.0  0.46642  0.03978  0.79187  1.0000
  C   C2614     1.0  0.47421  0.02621  0.80517  1.0000
  H   H2075     1.0  0.54120  0.06508  0.90525  1.0000
  S   S360      1.0  0.54177  0.19684  0.97073  1.0000
  H   H2076     1.0  0.63534  0.13817  0.87734  1.0000
  H   H2077     1.0  0.49353  0.99308  0.78010  1.0000
  C   C2615     1.0  0.65097  0.33285  0.84004  1.0000
  Fe  Fe177     1.0  0.32908  0.40821  0.82840  1.0000
  P   P88       1.0  0.52357  0.01717  0.88597  1.0000
  H   H2078     1.0  0.38962  0.14534  0.87374  1.0000
  C   C2616     1.0  0.51694  0.99601  0.81645  1.0000
  H   H2079     1.0  0.47349  0.01857  0.87325  1.0000
  H   H2080     1.0  0.62453  0.17997  0.90904  1.0000
  H   H2081     1.0  0.45667  0.14950  0.78787  1.0000
  C   C2617     1.0  0.56662  0.05779  0.95746  1.0000
  Fe  Fe178     1.0  0.33414  0.44676  0.80843  1.0000
  C   C2618     1.0  0.37679  0.19473  0.94268  1.0000
  H   H2082     1.0  0.55016  0.04452  0.93342  1.0000
  H   H2083     1.0  0.45910  0.05295  0.79506  1.0000
  H   H2084     1.0  0.47272  0.02926  0.81846  1.0000
  C   C2619     1.0  0.64824  0.25580  0.92649  1.0000
  H   H2085     1.0  0.38452  0.17015  0.80350  1.0000
  C   C2620     1.0  0.36648  0.13867  0.76064  1.0000
  C   C2621     1.0  0.40545  0.18706  0.88271  1.0000
  C   C2622     1.0  0.39548  0.20238  0.87284  1.0000
  C   C2623     1.0  0.40460  0.21484  0.85958  1.0000
  C   C2624     1.0  0.42369  0.21167  0.85575  1.0000
  C   C2625     1.0  0.43387  0.19579  0.86488  1.0000
  C   C2626     1.0  0.42456  0.18384  0.87888  1.0000
  P   P89       1.0  0.45856  0.19180  0.85939  1.0000
  C   C2627     1.0  0.46866  0.16941  0.87119  1.0000
  C   C2628     1.0  0.46585  0.19385  0.83480  1.0000
  C   C2629     1.0  0.47213  0.17826  0.82691  1.0000
  C   C2630     1.0  0.47860  0.18004  0.80803  1.0000
  C   C2631     1.0  0.47893  0.19736  0.79685  1.0000
  C   C2632     1.0  0.47219  0.21296  0.80443  1.0000
  C   C2633     1.0  0.46555  0.21125  0.82327  1.0000
  C   C2634     1.0  0.48236  0.16753  0.88089  1.0000
  C   C2635     1.0  0.49086  0.15017  0.88908  1.0000
  C   C2636     1.0  0.48576  0.13453  0.88772  1.0000
  C   C2637     1.0  0.47163  0.13627  0.87881  1.0000
  C   C2638     1.0  0.46314  0.15361  0.87054  1.0000
  C   C2639     1.0  0.46537  0.20921  0.86644  1.0000
  C   C2640     1.0  0.45541  0.21548  0.88234  1.0000
  C   C2641     1.0  0.46091  0.22852  0.88824  1.0000
  C   C2642     1.0  0.47585  0.23602  0.87789  1.0000
  C   C2643     1.0  0.48580  0.22990  0.86203  1.0000
  C   C2644     1.0  0.48097  0.21615  0.85657  1.0000
  H   H2086     1.0  0.39837  0.17782  0.89360  1.0000
  H   H2087     1.0  0.38070  0.20492  0.87592  1.0000
  H   H2088     1.0  0.39686  0.22734  0.85276  1.0000
  H   H2089     1.0  0.43046  0.22191  0.84606  1.0000
  H   H2090     1.0  0.43190  0.17222  0.88713  1.0000
  H   H2091     1.0  0.47247  0.16468  0.83516  1.0000
  H   H2092     1.0  0.48364  0.16794  0.80208  1.0000
  H   H2093     1.0  0.48422  0.19874  0.78226  1.0000
  H   H2094     1.0  0.47218  0.22640  0.79567  1.0000
  H   H2095     1.0  0.46054  0.22355  0.82882  1.0000
  H   H2096     1.0  0.48664  0.17937  0.88219  1.0000
  H   H2097     1.0  0.50139  0.14891  0.89656  1.0000
  H   H2098     1.0  0.49264  0.12103  0.89368  1.0000
  H   H2099     1.0  0.46727  0.12413  0.87834  1.0000
  H   H2100     1.0  0.45228  0.15468  0.86360  1.0000
  H   H2101     1.0  0.44348  0.21018  0.89030  1.0000
  H   H2102     1.0  0.45358  0.23289  0.90081  1.0000
  H   H2103     1.0  0.47968  0.24666  0.88209  1.0000
  H   H2104     1.0  0.49712  0.23607  0.85400  1.0000
  H   H2105     1.0  0.48925  0.21117  0.84457  1.0000
  H   H2106     1.0  0.50285  0.26646  0.77377  1.0000
  H   H2107     1.0  0.53319  0.32343  0.75174  1.0000
  H   H2108     1.0  0.42616  0.32556  0.87541  1.0000
  H   H2109     1.0  0.51391  0.21008  0.76984  1.0000
  C   C2645     1.0  0.49088  0.04240  0.88956  1.0000
  H   H2110     1.0  0.47671  0.33795  0.78169  1.0000
  H   H2111     1.0  0.42652  0.30392  0.75739  1.0000
  C   C2646     1.0  0.61433  0.25626  0.95057  1.0000
  C   C2647     1.0  0.55540  0.14328  0.89226  1.0000
  C   C2648     1.0  0.61490  0.29461  0.74195  1.0000
  H   H2112     1.0  0.38293  0.28933  0.84110  1.0000
  H   H2113     1.0  0.34946  0.09300  0.76152  1.0000
  H   H2114     1.0  0.47915  0.01687  0.75694  1.0000
  C   C2649     1.0  0.54858  0.14189  0.87771  1.0000
  H   H2115     1.0  0.55183  0.15048  0.86436  1.0000
  H   H2116     1.0  0.56405  0.15294  0.89020  1.0000
  H   H2117     1.0  0.39483  0.26766  0.82146  1.0000
  H   H2118     1.0  0.45595  0.33593  0.76297  1.0000
  H   H2119     1.0  0.34229  0.39578  0.75480  1.0000
  C   C2650     1.0  0.34625  0.35976  0.75397  1.0000
  C   C2651     1.0  0.37614  0.26719  0.92831  1.0000
  C   C2652     1.0  0.55227  0.00111  0.81346  1.0000
  C   C2653     1.0  0.49792  0.31598  0.77262  1.0000
  H   H2120     1.0  0.52394  0.18679  0.74676  1.0000
  C   C2654     1.0  0.45108  0.16396  0.78649  1.0000
  C   C2655     1.0  0.40170  0.12682  0.97392  1.0000
  H   H2121     1.0  0.56174  0.12789  0.97296  1.0000
  S   S361      1.0  0.34220  0.41961  0.79974  1.0000
  C   C2656     1.0  0.59370  0.99198  0.86119  1.0000
  H   H2122     1.0  0.36436  0.27729  0.90456  1.0000
  H   H2123     1.0  0.33567  0.34486  0.87625  1.0000
  C   C2657     1.0  0.42892  0.09067  0.74235  1.0000
  C   C2658     1.0  0.40879  0.05852  0.77505  1.0000
  C   C2659     1.0  0.35883  0.41411  0.75484  1.0000
  H   H2124     1.0  0.42112  0.15058  0.86048  1.0000
  C   C2660     1.0  0.64109  0.13428  0.92026  1.0000
  C   C2661     1.0  0.61790  0.30474  0.75328  1.0000
  H   H2125     1.0  0.39297  0.09926  0.78913  1.0000
  C   C2662     1.0  0.39906  0.18163  0.82900  1.0000
  H   H2126     1.0  0.60868  0.28523  0.94015  1.0000
  H   H2127     1.0  0.44795  0.04082  0.91445  1.0000
  Fe  Fe179     1.0  0.59662  0.14483  0.96420  1.0000
  H   H2128     1.0  0.60195  0.02844  0.82701  1.0000
  C   C2663     1.0  0.61537  0.32665  0.90664  1.0000
  C   C2664     1.0  0.35106  0.42721  0.94489  1.0000
  H   H2129     1.0  0.55357  0.16785  0.95024  1.0000
  C   C2665     1.0  0.54810  0.02927  0.85463  1.0000
  C   C2666     1.0  0.40054  0.05387  0.80810  1.0000
  C   C2667     1.0  0.59813  0.21263  0.87363  1.0000
  H   H2130     1.0  0.59861  0.36769  0.74282  1.0000
  S   S362      1.0  0.44983  0.18578  0.92452  1.0000
  H   H2131     1.0  0.62673  0.24767  0.88540  1.0000
  H   H2132     1.0  0.53712  0.15596  0.93381  1.0000
  H   H2133     1.0  0.49596  0.99784  0.91218  1.0000
  C   C2668     1.0  0.51064  0.22446  0.76366  1.0000
  C   C2669     1.0  0.37490  0.21387  0.76627  1.0000
  C   C2670     1.0  0.39508  0.07281  0.80679  1.0000
  H   H2134     1.0  0.41804  0.35832  0.86089  1.0000
  H   H2135     1.0  0.41206  0.03205  0.79335  1.0000
  C   C2671     1.0  0.53036  0.16769  0.93986  1.0000
  C   C2672     1.0  0.53969  0.17447  0.94919  1.0000
  C   C2673     1.0  0.43020  0.11920  0.92759  1.0000
  H   H2136     1.0  0.38772  0.12935  0.95237  1.0000
  S   S363      1.0  0.49983  0.16478  0.93009  1.0000
  C   C2674     1.0  0.38635  0.33268  0.74995  1.0000
  C   C2675     1.0  0.34080  0.33062  0.81928  1.0000
  Fe  Fe180     1.0  0.43603  0.20010  0.94775  1.0000
  C   C2676     1.0  0.51197  0.17525  0.93946  1.0000
  C   C2677     1.0  0.42234  0.13528  0.91672  1.0000
  H   H2137     1.0  0.59511  0.09625  0.76495  1.0000
  H   H2138     1.0  0.35562  0.46647  0.91337  1.0000
  C   C2678     1.0  0.56826  0.09301  0.78030  1.0000
  H   H2139     1.0  0.52318  0.11388  0.73441  1.0000
  H   H2140     1.0  0.50944  0.23366  0.78804  1.0000
  H   H2141     1.0  0.62986  0.32875  0.86409  1.0000
  C   C2679     1.0  0.59916  0.33751  0.90176  1.0000
  H   H2142     1.0  0.36573  0.05841  0.73655  1.0000
  S   S364      1.0  0.59999  0.11682  0.95802  1.0000
  H   H2143     1.0  0.64324  0.22007  0.90401  1.0000
  C   C2680     1.0  0.35961  0.46869  0.85905  1.0000
  Fe  Fe181     1.0  0.46972  0.17021  0.94237  1.0000
  C   C2681     1.0  0.38145  0.24794  0.81796  1.0000
  H   H2144     1.0  0.36799  0.25667  0.81986  1.0000
  P   P90       1.0  0.40472  0.09250  0.75125  1.0000
  C   C2682     1.0  0.39396  0.33595  0.77732  1.0000
  C   C2683     1.0  0.48094  0.99346  0.84061  1.0000
  C   C2684     1.0  0.57100  0.21795  0.89715  1.0000
  H   H2145     1.0  0.36515  0.17134  0.78219  1.0000
  C   C2685     1.0  0.64194  0.33446  0.85791  1.0000
  C   C2686     1.0  0.47212  0.00833  0.86666  1.0000
  C   C2687     1.0  0.50331  0.19057  0.94723  1.0000
  H   H2146     1.0  0.53307  0.12759  0.86883  1.0000
  C   C2688     1.0  0.41330  0.17188  0.83807  1.0000
  Fe  Fe182     1.0  0.43334  0.16437  0.93938  1.0000
  S   S365      1.0  0.41686  0.15663  0.92328  1.0000
  C   C2689     1.0  0.46071  0.17643  0.77393  1.0000
  C   C2690     1.0  0.53798  0.12897  0.88024  1.0000
  C   C2691     1.0  0.55147  0.13185  0.90941  1.0000
  H   H2147     1.0  0.55736  0.13279  0.92030  1.0000
  C   C2692     1.0  0.38371  0.23047  0.81456  1.0000
  H   H2148     1.0  0.53702  0.99962  0.91983  1.0000
  C   C2693     1.0  0.54091  0.03978  0.82445  1.0000
  C   C2694     1.0  0.58052  0.10109  0.76574  1.0000
  S   S366      1.0  0.64357  0.32134  0.82676  1.0000
  C   C2695     1.0  0.37367  0.30216  0.86433  1.0000
  H   H2149     1.0  0.34924  0.42610  0.74973  1.0000
  H   H2150     1.0  0.39016  0.07836  0.81914  1.0000
  H   H2151     1.0  0.38548  0.37370  0.86229  1.0000
  S   S367      1.0  0.45723  0.18611  0.96470  1.0000
  C   C2696     1.0  0.36342  0.19763  0.95843  1.0000
  H   H2152     1.0  0.37186  0.22581  0.81394  1.0000
  C   C2697     1.0  0.43882  0.09849  0.75007  1.0000
  C   C2698     1.0  0.50333  0.09160  0.77591  1.0000
  P   P91       1.0  0.51847  0.12235  0.77029  1.0000
  C   C2699     1.0  0.54279  0.11461  0.76878  1.0000
  H   H2153     1.0  0.49246  0.06744  0.78050  1.0000
  C   C2700     1.0  0.58720  0.32967  0.89683  1.0000
  H   H2154     1.0  0.57467  0.33805  0.89299  1.0000
  H   H2155     1.0  0.37303  0.22574  0.75528  1.0000
  C   C2701     1.0  0.41005  0.32282  0.77437  1.0000
  H   H2156     1.0  0.42980  0.21683  0.81146  1.0000
  H   H2157     1.0  0.46127  0.28321  0.74410  1.0000
  H   H2158     1.0  0.38702  0.30480  0.86329  1.0000
  H   H2159     1.0  0.60739  0.21823  0.86164  1.0000
  C   C2702     1.0  0.49897  0.07767  0.77033  1.0000
  H   H2160     1.0  0.42570  0.24781  0.81702  1.0000
  C   C2703     1.0  0.50491  0.25640  0.76559  1.0000
  C   C2704     1.0  0.51188  0.08999  0.73890  1.0000
  C   C2705     1.0  0.38289  0.07289  0.74306  1.0000
  C   C2706     1.0  0.59930  0.01495  0.83370  1.0000
  H   H2161     1.0  0.64518  0.25490  0.75246  1.0000
  H   H2162     1.0  0.64506  0.11500  0.90309  1.0000
  C   C2707     1.0  0.51154  0.10514  0.76303  1.0000
  C   C2708     1.0  0.61993  0.30789  0.90622  1.0000
  C   C2709     1.0  0.38563  0.21335  0.77852  1.0000
  C   C2710     1.0  0.60811  0.14859  0.83426  1.0000
  C   C2711     1.0  0.47085  0.01782  0.91443  1.0000
  C   C2712     1.0  0.47244  0.04839  0.89677  1.0000
  C   C2713     1.0  0.42638  0.18891  0.79465  1.0000
  C   C2714     1.0  0.60776  0.30012  0.90140  1.0000
  C   C2715     1.0  0.50322  0.07686  0.75182  1.0000
  H   H2163     1.0  0.39836  0.40193  0.77057  1.0000
  H   H2164     1.0  0.39185  0.22492  0.77684  1.0000
  H   H2165     1.0  0.64709  0.21148  0.75141  1.0000
  C   C2716     1.0  0.32832  0.34439  0.82729  1.0000
  C   C2717     1.0  0.50909  0.22974  0.74535  1.0000
  H   H2166     1.0  0.64448  0.15784  0.84462  1.0000
  H   H2167     1.0  0.60056  0.00695  0.80852  1.0000
  C   C2718     1.0  0.37776  0.16625  0.85318  1.0000
  C   C2719     1.0  0.40735  0.35079  0.86810  1.0000
  C   C2720     1.0  0.41192  0.33229  0.87615  1.0000
  C   C2721     1.0  0.38879  0.13555  0.96306  1.0000
  C   C2722     1.0  0.63868  0.19225  0.86098  1.0000
  C   C2723     1.0  0.54026  0.11926  0.91225  1.0000
  C   C2724     1.0  0.53397  0.11755  0.89737  1.0000
  H   H2168     1.0  0.43393  0.11981  0.93995  1.0000
  C   C2725     1.0  0.55521  0.12257  0.75408  1.0000
  H   H2169     1.0  0.34049  0.32139  0.93239  1.0000
  C   C2726     1.0  0.50358  0.26178  0.74712  1.0000
  H   H2170     1.0  0.46945  0.24164  0.75599  1.0000
  Fe  Fe183     1.0  0.44023  0.16470  0.97646  1.0000
  C   C2727     1.0  0.33933  0.10477  0.75706  1.0000
  C   C2728     1.0  0.39819  0.32228  0.88460  1.0000
  H   H2171     1.0  0.58004  0.15762  0.84640  1.0000
  H   H2172     1.0  0.60498  0.14083  0.82597  1.0000
  H   H2173     1.0  0.52272  0.06945  0.94305  1.0000
  C   C2729     1.0  0.36937  0.28109  0.91463  1.0000
  C   C2730     1.0  0.51615  0.10400  0.74449  1.0000
  H   H2174     1.0  0.34686  0.44984  0.88114  1.0000
  H   H2175     1.0  0.37718  0.42951  0.75772  1.0000
  H   H2176     1.0  0.37253  0.44256  0.93452  1.0000
  C   C2731     1.0  0.54458  0.02069  0.92809  1.0000
  H   H2177     1.0  0.53038  0.15622  0.76634  1.0000
  C   C2732     1.0  0.54672  0.32460  0.75214  1.0000
  S   S368      1.0  0.41797  0.18003  0.96132  1.0000
  C   C2733     1.0  0.33138  0.46533  0.74795  1.0000
  C   C2734     1.0  0.37713  0.30358  0.92665  1.0000
  H   H2178     1.0  0.47391  0.17156  0.76593  1.0000
  H   H2179     1.0  0.37640  0.25300  0.92860  1.0000
  S   S369      1.0  0.59664  0.20499  0.74032  1.0000
  H   H2180     1.0  0.52603  0.10737  0.89891  1.0000
  C   C2735     1.0  0.52097  0.15884  0.75726  1.0000
  C   C2736     1.0  0.34695  0.22400  0.93989  1.0000
  H   H2181     1.0  0.54993  0.01703  0.78661  1.0000
  C   C2737     1.0  0.52564  0.00640  0.80039  1.0000
  C   C2738     1.0  0.59142  0.31095  0.89684  1.0000
  H   H2182     1.0  0.33154  0.38755  0.92163  1.0000
  C   C2739     1.0  0.51722  0.17626  0.74626  1.0000
  C   C2740     1.0  0.35899  0.30708  0.87834  1.0000
  H   H2183     1.0  0.56281  0.11075  0.94985  1.0000
  C   C2741     1.0  0.58285  0.22455  0.88127  1.0000
  C   C2742     1.0  0.51135  0.08044  0.94012  1.0000
  C   C2743     1.0  0.49494  0.07603  0.94000  1.0000
  C   C2744     1.0  0.48943  0.01184  0.90738  1.0000
  H   H2184     1.0  0.49859  0.05215  0.88030  1.0000
  H   H2185     1.0  0.58692  0.17435  0.86629  1.0000
  C   C2745     1.0  0.40754  0.04674  0.79223  1.0000
  H   H2186     1.0  0.56614  0.08823  0.90903  1.0000
  C   C2746     1.0  0.34210  0.30261  0.87970  1.0000
  H   H2187     1.0  0.38615  0.21467  0.96613  1.0000
  C   C2747     1.0  0.40117  0.21921  0.81179  1.0000
  C   C2748     1.0  0.63110  0.29670  0.76411  1.0000
  C   C2749     1.0  0.59853  0.00273  0.82325  1.0000
  C   C2750     1.0  0.59802  0.16750  0.85711  1.0000
  H   H2188     1.0  0.59141  0.17291  0.90374  1.0000
  H   H2189     1.0  0.60535  0.08608  0.94115  1.0000
  H   H2190     1.0  0.36902  0.10965  0.77037  1.0000
  P   P92       1.0  0.53467  0.10471  0.93446  1.0000
  C   C2751     1.0  0.51304  0.09883  0.93607  1.0000
  S   S370      1.0  0.45446  0.14733  0.95544  1.0000
  H   H2191     1.0  0.55052  0.13392  0.74368  1.0000
  H   H2192     1.0  0.58208  0.30480  0.89320  1.0000
  C   C2752     1.0  0.62625  0.14880  0.83367  1.0000
  H   H2193     1.0  0.56499  0.19428  0.91761  1.0000
  C   C2753     1.0  0.38903  0.35946  0.86896  1.0000
  P   P93       1.0  0.64086  0.29358  0.91237  1.0000
  C   C2754     1.0  0.39651  0.08465  0.78965  1.0000
  C   C2755     1.0  0.56585  0.07958  0.92251  1.0000
  C   C2756     1.0  0.48005  0.08993  0.93599  1.0000
  H   H2194     1.0  0.58985  0.06006  0.91339  1.0000
  H   H2195     1.0  0.46740  0.08649  0.93580  1.0000
  C   C2757     1.0  0.49940  0.02400  0.89439  1.0000
  H   H2196     1.0  0.63925  0.29211  0.95130  1.0000
  Fe  Fe184     1.0  0.57034  0.18057  0.97063  1.0000
  C   C2758     1.0  0.57376  0.33740  0.73816  1.0000
  H   H2197     1.0  0.35938  0.19915  0.75788  1.0000
  C   C2759     1.0  0.55344  0.03558  0.83581  1.0000
  H   H2198     1.0  0.62337  0.22700  0.95802  1.0000
  H   H2199     1.0  0.51104  0.21957  0.73725  1.0000
  C   C2760     1.0  0.55232  0.08437  0.93742  1.0000
  C   C2761     1.0  0.57946  0.06376  0.92501  1.0000
  C   C2762     1.0  0.37507  0.20615  0.92571  1.0000
  C   C2763     1.0  0.34171  0.11386  0.73871  1.0000
  C   C2764     1.0  0.37142  0.29321  0.85171  1.0000
  C   C2765     1.0  0.35063  0.36742  0.73521  1.0000
  H   H2200     1.0  0.48659  0.98630  0.73322  1.0000
  H   H2201     1.0  0.48947  0.19718  0.94605  1.0000
  C   C2766     1.0  0.48155  0.10825  0.93205  1.0000
  C   C2767     1.0  0.64265  0.19768  0.84183  1.0000
  C   C2768     1.0  0.34330  0.46830  0.73105  1.0000
  H   H2202     1.0  0.41931  0.31922  0.78374  1.0000
  P   P94       1.0  0.62164  0.17850  0.87230  1.0000
  C   C2769     1.0  0.54563  0.03914  0.92413  1.0000
  H   H2203     1.0  0.64137  0.34495  0.88149  1.0000
  C   C2770     1.0  0.36986  0.29942  0.91366  1.0000
  C   C2771     1.0  0.57997  0.05297  0.94248  1.0000
  C   C2772     1.0  0.49803  0.11269  0.93188  1.0000
  H   H2204     1.0  0.59077  0.04096  0.94437  1.0000
  H   H2205     1.0  0.49237  0.01528  0.84269  1.0000
  C   C2773     1.0  0.36735  0.19881  0.76767  1.0000
  C   C2774     1.0  0.58920  0.18729  0.89736  1.0000
  C   C2775     1.0  0.34856  0.21250  0.95691  1.0000
  C   C2776     1.0  0.45897  0.99766  0.87498  1.0000
  C   C2777     1.0  0.50322  0.30285  0.76166  1.0000
  H   H2206     1.0  0.49912  0.12696  0.92831  1.0000
  H   H2207     1.0  0.38555  0.20374  0.91374  1.0000
  H   H2208     1.0  0.46307  0.00839  0.92423  1.0000
  C   C2778     1.0  0.52999  0.02742  0.86221  1.0000
  H   H2209     1.0  0.37734  0.33609  0.74041  1.0000
  C   C2779     1.0  0.57416  0.19933  0.90519  1.0000
  Fe  Fe185     1.0  0.43811  0.17418  0.73252  1.0000
  C   C2780     1.0  0.37784  0.15262  0.96544  1.0000
  C   C2781     1.0  0.51744  0.03179  0.85073  1.0000
  H   H2210     1.0  0.60101  0.25631  0.95951  1.0000
  C   C2782     1.0  0.61622  0.16777  0.85662  1.0000
  C   C2783     1.0  0.37524  0.34960  0.87770  1.0000
  H   H2211     1.0  0.50389  0.12547  0.95813  1.0000
  C   C2784     1.0  0.38115  0.17923  0.83702  1.0000
  H   H2212     1.0  0.42612  0.16004  0.80533  1.0000
  C   C2785     1.0  0.41418  0.31435  0.75944  1.0000
  C   C2786     1.0  0.48097  0.32800  0.77293  1.0000
  C   C2787     1.0  0.37065  0.18318  0.78130  1.0000
  H   H2213     1.0  0.39011  0.29277  0.94992  1.0000
  H   H2214     1.0  0.33550  0.23548  0.93883  1.0000
  C   C2788     1.0  0.63032  0.15831  0.84481  1.0000
  C   C2789     1.0  0.37579  0.12042  0.76173  1.0000
  H   H2215     1.0  0.40209  0.30777  0.89015  1.0000
  C   C2790     1.0  0.59517  0.98514  0.83172  1.0000
  C   C2791     1.0  0.54322  0.00899  0.79897  1.0000
  C   C2792     1.0  0.38399  0.28961  0.94025  1.0000
  H   H2216     1.0  0.42710  0.17412  0.83262  1.0000
  H   H2217     1.0  0.44999  0.99980  0.88789  1.0000
  H   H2218     1.0  0.49995  0.06597  0.74755  1.0000
  H   H2219     1.0  0.50335  0.03088  0.85636  1.0000
  C   C2793     1.0  0.54068  0.05069  0.90825  1.0000
  H   H2220     1.0  0.33486  0.38113  0.79292  1.0000
  C   C2794     1.0  0.35894  0.44176  0.93383  1.0000
  C   C2795     1.0  0.34740  0.46412  0.87550  1.0000
  C   C2796     1.0  0.55621  0.33593  0.73776  1.0000
  S   S371      1.0  0.58217  0.25743  0.74688  1.0000
  H   H2221     1.0  0.49351  0.13843  0.74413  1.0000
  H   H2222     1.0  0.55950  0.22735  0.90335  1.0000
  C   C2797     1.0  0.51267  0.19751  0.95641  1.0000
  H   H2223     1.0  0.39075  0.34184  0.78936  1.0000
  C   C2798     1.0  0.32393  0.43958  0.93196  1.0000
  C   C2799     1.0  0.36022  0.22084  0.92429  1.0000
  H   H2224     1.0  0.53108  0.05291  0.88392  1.0000
  C   C2800     1.0  0.53074  0.18918  0.95777  1.0000
  C   C2801     1.0  0.39265  0.14861  0.73928  1.0000
  H   H2225     1.0  0.54253  0.07702  0.96665  1.0000
  H   H2226     1.0  0.36775  0.16693  0.74819  1.0000
  H   H2227     1.0  0.36125  0.35665  0.87772  1.0000
  H   H2228     1.0  0.42986  0.21579  0.77903  1.0000
  H   H2229     1.0  0.47003  0.11904  0.92881  1.0000
  C   C2802     1.0  0.41627  0.22544  0.81300  1.0000
  P   P95       1.0  0.40383  0.19685  0.80712  1.0000
  C   C2803     1.0  0.37970  0.33083  0.88537  1.0000
  H   H2230     1.0  0.37793  0.31756  0.92597  1.0000
  C   C2804     1.0  0.34933  0.45526  0.92184  1.0000
  H   H2231     1.0  0.51326  0.04073  0.82306  1.0000
  C   C2805     1.0  0.60151  0.19389  0.88170  1.0000
  H   H2232     1.0  0.36987  0.18707  0.83058  1.0000
  C   C2806     1.0  0.40285  0.07756  0.77361  1.0000
  C   C2807     1.0  0.38354  0.27142  0.94105  1.0000
  C   C2808     1.0  0.45306  0.19511  0.77138  1.0000
  C   C2809     1.0  0.54912  0.12704  0.96992  1.0000
  S   S372      1.0  0.41015  0.19203  0.73517  1.0000
  H   H2233     1.0  0.33068  0.30584  0.89067  1.0000
  C   C2810     1.0  0.63542  0.15263  0.92176  1.0000
  C   C2811     1.0  0.33317  0.33063  0.92231  1.0000
  C   C2812     1.0  0.33358  0.42613  0.94396  1.0000
  H   H2234     1.0  0.35854  0.41676  0.95418  1.0000
  H   H2235     1.0  0.63731  0.34717  0.79045  1.0000
  C   C2813     1.0  0.63801  0.26896  0.75226  1.0000
  C   C2814     1.0  0.61869  0.27259  0.93943  1.0000
  C   C2815     1.0  0.50518  0.17991  0.73442  1.0000
  H   H2236     1.0  0.41439  0.05278  0.76288  1.0000
  S   S373      1.0  0.61862  0.15168  0.97386  1.0000
  H   H2237     1.0  0.56710  0.04952  0.97104  1.0000
  C   C2816     1.0  0.65019  0.30561  0.92386  1.0000
  C   C2817     1.0  0.37491  0.15276  0.74935  1.0000
  H   H2238     1.0  0.63715  0.14115  0.82491  1.0000
  H   H2239     1.0  0.46468  0.10512  0.74838  1.0000
  H   H2240     1.0  0.62208  0.26888  0.73315  1.0000
  C   C2818     1.0  0.32846  0.12896  0.73285  1.0000
  H   H2241     1.0  0.33833  0.21538  0.96887  1.0000
  H   H2242     1.0  0.56588  0.00314  0.81232  1.0000
  C   C2819     1.0  0.52607  0.98836  0.83108  1.0000
  C   C2820     1.0  0.65227  0.28932  0.87590  1.0000
  H   H2243     1.0  0.40534  0.31238  0.73589  1.0000
  C   C2821     1.0  0.34049  0.33181  0.90352  1.0000
  H   H2244     1.0  0.46532  0.31345  0.74312  1.0000
  Fe  Fe186     1.0  0.58120  0.23400  0.73490  1.0000
  C   C2822     1.0  0.40202  0.13041  0.74040  1.0000
  H   H2245     1.0  0.65334  0.22656  0.93683  1.0000
  C   C2823     1.0  0.32945  0.35418  0.76118  1.0000
  C   C2824     1.0  0.53242  0.13603  0.97873  1.0000
  H   H2246     1.0  0.63803  0.29285  0.87498  1.0000
  C   C2825     1.0  0.65550  0.21494  0.73795  1.0000
  C   C2826     1.0  0.54371  0.99085  0.82953  1.0000
  C   C2827     1.0  0.51620  0.13510  0.97456  1.0000
  C   C2828     1.0  0.39406  0.08592  0.73634  1.0000
  H   H2247     1.0  0.65382  0.38628  0.75566  1.0000
  H   H2248     1.0  0.32699  0.28990  0.86837  1.0000
  H   H2249     1.0  0.50600  0.99006  0.88047  1.0000
  C   C2829     1.0  0.65421  0.21003  0.83331  1.0000
  C   C2830     1.0  0.61455  0.34329  0.73309  1.0000
  H   H2250     1.0  0.55824  0.99158  0.88969  1.0000
  H   H2251     1.0  0.59202  0.98769  0.87589  1.0000
  H   H2252     1.0  0.40995  0.98586  0.86386  1.0000
  C   C2831     1.0  0.64708  0.30221  0.94304  1.0000
  C   C2832     1.0  0.64388  0.23952  0.93779  1.0000
  C   C2833     1.0  0.60876  0.36229  0.73187  1.0000
  C   C2834     1.0  0.65402  0.31199  0.95173  1.0000
  C   C2835     1.0  0.37985  0.16123  0.97859  1.0000
  H   H2253     1.0  0.32419  0.48426  0.93683  1.0000
  H   H2254     1.0  0.32545  0.34848  0.77559  1.0000
  H   H2255     1.0  0.60451  0.30027  0.73378  1.0000
  C   C2836     1.0  0.37425  0.06854  0.73133  1.0000
  H   H2256     1.0  0.53801  0.26561  0.73162  1.0000
  H   H2257     1.0  0.33066  0.16646  0.73030  1.0000
  H   H2258     1.0  0.39913  0.15954  0.73040  1.0000
  Fe  Fe187     1.0  0.58435  0.81717  0.07487  1.0000
  S   S374      1.0  0.56494  0.79969  0.09294  1.0000
  S   S375      1.0  0.58666  0.82557  0.04412  1.0000
  Fe  Fe188     1.0  0.59403  0.82614  0.10717  1.0000
  S   S376      1.0  0.57502  0.81001  0.12789  1.0000
  S   S377      1.0  0.61195  0.83907  0.11690  1.0000
  Fe  Fe189     1.0  0.58596  0.78881  0.11057  1.0000
  S   S378      1.0  0.59308  0.75906  0.12452  1.0000
  Fe  Fe190     1.0  0.55534  0.82203  0.10906  1.0000
  S   S379      1.0  0.52555  0.83293  0.11964  1.0000
  S   S380      1.0  0.60667  0.80407  0.09080  1.0000
  S   S381      1.0  0.57330  0.84046  0.08984  1.0000
  C   C2837     1.0  0.49888  0.78037  0.21479  1.0000
  C   C2838     1.0  0.46899  0.76742  0.06979  1.0000
  C   C2839     1.0  0.34477  0.55557  0.10588  1.0000
  S   S382      1.0  0.42747  0.77717  0.00702  1.0000
  H   H2259     1.0  0.38842  0.53212  0.10701  1.0000
  Fe  Fe191     1.0  0.41239  0.82906  0.12648  1.0000
  S   S383      1.0  0.42644  0.80040  0.13688  1.0000
  S   S384      1.0  0.40158  0.84412  0.14974  1.0000
  Fe  Fe192     1.0  0.41349  0.82054  0.08956  1.0000
  S   S385      1.0  0.42680  0.79112  0.09789  1.0000
  S   S386      1.0  0.40796  0.83222  0.06093  1.0000
  Fe  Fe193     1.0  0.40742  0.79189  0.12475  1.0000
  S   S387      1.0  0.39287  0.76907  0.14054  1.0000
  Fe  Fe194     1.0  0.44443  0.80252  0.10910  1.0000
  S   S388      1.0  0.47411  0.78924  0.10434  1.0000
  S   S389      1.0  0.39222  0.82041  0.11570  1.0000
  S   S390      1.0  0.43235  0.83210  0.09943  1.0000
  H   H2260     1.0  0.39304  0.83202  0.98320  1.0000
  Fe  Fe195     1.0  0.42640  0.91638  0.18644  1.0000
  S   S391      1.0  0.43409  0.89188  0.20794  1.0000
  S   S392      1.0  0.42183  0.91523  0.15900  1.0000
  C   C2840     1.0  0.49889  0.94808  0.18769  1.0000
  Fe  Fe196     1.0  0.45536  0.90603  0.20952  1.0000
  H   H2261     1.0  0.43879  0.98378  0.15770  1.0000
  S   S393      1.0  0.40637  0.93250  0.20622  1.0000
  Fe  Fe197     1.0  0.58043  0.90905  0.18299  1.0000
  H   H2262     1.0  0.37219  0.69866  0.21841  1.0000
  S   S394      1.0  0.56917  0.89860  0.16434  1.0000
  Fe  Fe198     1.0  0.58849  0.94311  0.19113  1.0000
  H   H2263     1.0  0.36871  0.75906  0.06099  1.0000
  C   C2841     1.0  0.60148  0.76564  0.22723  1.0000
  Fe  Fe199     1.0  0.60216  0.90522  0.21183  1.0000
  C   C2842     1.0  0.46614  0.73741  0.99905  1.0000
  H   H2264     1.0  0.63715  0.71879  0.21794  1.0000
  H   H2265     1.0  0.33919  0.83649  0.19052  1.0000
  S   S395      1.0  0.60646  0.91776  0.18166  1.0000
  S   S396      1.0  0.56295  0.93555  0.18947  1.0000
  H   H2266     1.0  0.59564  0.78565  0.05181  1.0000
  S   S397      1.0  0.43583  0.66583  0.21910  1.0000
  C   C2843     1.0  0.42152  0.84327  0.21495  1.0000
  H   H2267     1.0  0.56028  0.92853  0.13164  1.0000
  S   S398      1.0  0.59347  0.97193  0.17824  1.0000
  H   H2268     1.0  0.46981  0.95210  0.19792  1.0000
  H   H2269     1.0  0.50156  0.74458  0.04010  1.0000
  Fe  Fe200     1.0  0.32511  0.56287  0.20671  1.0000
  H   H2270     1.0  0.61539  0.57817  0.15913  1.0000
  S   S399      1.0  0.54890  0.74115  0.20602  1.0000
  C   C2844     1.0  0.63352  0.93053  0.22517  1.0000
  P   P96       1.0  0.34684  0.87128  0.19199  1.0000
  H   H2271     1.0  0.64146  0.86613  0.16087  1.0000
  H   H2272     1.0  0.59907  0.76341  0.03221  1.0000
  Fe  Fe201     1.0  0.43287  0.69605  0.21637  1.0000
  S   S400      1.0  0.44485  0.71296  0.18981  1.0000
  C   C2845     1.0  0.35798  0.86497  0.15620  1.0000
  S   S401      1.0  0.37601  0.59730  0.19895  1.0000
  C   C2846     1.0  0.48328  0.75377  0.06353  1.0000
  C   C2847     1.0  0.32403  0.81019  0.03086  1.0000
  C   C2848     1.0  0.52488  0.83750  0.22143  1.0000
  C   C2849     1.0  0.65139  0.85443  0.20331  1.0000
  C   C2850     1.0  0.35278  0.90219  0.13982  1.0000
  H   H2273     1.0  0.63863  0.97224  0.22810  1.0000
  C   C2851     1.0  0.59279  0.97991  0.21129  1.0000
  C   C2852     1.0  0.38300  0.75421  0.99772  1.0000
  C   C2853     1.0  0.47348  0.80633  0.21690  1.0000
  C   C2854     1.0  0.34139  0.51393  0.20221  1.0000
  H   H2274     1.0  0.35261  0.80422  0.20244  1.0000
  H   H2275     1.0  0.34969  0.52418  0.19856  1.0000
  H   H2276     1.0  0.38914  0.74576  0.98755  1.0000
  C   C2855     1.0  0.34823  0.56798  0.08928  1.0000
  C   C2856     1.0  0.39503  0.61791  0.20853  1.0000
  C   C2857     1.0  0.37770  0.61499  0.20889  1.0000
  H   H2277     1.0  0.63235  0.61626  0.20892  1.0000
  C   C2858     1.0  0.64000  0.84189  0.21172  1.0000
  H   H2278     1.0  0.37835  0.85394  0.20988  1.0000
  H   H2279     1.0  0.50353  0.83596  0.98506  1.0000
  C   C2859     1.0  0.40274  0.71693  0.13386  1.0000
  C   C2860     1.0  0.49304  0.73132  0.14613  1.0000
  H   H2280     1.0  0.34306  0.73019  0.17634  1.0000
  H   H2281     1.0  0.64454  0.79952  0.19187  1.0000
  H   H2282     1.0  0.58924  0.96680  0.21752  1.0000
  H   H2283     1.0  0.36148  0.49521  0.18718  1.0000
  S   S402      1.0  0.43064  0.97378  0.20185  1.0000
  H   H2284     1.0  0.61553  0.75900  0.15122  1.0000
  H   H2285     1.0  0.40566  0.53107  0.17379  1.0000
  C   C2861     1.0  0.38281  0.83230  0.99573  1.0000
  C   C2862     1.0  0.64379  0.79295  0.20616  1.0000
  P   P97       1.0  0.35937  0.79475  0.03676  1.0000
  C   C2863     1.0  0.59974  0.60880  0.22923  1.0000
  H   H2286     1.0  0.35970  0.63585  0.17871  1.0000
  C   C2864     1.0  0.57940  0.94207  0.13606  1.0000
  C   C2865     1.0  0.36209  0.87043  0.13714  1.0000
  C   C2866     1.0  0.62894  0.83812  0.20189  1.0000
  H   H2287     1.0  0.39435  0.55422  0.07782  1.0000
  H   H2288     1.0  0.62223  0.68353  0.15995  1.0000
  C   C2867     1.0  0.36534  0.76474  0.99804  1.0000
  H   H2289     1.0  0.40857  0.74235  0.11655  1.0000
  S   S403      1.0  0.34987  0.56773  0.18499  1.0000
  C   C2868     1.0  0.60110  0.82067  0.19748  1.0000
  C   C2869     1.0  0.62384  0.69526  0.16419  1.0000
  P   P98       1.0  0.63241  0.74373  0.18328  1.0000
  H   H2290     1.0  0.40347  0.86584  0.22634  1.0000
  C   C2870     1.0  0.38368  0.66872  0.15385  1.0000
  H   H2291     1.0  0.39426  0.68170  0.19637  1.0000
  C   C2871     1.0  0.35426  0.71960  0.18062  1.0000
  H   H2292     1.0  0.58038  0.72086  0.12167  1.0000
  C   C2872     1.0  0.39681  0.63175  0.21651  1.0000
  C   C2873     1.0  0.37598  0.90542  0.19924  1.0000
  H   H2293     1.0  0.62460  0.81490  0.99872  1.0000
  C   C2874     1.0  0.51615  0.89776  0.20877  1.0000
  H   H2294     1.0  0.33387  0.78006  0.06963  1.0000
  C   C2875     1.0  0.34815  0.88724  0.22014  1.0000
  H   H2295     1.0  0.37661  0.86168  0.99180  1.0000
  H   H2296     1.0  0.39442  0.72368  0.14473  1.0000
  H   H2297     1.0  0.52122  0.74618  0.98834  1.0000
  C   C2876     1.0  0.38334  0.69241  0.19164  1.0000
  S   S404      1.0  0.33072  0.61175  0.17949  1.0000
  C   C2877     1.0  0.40705  0.75318  0.15432  1.0000
  C   C2878     1.0  0.42578  0.75285  0.15014  1.0000
  C   C2879     1.0  0.43712  0.74064  0.16135  1.0000
  C   C2880     1.0  0.42990  0.72841  0.17662  1.0000
  C   C2881     1.0  0.41117  0.72853  0.18077  1.0000
  C   C2882     1.0  0.39973  0.74093  0.16961  1.0000
  H   H2298     1.0  0.43163  0.76194  0.13818  1.0000
  H   H2299     1.0  0.45154  0.74073  0.15820  1.0000
  H   H2300     1.0  0.40555  0.71907  0.19253  1.0000
  H   H2301     1.0  0.38523  0.74115  0.17291  1.0000
  C   C2883     1.0  0.40893  0.86320  0.15164  1.0000
  C   C2884     1.0  0.40816  0.86573  0.16918  1.0000
  C   C2885     1.0  0.41303  0.88118  0.17149  1.0000
  C   C2886     1.0  0.41790  0.89465  0.15629  1.0000
  C   C2887     1.0  0.41871  0.89213  0.13869  1.0000
  C   C2888     1.0  0.41446  0.87630  0.13633  1.0000
  H   H2302     1.0  0.40374  0.85569  0.18101  1.0000
  H   H2303     1.0  0.41233  0.88303  0.18506  1.0000
  H   H2304     1.0  0.42248  0.90253  0.12688  1.0000
  H   H2305     1.0  0.41493  0.87452  0.12277  1.0000
  C   C2889     1.0  0.42245  0.79286  0.02146  1.0000
  C   C2890     1.0  0.41973  0.81179  0.01472  1.0000
  C   C2891     1.0  0.41529  0.82384  0.02688  1.0000
  C   C2892     1.0  0.41384  0.81697  0.04577  1.0000
  C   C2893     1.0  0.41680  0.79805  0.05233  1.0000
  C   C2894     1.0  0.42109  0.78605  0.04026  1.0000
  H   H2306     1.0  0.42085  0.81710  0.00019  1.0000
  H   H2307     1.0  0.41292  0.83848  0.02167  1.0000
  H   H2308     1.0  0.41537  0.79255  0.06676  1.0000
  H   H2309     1.0  0.42319  0.77143  0.04556  1.0000
  C   C2895     1.0  0.58016  0.75371  0.14691  1.0000
  C   C2896     1.0  0.56538  0.76655  0.15388  1.0000
  C   C2897     1.0  0.55596  0.76254  0.17205  1.0000
  C   C2898     1.0  0.56080  0.74544  0.18322  1.0000
  C   C2899     1.0  0.57509  0.73226  0.17612  1.0000
  C   C2900     1.0  0.58481  0.73644  0.15800  1.0000
  H   H2310     1.0  0.56100  0.77950  0.14526  1.0000
  H   H2311     1.0  0.54487  0.77277  0.17746  1.0000
  H   H2312     1.0  0.57867  0.71893  0.18462  1.0000
  H   H2313     1.0  0.59594  0.72633  0.15256  1.0000
  C   C2901     1.0  0.60008  0.85531  0.13045  1.0000
  C   C2902     1.0  0.60958  0.86203  0.13971  1.0000
  C   C2903     1.0  0.60027  0.87521  0.15039  1.0000
  C   C2904     1.0  0.58150  0.88185  0.15158  1.0000
  C   C2905     1.0  0.57206  0.87515  0.14228  1.0000
  C   C2906     1.0  0.58128  0.86179  0.13190  1.0000
  H   H2314     1.0  0.62415  0.85705  0.13854  1.0000
  H   H2315     1.0  0.60758  0.88041  0.15748  1.0000
  H   H2316     1.0  0.55752  0.88025  0.14319  1.0000
  H   H2317     1.0  0.57386  0.85668  0.12482  1.0000
  C   C2907     1.0  0.51124  0.82099  0.11510  1.0000
  C   C2908     1.0  0.51780  0.80299  0.11256  1.0000
  C   C2909     1.0  0.50637  0.79351  0.10894  1.0000
  C   C2910     1.0  0.48822  0.80186  0.10809  1.0000
  C   C2911     1.0  0.48149  0.81981  0.11084  1.0000
  C   C2912     1.0  0.49300  0.82936  0.11438  1.0000
  H   H2318     1.0  0.53143  0.79605  0.11420  1.0000
  H   H2319     1.0  0.51149  0.77953  0.10724  1.0000
  H   H2320     1.0  0.46742  0.82626  0.11043  1.0000
  H   H2321     1.0  0.48778  0.84319  0.11662  1.0000
  C   C2913     1.0  0.58785  0.80926  0.03134  1.0000
  C   C2914     1.0  0.59284  0.79047  0.03816  1.0000
  C   C2915     1.0  0.59478  0.77792  0.02705  1.0000
  C   C2916     1.0  0.57895  0.86918  0.98257  1.0000
  H   H2322     1.0  0.34684  0.72319  0.20856  1.0000
  C   C2917     1.0  0.56609  0.72411  0.12817  1.0000
  C   C2918     1.0  0.51022  0.97448  0.16788  1.0000
  H   H2323     1.0  0.36463  0.71278  0.15410  1.0000
  H   H2324     1.0  0.53330  0.95205  0.14054  1.0000
  C   C2919     1.0  0.35775  0.77634  0.01053  1.0000
  H   H2325     1.0  0.52717  0.94786  0.17625  1.0000
  H   H2326     1.0  0.42108  0.67482  0.12343  1.0000
  C   C2920     1.0  0.61338  0.75277  0.19985  1.0000
  C   C2921     1.0  0.49397  0.82706  0.98767  1.0000
  H   H2327     1.0  0.35598  0.63579  0.14785  1.0000
  H   H2328     1.0  0.38693  0.91228  0.19113  1.0000
  H   H2329     1.0  0.56850  0.98219  0.15063  1.0000
  C   C2922     1.0  0.46423  0.82273  0.98719  1.0000
  H   H2330     1.0  0.58269  0.57652  0.17073  1.0000
  H   H2331     1.0  0.51194  0.77272  0.21800  1.0000
  H   H2332     1.0  0.38046  0.80607  0.08749  1.0000
  H   H2333     1.0  0.41739  0.87095  0.98992  1.0000
  H   H2334     1.0  0.46019  0.79504  0.99539  1.0000
  H   H2335     1.0  0.62964  0.75391  0.21848  1.0000
  C   C2923     1.0  0.63602  0.95120  0.19561  1.0000
  H   H2336     1.0  0.38737  0.55923  0.15811  1.0000
  H   H2337     1.0  0.36794  0.86017  0.12879  1.0000
  H   H2338     1.0  0.33093  0.55659  0.11378  1.0000
  Fe  Fe202     1.0  0.41605  0.90875  0.22791  1.0000
  H   H2339     1.0  0.59513  0.95846  0.14193  1.0000
  C   C2924     1.0  0.35630  0.83275  0.02799  1.0000
  H   H2340     1.0  0.50141  0.93381  0.19434  1.0000
  C   C2925     1.0  0.53360  0.85478  0.98721  1.0000
  H   H2341     1.0  0.51340  0.80283  0.99561  1.0000
  C   C2926     1.0  0.63497  0.76328  0.16482  1.0000
  C   C2927     1.0  0.33203  0.53125  0.14639  1.0000
  C   C2928     1.0  0.53503  0.84860  0.20745  1.0000
  C   C2929     1.0  0.49040  0.79661  0.22097  1.0000
  H   H2342     1.0  0.46788  0.74673  0.02227  1.0000
  C   C2930     1.0  0.59095  0.57684  0.18001  1.0000
  H   H2343     1.0  0.36873  0.51009  0.10038  1.0000
  H   H2344     1.0  0.61134  0.71518  0.20118  1.0000
  H   H2345     1.0  0.34806  0.49212  0.15806  1.0000
  C   C2931     1.0  0.34803  0.49756  0.19573  1.0000
  H   H2346     1.0  0.40225  0.50052  0.17182  1.0000
  H   H2347     1.0  0.33763  0.88006  0.22858  1.0000
  C   C2932     1.0  0.61564  0.69813  0.18184  1.0000
  C   C2933     1.0  0.37079  0.70200  0.20426  1.0000
  H   H2348     1.0  0.55944  0.90112  0.00893  1.0000
  C   C2934     1.0  0.32250  0.87326  0.20066  1.0000
  H   H2349     1.0  0.40715  0.60928  0.20225  1.0000
  C   C2935     1.0  0.38547  0.76673  0.02254  1.0000
  C   C2936     1.0  0.40928  0.85126  0.22892  1.0000
  C   C2937     1.0  0.37968  0.82505  0.21528  1.0000
  H   H2350     1.0  0.55309  0.86754  0.20085  1.0000
  H   H2351     1.0  0.53416  0.85009  0.19333  1.0000
  H   H2352     1.0  0.34877  0.62421  0.21726  1.0000
  C   C2938     1.0  0.50553  0.97091  0.22578  1.0000
  C   C2939     1.0  0.58317  0.57631  0.19854  1.0000
  C   C2940     1.0  0.32627  0.52913  0.08769  1.0000
  C   C2941     1.0  0.56640  0.97060  0.14653  1.0000
  C   C2942     1.0  0.54571  0.85843  0.21168  1.0000
  C   C2943     1.0  0.54671  0.95372  0.14079  1.0000
  H   H2353     1.0  0.63761  0.80720  0.12669  1.0000
  Fe  Fe203     1.0  0.34904  0.59172  0.19715  1.0000
  C   C2944     1.0  0.58116  0.76648  0.20778  1.0000
  C   C2945     1.0  0.54618  0.78067  0.05984  1.0000
  C   C2946     1.0  0.53316  0.77019  0.06948  1.0000
  C   C2947     1.0  0.51459  0.77784  0.07032  1.0000
  C   C2948     1.0  0.50900  0.79596  0.06152  1.0000
  C   C2949     1.0  0.52204  0.80638  0.05128  1.0000
  C   C2950     1.0  0.54065  0.79871  0.05085  1.0000
  P   P99       1.0  0.51547  0.82996  0.04005  1.0000
  C   C2951     1.0  0.52661  0.83370  0.01620  1.0000
  C   C2952     1.0  0.49117  0.83725  0.04038  1.0000
  C   C2953     1.0  0.48195  0.82644  0.03531  1.0000
  C   C2954     1.0  0.46316  0.83202  0.03563  1.0000
  C   C2955     1.0  0.45348  0.84839  0.04092  1.0000
  C   C2956     1.0  0.46266  0.85957  0.04529  1.0000
  C   C2957     1.0  0.48146  0.85422  0.04471  1.0000
  C   C2958     1.0  0.52536  0.85164  0.00581  1.0000
  H   H2354     1.0  0.64477  0.73158  0.14830  1.0000
  H   H2355     1.0  0.55871  0.86953  0.00757  1.0000
  C   C2959     1.0  0.54415  0.82213  0.98908  1.0000
  C   C2960     1.0  0.53615  0.81897  0.00770  1.0000
  C   C2961     1.0  0.52311  0.84308  0.05182  1.0000
  C   C2962     1.0  0.54008  0.84830  0.04492  1.0000
  C   C2963     1.0  0.54606  0.85830  0.05418  1.0000
  C   C2964     1.0  0.53519  0.86306  0.07041  1.0000
  C   C2965     1.0  0.51852  0.85751  0.07758  1.0000
  C   C2966     1.0  0.51270  0.84716  0.06858  1.0000
  H   H2356     1.0  0.56058  0.77499  0.05959  1.0000
  H   H2357     1.0  0.53742  0.75634  0.07677  1.0000
  H   H2358     1.0  0.50444  0.77006  0.07857  1.0000
  H   H2359     1.0  0.49452  0.80182  0.06338  1.0000
  H   H2360     1.0  0.55091  0.80678  0.04377  1.0000
  H   H2361     1.0  0.48922  0.81363  0.03130  1.0000
  H   H2362     1.0  0.45591  0.82367  0.03197  1.0000
  H   H2363     1.0  0.43884  0.85237  0.04165  1.0000
  H   H2364     1.0  0.45514  0.87236  0.04926  1.0000
  H   H2365     1.0  0.48826  0.86338  0.04773  1.0000
  H   H2366     1.0  0.51801  0.86317  0.01213  1.0000
  C   C2967     1.0  0.48717  0.71467  0.15364  1.0000
  C   C2968     1.0  0.64445  0.60711  0.20339  1.0000
  C   C2969     1.0  0.37355  0.84898  0.00061  1.0000
  H   H2367     1.0  0.53736  0.80500  0.01525  1.0000
  H   H2368     1.0  0.54906  0.84407  0.03280  1.0000
  H   H2369     1.0  0.55947  0.86168  0.04917  1.0000
  H   H2370     1.0  0.54001  0.87037  0.07789  1.0000
  H   H2371     1.0  0.51049  0.86059  0.09056  1.0000
  H   H2372     1.0  0.50018  0.84219  0.07481  1.0000
  C   C2970     1.0  0.44504  0.66979  0.17453  1.0000
  C   C2971     1.0  0.44848  0.65066  0.17885  1.0000
  C   C2972     1.0  0.43612  0.64132  0.17676  1.0000
  C   C2973     1.0  0.42036  0.65108  0.17025  1.0000
  C   C2974     1.0  0.41674  0.67034  0.16602  1.0000
  C   C2975     1.0  0.42919  0.67961  0.16827  1.0000
  C   C2976     1.0  0.64676  0.79112  0.15116  1.0000
  H   H2373     1.0  0.45430  0.67706  0.17677  1.0000
  H   H2374     1.0  0.46049  0.64312  0.18429  1.0000
  H   H2375     1.0  0.43861  0.62650  0.18045  1.0000
  H   H2376     1.0  0.41112  0.64345  0.16869  1.0000
  H   H2377     1.0  0.47434  0.74432  0.10827  1.0000
  C   C2977     1.0  0.63016  0.80051  0.21966  1.0000
  H   H2378     1.0  0.37711  0.65670  0.18277  1.0000
  C   C2978     1.0  0.54477  0.76387  0.01713  1.0000
  C   C2979     1.0  0.55463  0.75063  0.00695  1.0000
  C   C2980     1.0  0.54600  0.74436  0.99664  1.0000
  C   C2981     1.0  0.52748  0.75135  0.99643  1.0000
  C   C2982     1.0  0.51738  0.76459  0.00673  1.0000
  C   C2983     1.0  0.52617  0.77070  0.01719  1.0000
  P   P100      1.0  0.49304  0.77266  0.00806  1.0000
  C   C2984     1.0  0.48272  0.76987  0.03212  1.0000
  C   C2985     1.0  0.48730  0.79650  0.99711  1.0000
  C   C2986     1.0  0.46978  0.80385  0.99322  1.0000
  H   H2379     1.0  0.55379  0.73430  0.98851  1.0000
  C   C2987     1.0  0.35502  0.88578  0.20177  1.0000
  C   C2988     1.0  0.36214  0.62629  0.21697  1.0000
  C   C2989     1.0  0.62464  0.76759  0.15118  1.0000
  C   C2990     1.0  0.59376  0.57680  0.21054  1.0000
  C   C2991     1.0  0.41090  0.72764  0.11783  1.0000
  C   C2992     1.0  0.48108  0.95839  0.18965  1.0000
  C   C2993     1.0  0.46132  0.78199  0.05729  1.0000
  C   C2994     1.0  0.46780  0.78295  0.03855  1.0000
  Fe  Fe204     1.0  0.56182  0.92133  0.21857  1.0000
  C   C2995     1.0  0.38066  0.77746  0.09067  1.0000
  C   C2996     1.0  0.56198  0.94047  0.13552  1.0000
  C   C2997     1.0  0.61616  0.75694  0.21548  1.0000
  C   C2998     1.0  0.58163  0.95725  0.14136  1.0000
  H   H2380     1.0  0.55165  0.76881  0.02492  1.0000
  H   H2381     1.0  0.56906  0.74536  0.00687  1.0000
  H   H2382     1.0  0.36928  0.65726  0.12080  1.0000
  C   C2999     1.0  0.63685  0.79500  0.13736  1.0000
  H   H2383     1.0  0.51859  0.78062  0.02554  1.0000
  C   C3000     1.0  0.36843  0.78791  0.05748  1.0000
  H   H2384     1.0  0.60796  0.68848  0.19139  1.0000
  H   H2385     1.0  0.47311  0.73347  0.18464  1.0000
  C   C3001     1.0  0.47181  0.71960  0.12858  1.0000
  C   C3002     1.0  0.65183  0.86326  0.18504  1.0000
  H   H2386     1.0  0.35110  0.91661  0.13348  1.0000
  H   H2387     1.0  0.50577  0.95895  0.22070  1.0000
  C   C3003     1.0  0.59412  0.80540  0.17697  1.0000
  H   H2388     1.0  0.45040  0.79268  0.06210  1.0000
  H   H2389     1.0  0.46117  0.79400  0.02922  1.0000
  H   H2390     1.0  0.61768  0.78653  0.12699  1.0000
  H   H2391     1.0  0.42659  0.69446  0.16534  1.0000
  C   C3004     1.0  0.49749  0.90013  0.21636  1.0000
  C   C3005     1.0  0.42207  0.76968  0.20120  1.0000
  C   C3006     1.0  0.40940  0.77746  0.18991  1.0000
  C   C3007     1.0  0.40644  0.79625  0.18259  1.0000
  C   C3008     1.0  0.41654  0.80716  0.18611  1.0000
  C   C3009     1.0  0.43035  0.79927  0.19616  1.0000
  C   C3010     1.0  0.43221  0.78061  0.20467  1.0000
  P   P101      1.0  0.44380  0.81351  0.20002  1.0000
  C   C3011     1.0  0.45069  0.83094  0.18045  1.0000
  H   H2392     1.0  0.39104  0.82173  0.22212  1.0000
  C   C3012     1.0  0.35799  0.81517  0.20423  1.0000
  S   S405      1.0  0.48390  0.88986  0.20879  1.0000
  C   C3013     1.0  0.36775  0.77741  0.02295  1.0000
  C   C3014     1.0  0.36039  0.84920  0.01683  1.0000
  H   H2393     1.0  0.37988  0.74999  0.08994  1.0000
  C   C3015     1.0  0.45953  0.84382  0.18267  1.0000
  C   C3016     1.0  0.46475  0.85760  0.16793  1.0000
  C   C3017     1.0  0.46145  0.85852  0.15075  1.0000
  C   C3018     1.0  0.45300  0.84561  0.14829  1.0000
  C   C3019     1.0  0.44759  0.83192  0.16305  1.0000
  C   C3020     1.0  0.46498  0.80003  0.20640  1.0000
  C   C3021     1.0  0.47392  0.78398  0.19976  1.0000
  H   H2394     1.0  0.42408  0.75514  0.20721  1.0000
  H   H2395     1.0  0.40171  0.76899  0.18703  1.0000
  H   H2396     1.0  0.39633  0.80245  0.17414  1.0000
  H   H2397     1.0  0.41355  0.82177  0.18095  1.0000
  H   H2398     1.0  0.44145  0.77438  0.21398  1.0000
  H   H2399     1.0  0.42466  0.85186  0.20161  1.0000
  C   C3022     1.0  0.63634  0.72252  0.15770  1.0000
  C   C3023     1.0  0.60406  0.80521  0.18986  1.0000
  C   C3024     1.0  0.37103  0.65721  0.13429  1.0000
  H   H2400     1.0  0.36540  0.55707  0.14097  1.0000
  H   H2401     1.0  0.46207  0.84354  0.19589  1.0000
  H   H2402     1.0  0.47120  0.86771  0.16987  1.0000
  H   H2403     1.0  0.46532  0.86933  0.13938  1.0000
  H   H2404     1.0  0.45031  0.84641  0.13499  1.0000
  H   H2405     1.0  0.44105  0.82226  0.16060  1.0000
  H   H2406     1.0  0.46822  0.77919  0.19090  1.0000
  H   H2407     1.0  0.46389  0.76688  0.08430  1.0000
  C   C3025     1.0  0.61754  0.71334  0.18737  1.0000
  P   P102      1.0  0.61450  0.82174  0.21305  1.0000
  C   C3026     1.0  0.48131  0.72147  0.21032  1.0000
  C   C3027     1.0  0.34861  0.89677  0.15888  1.0000
  C   C3028     1.0  0.36918  0.89475  0.19147  1.0000
  H   H2408     1.0  0.56889  0.57558  0.20362  1.0000
  H   H2409     1.0  0.52465  0.71297  0.21725  1.0000
  H   H2410     1.0  0.52186  0.89018  0.19791  1.0000
  H   H2411     1.0  0.61400  0.79307  0.19365  1.0000
  H   H2412     1.0  0.37525  0.89336  0.17749  1.0000
  C   C3029     1.0  0.62000  0.57830  0.18546  1.0000
  H   H2413     1.0  0.58370  0.80778  0.98889  1.0000
  C   C3030     1.0  0.49955  0.80818  0.99368  1.0000
  C   C3031     1.0  0.32603  0.78931  0.05999  1.0000
  C   C3032     1.0  0.65234  0.73310  0.19310  1.0000
  C   C3033     1.0  0.58419  0.81538  0.01368  1.0000
  C   C3034     1.0  0.37549  0.65701  0.16914  1.0000
  H   H2414     1.0  0.63423  0.57901  0.18013  1.0000
  H   H2415     1.0  0.46753  0.72046  0.21766  1.0000
  C   C3035     1.0  0.37242  0.84332  0.20826  1.0000
  H   H2416     1.0  0.42875  0.72774  0.09138  1.0000
  H   H2417     1.0  0.57983  0.91872  0.98442  1.0000
  C   C3036     1.0  0.41784  0.68960  0.12182  1.0000
  C   C3037     1.0  0.37708  0.54198  0.10207  1.0000
  P   P103      1.0  0.62577  0.57834  0.21979  1.0000
  C   C3038     1.0  0.36554  0.64522  0.16692  1.0000
  H   H2418     1.0  0.49040  0.70631  0.16643  1.0000
  H   H2419     1.0  0.46721  0.81896  0.22162  1.0000
  H   H2420     1.0  0.37003  0.81532  0.05849  1.0000
  H   H2421     1.0  0.35331  0.86213  0.02070  1.0000
  H   H2422     1.0  0.33968  0.53082  0.07971  1.0000
  H   H2423     1.0  0.48926  0.74247  0.07325  1.0000
  H   H2424     1.0  0.59652  0.79360  0.17087  1.0000
  H   H2425     1.0  0.38083  0.49804  0.15438  1.0000
  H   H2426     1.0  0.59110  0.93137  0.13264  1.0000
  C   C3039     1.0  0.51347  0.71713  0.21002  1.0000
  C   C3040     1.0  0.63416  0.70748  0.15209  1.0000
  C   C3041     1.0  0.59166  0.78409  0.00914  1.0000
  H   H2427     1.0  0.36868  0.57728  0.06643  1.0000
  C   C3042     1.0  0.50238  0.72952  0.18171  1.0000
  C   C3043     1.0  0.51675  0.72438  0.19120  1.0000
  P   P104      1.0  0.50609  0.73940  0.15759  1.0000
  C   C3044     1.0  0.52958  0.73340  0.14611  1.0000
  C   C3045     1.0  0.53757  0.74622  0.13193  1.0000
  C   C3046     1.0  0.55575  0.74159  0.12304  1.0000
  C   C3047     1.0  0.49925  0.76373  0.15640  1.0000
  C   C3048     1.0  0.51120  0.77317  0.15926  1.0000
  C   C3049     1.0  0.50611  0.79200  0.15862  1.0000
  C   C3050     1.0  0.48892  0.80149  0.15533  1.0000
  C   C3051     1.0  0.47681  0.79211  0.15276  1.0000
  C   C3052     1.0  0.48182  0.77325  0.15356  1.0000
  C   C3053     1.0  0.49231  0.98489  0.17019  1.0000
  C   C3054     1.0  0.47621  0.83437  0.98472  1.0000
  H   H2428     1.0  0.53044  0.72609  0.18423  1.0000
  H   H2429     1.0  0.53378  0.70540  0.16130  1.0000
  H   H2430     1.0  0.52992  0.75990  0.12785  1.0000
  H   H2431     1.0  0.56204  0.75177  0.11257  1.0000
  H   H2432     1.0  0.52452  0.76593  0.16179  1.0000
  H   H2433     1.0  0.51563  0.79936  0.16021  1.0000
  H   H2434     1.0  0.48530  0.81619  0.15425  1.0000
  H   H2435     1.0  0.46375  0.79945  0.14954  1.0000
  H   H2436     1.0  0.47212  0.76629  0.15173  1.0000
  C   C3055     1.0  0.57812  0.83630  0.17928  1.0000
  C   C3056     1.0  0.58119  0.82095  0.17168  1.0000
  H   H2437     1.0  0.33710  0.57826  0.08445  1.0000
  C   C3057     1.0  0.62370  0.81965  0.98443  1.0000
  H   H2438     1.0  0.36329  0.89316  0.11421  1.0000
  C   C3058     1.0  0.58800  0.83619  0.19213  1.0000
  H   H2439     1.0  0.54169  0.90380  0.20864  1.0000
  H   H2440     1.0  0.65505  0.80048  0.15121  1.0000
  H   H2441     1.0  0.38547  0.77351  0.10342  1.0000
  C   C3059     1.0  0.37900  0.81585  0.00700  1.0000
  C   C3060     1.0  0.47652  0.70891  0.14491  1.0000
  H   H2442     1.0  0.32885  0.60800  0.10390  1.0000
  H   H2443     1.0  0.56833  0.84847  0.17489  1.0000
  H   H2444     1.0  0.57367  0.82125  0.16152  1.0000
  C   C3061     1.0  0.55810  0.71109  0.14193  1.0000
  H   H2445     1.0  0.39385  0.76797  0.03127  1.0000
  C   C3062     1.0  0.47812  0.73586  0.12076  1.0000
  H   H2446     1.0  0.37828  0.79684  0.21863  1.0000
  C   C3063     1.0  0.35361  0.48935  0.14441  1.0000
  C   C3064     1.0  0.48427  0.75950  0.99732  1.0000
  H   H2447     1.0  0.62180  0.84380  0.17524  1.0000
  S   S406      1.0  0.44936  0.92916  0.18631  1.0000
  S   S407      1.0  0.59540  0.76809  0.99514  1.0000
  Fe  Fe205     1.0  0.43003  0.94351  0.20785  1.0000
  C   C3065     1.0  0.32802  0.53738  0.16285  1.0000
  H   H2448     1.0  0.56614  0.69757  0.14595  1.0000
  C   C3066     1.0  0.35136  0.87808  0.16726  1.0000
  C   C3067     1.0  0.63400  0.93402  0.20641  1.0000
  C   C3068     1.0  0.58606  0.80285  0.00262  1.0000
  H   H2449     1.0  0.34592  0.83315  0.04041  1.0000
  C   C3069     1.0  0.49021  0.75502  0.04475  1.0000
  C   C3070     1.0  0.42937  0.82445  0.21828  1.0000
  C   C3071     1.0  0.36343  0.64520  0.14951  1.0000
  H   H2450     1.0  0.45670  0.72870  0.00698  1.0000
  C   C3072     1.0  0.37134  0.76944  0.06656  1.0000
  S   S408      1.0  0.33414  0.58806  0.13880  1.0000
  C   C3073     1.0  0.48992  0.91081  0.22966  1.0000
  H   H2451     1.0  0.32541  0.85294  0.22556  1.0000
  H   H2452     1.0  0.49361  0.75427  0.12314  1.0000
  H   H2453     1.0  0.41020  0.63365  0.21645  1.0000
  H   H2454     1.0  0.63890  0.97831  0.19527  1.0000
  C   C3074     1.0  0.56809  0.89498  0.99769  1.0000
  H   H2455     1.0  0.47145  0.69645  0.15116  1.0000
  C   C3075     1.0  0.36391  0.64021  0.22476  1.0000
  C   C3076     1.0  0.37174  0.80105  0.06522  1.0000
  H   H2456     1.0  0.34362  0.90718  0.16709  1.0000
  H   H2457     1.0  0.35780  0.76428  0.98817  1.0000
  C   C3077     1.0  0.35960  0.88901  0.12895  1.0000
  C   C3078     1.0  0.36660  0.70984  0.16802  1.0000
  C   C3079     1.0  0.40589  0.69782  0.13589  1.0000
  C   C3080     1.0  0.64115  0.85929  0.17504  1.0000
  C   C3081     1.0  0.42237  0.71939  0.10373  1.0000
  H   H2458     1.0  0.59351  0.75530  0.18370  1.0000
  C   C3082     1.0  0.48891  0.74158  0.12934  1.0000
  C   C3083     1.0  0.39300  0.75513  0.01005  1.0000
  H   H2459     1.0  0.58022  0.82988  0.00841  1.0000
  C   C3084     1.0  0.53983  0.71564  0.15073  1.0000
  S   S409      1.0  0.57422  0.68861  0.22227  1.0000
  C   C3085     1.0  0.48454  0.72868  0.19153  1.0000
  C   C3086     1.0  0.62982  0.84668  0.18337  1.0000
  C   C3087     1.0  0.38104  0.66903  0.13643  1.0000
  P   P105      1.0  0.39685  0.68350  0.15710  1.0000
  H   H2460     1.0  0.59991  0.61353  0.21473  1.0000
  C   C3088     1.0  0.37753  0.76425  0.08303  1.0000
  C   C3089     1.0  0.47250  0.74773  0.00766  1.0000
  H   H2461     1.0  0.55007  0.97355  0.18333  1.0000
  H   H2462     1.0  0.33854  0.54046  0.16778  1.0000
  C   C3090     1.0  0.60936  0.57778  0.17349  1.0000
  S   S410      1.0  0.57785  0.89436  0.21228  1.0000
  C   C3091     1.0  0.38148  0.69647  0.17334  1.0000
  H   H2463     1.0  0.57833  0.85544  0.98208  1.0000
  C   C3092     1.0  0.33473  0.79834  0.04304  1.0000
  H   H2464     1.0  0.49730  0.76156  0.19928  1.0000
  C   C3093     1.0  0.49058  0.77402  0.20427  1.0000
  H   H2465     1.0  0.46688  0.96528  0.22836  1.0000
  H   H2466     1.0  0.46305  0.71541  0.12218  1.0000
  C   C3094     1.0  0.62773  0.72575  0.17528  1.0000
  C   C3095     1.0  0.35765  0.84767  0.19938  1.0000
  C   C3096     1.0  0.38599  0.54588  0.15714  1.0000
  C   C3097     1.0  0.39629  0.53001  0.16598  1.0000
  C   C3098     1.0  0.39435  0.51283  0.16487  1.0000
  C   C3099     1.0  0.38206  0.51149  0.15499  1.0000
  C   C3100     1.0  0.37143  0.52740  0.14633  1.0000
  C   C3101     1.0  0.37353  0.54460  0.14745  1.0000
  P   P106      1.0  0.35521  0.52624  0.13369  1.0000
  C   C3102     1.0  0.35916  0.54232  0.11226  1.0000
  C   C3103     1.0  0.35854  0.50339  0.12970  1.0000
  C   C3104     1.0  0.36521  0.49952  0.11208  1.0000
  C   C3105     1.0  0.54875  0.96854  0.14700  1.0000
  C   C3106     1.0  0.51346  0.95611  0.17711  1.0000
  Fe  Fe206     1.0  0.32994  0.58740  0.16892  1.0000
  C   C3107     1.0  0.58397  0.77033  0.22344  1.0000
  C   C3108     1.0  0.57966  0.90485  0.98394  1.0000
  C   C3109     1.0  0.35053  0.83344  0.19737  1.0000
  C   C3110     1.0  0.36605  0.56744  0.07912  1.0000
  C   C3111     1.0  0.38049  0.55446  0.08554  1.0000
  C   C3112     1.0  0.35515  0.89775  0.22794  1.0000
  H   H2467     1.0  0.58579  0.84843  0.19750  1.0000
  H   H2468     1.0  0.38660  0.67832  0.12448  1.0000
  C   C3113     1.0  0.61220  0.57803  0.20404  1.0000
  H   H2469     1.0  0.56764  0.77031  0.20466  1.0000
  C   C3114     1.0  0.64574  0.77536  0.16491  1.0000
  C   C3115     1.0  0.59581  0.75777  0.19601  1.0000
  H   H2470     1.0  0.51615  0.83056  0.21788  1.0000
  C   C3116     1.0  0.35638  0.71570  0.19874  1.0000
  H   H2471     1.0  0.36078  0.85049  0.16209  1.0000
  H   H2472     1.0  0.40695  0.74748  0.00938  1.0000
  C   C3117     1.0  0.49581  0.71544  0.21951  1.0000
  H   H2473     1.0  0.43504  0.69391  0.09494  1.0000
  C   C3118     1.0  0.42588  0.70035  0.10574  1.0000
  C   C3119     1.0  0.32423  0.51678  0.21377  1.0000
  C   C3120     1.0  0.37769  0.79584  0.08179  1.0000
  C   C3121     1.0  0.62571  0.78330  0.13745  1.0000
  H   H2474     1.0  0.60337  0.85611  0.22712  1.0000
  H   H2475     1.0  0.33327  0.49980  0.09264  1.0000
  C   C3122     1.0  0.36896  0.90692  0.21746  1.0000
  H   H2476     1.0  0.34433  0.78483  0.01003  1.0000
  C   C3123     1.0  0.52737  0.90560  0.21480  1.0000
  C   C3124     1.0  0.36555  0.81593  0.02310  1.0000
  C   C3125     1.0  0.37244  0.81099  0.21334  1.0000
  H   H2477     1.0  0.38668  0.80312  0.00310  1.0000
  C   C3126     1.0  0.56766  0.87720  0.99694  1.0000
  C   C3127     1.0  0.64534  0.58815  0.20697  1.0000
  C   C3128     1.0  0.47782  0.97681  0.18097  1.0000
  S   S411      1.0  0.62639  0.68001  0.22516  1.0000
  S   S412      1.0  0.32599  0.58493  0.22048  1.0000
  H   H2478     1.0  0.58753  0.57628  0.22489  1.0000
  C   C3129     1.0  0.63790  0.96480  0.20355  1.0000
  C   C3130     1.0  0.52002  0.91562  0.22866  1.0000
  H   H2479     1.0  0.37441  0.91496  0.22360  1.0000
  H   H2480     1.0  0.64051  0.70530  0.13839  1.0000
  S   S413      1.0  0.58582  0.93097  0.22115  1.0000
  C   C3131     1.0  0.32253  0.51156  0.09494  1.0000
  Fe  Fe207     1.0  0.56247  0.71771  0.22550  1.0000
  H   H2481     1.0  0.45059  0.82831  0.98454  1.0000
  C   C3132     1.0  0.65047  0.72135  0.21039  1.0000
  H   H2482     1.0  0.63565  0.95412  0.18120  1.0000
  H   H2483     1.0  0.49692  0.80168  0.22890  1.0000
  H   H2484     1.0  0.33043  0.81719  0.01764  1.0000
  C   C3133     1.0  0.38121  0.64282  0.22488  1.0000
  H   H2485     1.0  0.63245  0.92345  0.20037  1.0000
  H   H2486     1.0  0.65317  0.77273  0.17567  1.0000
  C   C3134     1.0  0.65308  0.64905  0.22264  1.0000
  C   C3135     1.0  0.63769  0.96127  0.22228  1.0000
  H   H2487     1.0  0.61298  0.84751  0.98705  1.0000
  H   H2488     1.0  0.55118  0.81065  0.98254  1.0000
  H   H2489     1.0  0.61688  0.54253  0.22196  1.0000
  S   S414      1.0  0.62402  0.88604  0.22585  1.0000
  H   H2490     1.0  0.47186  0.84899  0.98014  1.0000
  H   H2491     1.0  0.63953  0.83543  0.22600  1.0000
  C   C3136     1.0  0.47158  0.73870  0.98013  1.0000
  H   H2492     1.0  0.46401  0.98476  0.18264  1.0000
  C   C3137     1.0  0.62738  0.54036  0.22966  1.0000
  C   C3138     1.0  0.54621  0.85719  0.22989  1.0000
  S   S415      1.0  0.39662  0.89472  0.25096  1.0000
  S   S416      1.0  0.56471  0.72408  0.28802  1.0000
  Fe  Fe208     1.0  0.59237  0.83308  0.32069  1.0000
  S   S417      1.0  0.61817  0.81159  0.31981  1.0000
  S   S418      1.0  0.59068  0.86338  0.31006  1.0000
  Fe  Fe209     1.0  0.56818  0.80614  0.34261  1.0000
  S   S419      1.0  0.59199  0.78226  0.34391  1.0000
  S   S420      1.0  0.53865  0.80622  0.35672  1.0000
  Fe  Fe210     1.0  0.60676  0.80135  0.34949  1.0000
  H   H2493     1.0  0.58537  0.89729  0.28444  1.0000
  Fe  Fe211     1.0  0.60139  0.79438  0.31420  1.0000
  S   S421      1.0  0.61298  0.77782  0.29192  1.0000
  S   S422      1.0  0.58206  0.82414  0.35072  1.0000
  S   S423      1.0  0.57650  0.81696  0.31252  1.0000
  Fe  Fe212     1.0  0.46278  0.78121  0.32568  1.0000
  S   S424      1.0  0.45529  0.80264  0.30183  1.0000
  S   S425      1.0  0.49283  0.76938  0.32437  1.0000
  Fe  Fe213     1.0  0.42284  0.77897  0.34253  1.0000
  S   S426      1.0  0.41215  0.80050  0.31983  1.0000
  S   S427      1.0  0.40491  0.76160  0.36421  1.0000
  Fe  Fe214     1.0  0.43565  0.78605  0.30137  1.0000
  S   S428      1.0  0.43483  0.78049  0.27449  1.0000
  Fe  Fe215     1.0  0.43277  0.81524  0.32222  1.0000
  S   S429      1.0  0.42927  0.84566  0.31883  1.0000
  S   S430      1.0  0.44487  0.76349  0.32361  1.0000
  S   S431      1.0  0.44165  0.79495  0.34657  1.0000
  H   H2494     1.0  0.42609  0.73165  0.24972  1.0000
  S   S432      1.0  0.35206  0.79677  0.42923  1.0000
  C   C3139     1.0  0.33799  0.59421  0.26514  1.0000
  H   H2495     1.0  0.38165  0.87036  0.28269  1.0000
  P   P107      1.0  0.63424  0.93955  0.25767  1.0000
  Fe  Fe216     1.0  0.32631  0.78649  0.44408  1.0000
  H   H2496     1.0  0.39537  0.84678  0.25715  1.0000
  S   S433      1.0  0.40555  0.70943  0.28025  1.0000
  H   H2497     1.0  0.39445  0.85064  0.30921  1.0000
  C   C3140     1.0  0.48600  0.97705  0.29762  1.0000
  C   C3141     1.0  0.40320  0.93096  0.27475  1.0000
  S   S434      1.0  0.32413  0.76245  0.46763  1.0000
  C   C3142     1.0  0.42731  0.76034  0.27630  1.0000
  C   C3143     1.0  0.43023  0.75303  0.26069  1.0000
  C   C3144     1.0  0.42393  0.73716  0.26183  1.0000
  C   C3145     1.0  0.41442  0.72875  0.27854  1.0000
  C   C3146     1.0  0.41159  0.73602  0.29416  1.0000
  C   C3147     1.0  0.41808  0.75176  0.29306  1.0000
  H   H2498     1.0  0.58183  0.77317  0.40679  1.0000
  H   H2499     1.0  0.49010  0.92324  0.28833  1.0000
  H   H2500     1.0  0.40434  0.72947  0.30711  1.0000
  H   H2501     1.0  0.41573  0.75739  0.30513  1.0000
  C   C3148     1.0  0.38944  0.77195  0.38154  1.0000
  C   C3149     1.0  0.38943  0.78969  0.38279  1.0000
  C   C3150     1.0  0.37766  0.79731  0.39733  1.0000
  C   C3151     1.0  0.36549  0.78744  0.41036  1.0000
  C   C3152     1.0  0.36504  0.76993  0.40874  1.0000
  C   C3153     1.0  0.37719  0.76212  0.39449  1.0000
  H   H2502     1.0  0.39865  0.79742  0.37265  1.0000
  H   H2503     1.0  0.37795  0.81089  0.39846  1.0000
  H   H2504     1.0  0.35574  0.76222  0.41876  1.0000
  H   H2505     1.0  0.37719  0.74839  0.39354  1.0000
  C   C3154     1.0  0.52606  0.79620  0.34732  1.0000
  C   C3155     1.0  0.53477  0.78488  0.33477  1.0000
  C   C3156     1.0  0.52441  0.77687  0.32767  1.0000
  C   C3157     1.0  0.50530  0.78038  0.33283  1.0000
  C   C3158     1.0  0.49654  0.79197  0.34513  1.0000
  C   C3159     1.0  0.50693  0.79968  0.35252  1.0000
  H   H2506     1.0  0.54950  0.78215  0.33067  1.0000
  H   H2507     1.0  0.53122  0.76797  0.31810  1.0000
  H   H2508     1.0  0.48180  0.79472  0.34914  1.0000
  H   H2509     1.0  0.50020  0.80856  0.36209  1.0000
  C   C3160     1.0  0.63528  0.65632  0.23110  1.0000
  H   H2510     1.0  0.50252  0.61940  0.26297  1.0000
  C   C3161     1.0  0.59509  0.88734  0.27731  1.0000
  S   S435      1.0  0.54590  0.65614  0.26066  1.0000
  C   C3162     1.0  0.35062  0.75194  0.32200  1.0000
  C   C3163     1.0  0.65484  0.82776  0.36704  1.0000
  H   H2511     1.0  0.43762  0.84695  0.24743  1.0000
  H   H2512     1.0  0.48936  0.96285  0.29636  1.0000
  C   C3164     1.0  0.57795  0.73949  0.28836  1.0000
  C   C3165     1.0  0.59365  0.74204  0.27499  1.0000
  C   C3166     1.0  0.60437  0.75375  0.27624  1.0000
  C   C3167     1.0  0.59924  0.76331  0.29058  1.0000
  C   C3168     1.0  0.58338  0.76098  0.30375  1.0000
  C   C3169     1.0  0.57288  0.74899  0.30273  1.0000
  H   H2513     1.0  0.58696  0.96052  0.30877  1.0000
  H   H2514     1.0  0.57936  0.76818  0.31491  1.0000
  H   H2515     1.0  0.56082  0.74698  0.31318  1.0000
  C   C3170     1.0  0.41235  0.82179  0.24969  1.0000
  C   C3171     1.0  0.40664  0.87946  0.26863  1.0000
  C   C3172     1.0  0.42495  0.87800  0.26909  1.0000
  C   C3173     1.0  0.43213  0.86694  0.28422  1.0000
  C   C3174     1.0  0.42109  0.85724  0.29880  1.0000
  C   C3175     1.0  0.40304  0.85810  0.29797  1.0000
  C   C3176     1.0  0.39580  0.86928  0.28298  1.0000
  H   H2516     1.0  0.43342  0.88575  0.25806  1.0000
  H   H2517     1.0  0.44616  0.86603  0.28475  1.0000
  C   C3177     1.0  0.61313  0.85663  0.27751  1.0000
  C   C3178     1.0  0.50615  0.83458  0.31479  1.0000
  C   C3179     1.0  0.35371  0.72564  0.38851  1.0000
  C   C3180     1.0  0.50490  0.63321  0.25963  1.0000
  C   C3181     1.0  0.44804  0.93064  0.31358  1.0000
  H   H2518     1.0  0.54966  0.84056  0.41960  1.0000
  H   H2519     1.0  0.61671  0.75533  0.26614  1.0000
  C   C3182     1.0  0.50018  0.88378  0.27260  1.0000
  H   H2520     1.0  0.63706  0.59799  0.30781  1.0000
  C   C3183     1.0  0.46029  0.91986  0.32470  1.0000
  H   H2521     1.0  0.48041  0.80378  0.26572  1.0000
  H   H2522     1.0  0.37671  0.75875  0.30805  1.0000
  C   C3184     1.0  0.47604  0.81776  0.25884  1.0000
  H   H2523     1.0  0.62935  0.62805  0.31708  1.0000
  C   C3185     1.0  0.52478  0.65387  0.25742  1.0000
  C   C3186     1.0  0.63575  0.69277  0.26395  1.0000
  H   H2524     1.0  0.44054  0.93574  0.36398  1.0000
  C   C3187     1.0  0.53603  0.87472  0.44339  1.0000
  C   C3188     1.0  0.45563  0.94911  0.27431  1.0000
  H   H2525     1.0  0.40887  0.81346  0.26320  1.0000
  C   C3189     1.0  0.39659  0.91624  0.28706  1.0000
  C   C3190     1.0  0.40466  0.84052  0.24628  1.0000
  H   H2526     1.0  0.36066  0.76220  0.36458  1.0000
  C   C3191     1.0  0.49065  0.83933  0.30711  1.0000
  C   C3192     1.0  0.50983  0.98400  0.24946  1.0000
  H   H2527     1.0  0.38415  0.91292  0.28599  1.0000
  C   C3193     1.0  0.44264  0.93432  0.34995  1.0000
  Fe  Fe217     1.0  0.55861  0.68122  0.25105  1.0000
  H   H2528     1.0  0.47960  0.83957  0.28439  1.0000
  C   C3194     1.0  0.46391  0.85389  0.24167  1.0000
  C   C3195     1.0  0.52536  0.83606  0.23983  1.0000
  H   H2529     1.0  0.45919  0.86793  0.23510  1.0000
  C   C3196     1.0  0.60752  0.95101  0.28662  1.0000
  C   C3197     1.0  0.57441  0.83812  0.26455  1.0000
  H   H2530     1.0  0.34483  0.85587  0.45658  1.0000
  C   C3198     1.0  0.40638  0.90536  0.30028  1.0000
  H   H2531     1.0  0.48061  0.87201  0.26647  1.0000
  C   C3199     1.0  0.64548  0.60806  0.30121  1.0000
  H   H2532     1.0  0.59837  0.90637  0.25154  1.0000
  C   C3200     1.0  0.45784  0.82390  0.25692  1.0000
  C   C3201     1.0  0.61779  0.83638  0.45045  1.0000
  H   H2533     1.0  0.43740  0.75964  0.24773  1.0000
  H   H2534     1.0  0.59917  0.94938  0.24586  1.0000
  C   C3202     1.0  0.63356  0.84280  0.44070  1.0000
  H   H2535     1.0  0.65365  0.86228  0.28280  1.0000
  H   H2536     1.0  0.43052  0.90021  0.31112  1.0000
  H   H2537     1.0  0.40147  0.89365  0.30950  1.0000
  C   C3203     1.0  0.37902  0.82935  0.45666  1.0000
  H   H2538     1.0  0.40096  0.83063  0.46867  1.0000
  H   H2539     1.0  0.35975  0.57171  0.25826  1.0000
  C   C3204     1.0  0.52288  0.82628  0.30530  1.0000
  C   C3205     1.0  0.33745  0.73826  0.39309  1.0000
  S   S436      1.0  0.47144  0.64254  0.25078  1.0000
  H   H2540     1.0  0.61124  0.84992  0.34408  1.0000
  Fe  Fe218     1.0  0.44645  0.66368  0.24425  1.0000
  C   C3206     1.0  0.52718  0.95224  0.29852  1.0000
  C   C3207     1.0  0.63029  0.79249  0.23819  1.0000
  C   C3208     1.0  0.64271  0.97085  0.26232  1.0000
  H   H2541     1.0  0.45127  0.96547  0.29464  1.0000
  H   H2542     1.0  0.48472  0.67713  0.24403  1.0000
  H   H2543     1.0  0.60137  0.77593  0.42649  1.0000
  H   H2544     1.0  0.47172  0.90974  0.31967  1.0000
  C   C3209     1.0  0.51541  0.78662  0.27649  1.0000
  H   H2545     1.0  0.64005  0.82146  0.34988  1.0000
  C   C3210     1.0  0.64814  0.67597  0.26484  1.0000
  C   C3211     1.0  0.63389  0.55515  0.23135  1.0000
  H   H2546     1.0  0.36089  0.82745  0.44024  1.0000
  C   C3212     1.0  0.56868  0.86996  0.43155  1.0000
  C   C3213     1.0  0.48204  0.84788  0.24371  1.0000
  C   C3214     1.0  0.65397  0.98078  0.26551  1.0000
  C   C3215     1.0  0.39641  0.83213  0.45612  1.0000
  H   H2547     1.0  0.35342  0.64314  0.31193  1.0000
  H   H2548     1.0  0.61847  0.94800  0.29399  1.0000
  C   C3216     1.0  0.36673  0.75760  0.32082  1.0000
  H   H2549     1.0  0.56928  0.81079  0.27056  1.0000
  H   H2550     1.0  0.62294  0.69431  0.25982  1.0000
  H   H2551     1.0  0.42295  0.95102  0.31279  1.0000
  C   C3217     1.0  0.53476  0.77233  0.24564  1.0000
  H   H2552     1.0  0.58160  0.87378  0.43015  1.0000
  C   C3218     1.0  0.46758  0.89610  0.27755  1.0000
  C   C3219     1.0  0.43280  0.94290  0.32103  1.0000
  C   C3220     1.0  0.64077  0.80043  0.39414  1.0000
  C   C3221     1.0  0.40815  0.83670  0.43931  1.0000
  C   C3222     1.0  0.63636  0.80443  0.37683  1.0000
  H   H2553     1.0  0.56556  0.84168  0.27703  1.0000
  H   H2554     1.0  0.55365  0.89014  0.44764  1.0000
  H   H2555     1.0  0.46020  0.93734  0.25053  1.0000
  C   C3223     1.0  0.49193  0.83606  0.28979  1.0000
  H   H2556     1.0  0.64310  0.77069  0.25737  1.0000
  C   C3224     1.0  0.34089  0.75448  0.35399  1.0000
  H   H2557     1.0  0.41180  0.84177  0.40993  1.0000
  H   H2558     1.0  0.53504  0.92979  0.32015  1.0000
  C   C3225     1.0  0.55285  0.87932  0.44145  1.0000
  H   H2559     1.0  0.61718  0.84273  0.28472  1.0000
  C   C3226     1.0  0.51886  0.79861  0.25949  1.0000
  S   S437      1.0  0.54509  0.71014  0.25329  1.0000
  C   C3227     1.0  0.60480  0.85719  0.35515  1.0000
  C   C3228     1.0  0.63292  0.62608  0.24950  1.0000
  C   C3229     1.0  0.47545  0.79172  0.43714  1.0000
  C   C3230     1.0  0.58396  0.85083  0.25217  1.0000
  H   H2560     1.0  0.49334  0.70961  0.23401  1.0000
  C   C3231     1.0  0.60176  0.84746  0.37322  1.0000
  C   C3232     1.0  0.34015  0.72893  0.42496  1.0000
  C   C3233     1.0  0.59840  0.59697  0.26680  1.0000
  C   C3234     1.0  0.37013  0.76143  0.33620  1.0000
  Fe  Fe219     1.0  0.56944  0.71082  0.26378  1.0000
  C   C3235     1.0  0.52192  0.76774  0.27808  1.0000
  C   C3236     1.0  0.59538  0.80543  0.42030  1.0000
  C   C3237     1.0  0.34514  0.63927  0.30472  1.0000
  C   C3238     1.0  0.48548  0.77462  0.44407  1.0000
  C   C3239     1.0  0.65073  0.61879  0.24109  1.0000
  C   C3240     1.0  0.64596  0.75371  0.41991  1.0000
  H   H2561     1.0  0.47752  0.84526  0.31466  1.0000
  H   H2562     1.0  0.50518  0.83686  0.32832  1.0000
  C   C3241     1.0  0.49490  0.66572  0.24896  1.0000
  C   C3242     1.0  0.61536  0.87982  0.24940  1.0000
  C   C3243     1.0  0.63981  0.70749  0.26844  1.0000
  S   S438      1.0  0.58588  0.72035  0.23615  1.0000
  C   C3244     1.0  0.42387  0.82676  0.37459  1.0000
  C   C3245     1.0  0.43877  0.83497  0.36553  1.0000
  C   C3246     1.0  0.45612  0.82662  0.36917  1.0000
  C   C3247     1.0  0.45859  0.81004  0.38181  1.0000
  C   C3248     1.0  0.44370  0.80172  0.39101  1.0000
  C   C3249     1.0  0.42633  0.81013  0.38717  1.0000
  P   P108      1.0  0.44775  0.77898  0.40499  1.0000
  C   C3250     1.0  0.45827  0.76407  0.38895  1.0000
  C   C3251     1.0  0.46248  0.77741  0.42024  1.0000
  C   C3252     1.0  0.47228  0.76024  0.42757  1.0000
  C   C3253     1.0  0.48383  0.75888  0.43935  1.0000
  C   C3254     1.0  0.46388  0.79312  0.42536  1.0000
  C   C3255     1.0  0.44736  0.75802  0.38070  1.0000
  C   C3256     1.0  0.45538  0.74694  0.36785  1.0000
  C   C3257     1.0  0.47436  0.74222  0.36273  1.0000
  C   C3258     1.0  0.48536  0.74866  0.37044  1.0000
  C   C3259     1.0  0.47737  0.75965  0.38343  1.0000
  C   C3260     1.0  0.42695  0.77277  0.41943  1.0000
  C   C3261     1.0  0.41379  0.78566  0.42833  1.0000
  C   C3262     1.0  0.39705  0.78143  0.43825  1.0000
  C   C3263     1.0  0.39347  0.76422  0.43968  1.0000
  C   C3264     1.0  0.40690  0.75095  0.43181  1.0000
  C   C3265     1.0  0.42371  0.75509  0.42197  1.0000
  H   H2563     1.0  0.41060  0.83283  0.37110  1.0000
  H   H2564     1.0  0.43697  0.84739  0.35513  1.0000
  H   H2565     1.0  0.46779  0.83262  0.36163  1.0000
  H   H2566     1.0  0.47225  0.80333  0.38388  1.0000
  H   H2567     1.0  0.41485  0.80352  0.39319  1.0000
  H   H2568     1.0  0.47111  0.74792  0.42403  1.0000
  H   H2569     1.0  0.53155  0.80006  0.23075  1.0000
  H   H2570     1.0  0.45612  0.80645  0.42021  1.0000
  H   H2571     1.0  0.43261  0.76225  0.38378  1.0000
  H   H2572     1.0  0.44680  0.74267  0.36134  1.0000
  H   H2573     1.0  0.48055  0.73434  0.35211  1.0000
  H   H2574     1.0  0.50006  0.74584  0.36565  1.0000
  H   H2575     1.0  0.48613  0.76513  0.38863  1.0000
  H   H2576     1.0  0.41622  0.79916  0.42707  1.0000
  H   H2577     1.0  0.38651  0.79172  0.44420  1.0000
  H   H2578     1.0  0.62937  0.97799  0.25949  1.0000
  H   H2579     1.0  0.40409  0.73762  0.43287  1.0000
  H   H2580     1.0  0.43392  0.74457  0.41600  1.0000
  C   C3266     1.0  0.47531  0.65434  0.29804  1.0000
  C   C3267     1.0  0.45949  0.65911  0.29089  1.0000
  C   C3268     1.0  0.45047  0.67740  0.28741  1.0000
  C   C3269     1.0  0.45742  0.69100  0.29070  1.0000
  C   C3270     1.0  0.47357  0.68640  0.29748  1.0000
  C   C3271     1.0  0.48210  0.66785  0.30174  1.0000
  P   P109      1.0  0.48096  0.70385  0.30385  1.0000
  C   C3272     1.0  0.50440  0.69792  0.30651  1.0000
  C   C3273     1.0  0.47963  0.72503  0.28713  1.0000
  C   C3274     1.0  0.47873  0.72561  0.26906  1.0000
  C   C3275     1.0  0.59080  0.88557  0.36551  1.0000
  C   C3276     1.0  0.58791  0.81625  0.24480  1.0000
  C   C3277     1.0  0.47970  0.75758  0.27924  1.0000
  C   C3278     1.0  0.48040  0.74108  0.29204  1.0000
  C   C3279     1.0  0.50987  0.70627  0.31783  1.0000
  C   C3280     1.0  0.52818  0.70250  0.31924  1.0000
  C   C3281     1.0  0.54113  0.69032  0.30944  1.0000
  C   C3282     1.0  0.53587  0.68228  0.29787  1.0000
  C   C3283     1.0  0.51768  0.68643  0.29601  1.0000
  C   C3284     1.0  0.46516  0.70746  0.32487  1.0000
  C   C3285     1.0  0.44791  0.71887  0.32422  1.0000
  C   C3286     1.0  0.43495  0.72072  0.34035  1.0000
  C   C3287     1.0  0.43908  0.71108  0.35722  1.0000
  C   C3288     1.0  0.45618  0.69951  0.35798  1.0000
  C   C3289     1.0  0.46914  0.69755  0.34184  1.0000
  H   H2581     1.0  0.48233  0.64014  0.30062  1.0000
  H   H2582     1.0  0.45425  0.64865  0.28795  1.0000
  H   H2583     1.0  0.43802  0.68104  0.28220  1.0000
  H   H2584     1.0  0.44998  0.70506  0.28818  1.0000
  H   H2585     1.0  0.49388  0.66368  0.30804  1.0000
  H   H2586     1.0  0.47859  0.71333  0.26483  1.0000
  H   H2587     1.0  0.59208  0.83160  0.44907  1.0000
  C   C3290     1.0  0.51155  0.66874  0.25100  1.0000
  H   H2588     1.0  0.47992  0.76996  0.28328  1.0000
  H   H2589     1.0  0.48147  0.74093  0.30579  1.0000
  H   H2590     1.0  0.50012  0.71610  0.32516  1.0000
  H   H2591     1.0  0.53249  0.70946  0.32743  1.0000
  H   H2592     1.0  0.55539  0.68773  0.31022  1.0000
  H   H2593     1.0  0.54599  0.67325  0.28989  1.0000
  H   H2594     1.0  0.51417  0.68089  0.28611  1.0000
  H   H2595     1.0  0.44445  0.72630  0.31122  1.0000
  H   H2596     1.0  0.42173  0.72979  0.33973  1.0000
  H   H2597     1.0  0.42902  0.71272  0.36967  1.0000
  H   H2598     1.0  0.45934  0.69193  0.37106  1.0000
  H   H2599     1.0  0.48211  0.68813  0.34257  1.0000
  C   C3291     1.0  0.59835  0.82857  0.23281  1.0000
  C   C3292     1.0  0.59595  0.84609  0.23637  1.0000
  H   H2600     1.0  0.46711  0.91342  0.35129  1.0000
  P   P110      1.0  0.51725  0.98151  0.27051  1.0000
  C   C3293     1.0  0.32850  0.63432  0.31402  1.0000
  C   C3294     1.0  0.57912  0.95946  0.26774  1.0000
  C   C3295     1.0  0.52414  0.82277  0.28810  1.0000
  C   C3296     1.0  0.36327  0.71503  0.40204  1.0000
  H   H2601     1.0  0.34917  0.79431  0.47088  1.0000
  C   C3297     1.0  0.62282  0.84863  0.41246  1.0000
  H   H2602     1.0  0.44836  0.81468  0.26218  1.0000
  H   H2603     1.0  0.53128  0.62466  0.26687  1.0000
  H   H2604     1.0  0.56508  0.80105  0.38919  1.0000
  C   C3298     1.0  0.58266  0.78656  0.40813  1.0000
  H   H2605     1.0  0.47670  0.74279  0.24249  1.0000
  H   H2606     1.0  0.47702  0.77112  0.25177  1.0000
  P   P111      1.0  0.58858  0.84385  0.41087  1.0000
  C   C3299     1.0  0.57325  0.80228  0.39818  1.0000
  C   C3300     1.0  0.65228  0.80986  0.39789  1.0000
  C   C3301     1.0  0.63605  0.84894  0.42175  1.0000
  S   S439      1.0  0.58158  0.68098  0.26423  1.0000
  C   C3302     1.0  0.47002  0.91050  0.28408  1.0000
  H   H2607     1.0  0.59794  0.59248  0.28136  1.0000
  H   H2608     1.0  0.59766  0.73474  0.26390  1.0000
  C   C3303     1.0  0.37388  0.83041  0.44018  1.0000
  H   H2609     1.0  0.53701  0.81570  0.28122  1.0000
  H   H2610     1.0  0.33882  0.55121  0.26065  1.0000
  H   H2611     1.0  0.33473  0.73006  0.43912  1.0000
  C   C3304     1.0  0.45763  0.92180  0.34278  1.0000
  H   H2612     1.0  0.36392  0.70853  0.43074  1.0000
  C   C3305     1.0  0.42289  0.90907  0.30108  1.0000
  H   H2613     1.0  0.53637  0.84584  0.25787  1.0000
  C   C3306     1.0  0.59284  0.85666  0.38759  1.0000
  C   C3307     1.0  0.48259  0.88278  0.27192  1.0000
  C   C3308     1.0  0.47791  0.74221  0.25630  1.0000
  H   H2614     1.0  0.51949  0.75859  0.29130  1.0000
  C   C3309     1.0  0.50121  0.91859  0.23579  1.0000
  H   H2615     1.0  0.60453  0.80622  0.42842  1.0000
  Fe  Fe220     1.0  0.41676  0.69478  0.25667  1.0000
  C   C3310     1.0  0.33332  0.56488  0.26336  1.0000
  C   C3311     1.0  0.34040  0.83137  0.47697  1.0000
  H   H2616     1.0  0.61146  0.65017  0.25117  1.0000
  C   C3312     1.0  0.34045  0.63438  0.27669  1.0000
  C   C3313     1.0  0.57495  0.81958  0.39920  1.0000
  H   H2617     1.0  0.54207  0.76660  0.23371  1.0000
  C   C3314     1.0  0.53156  0.76061  0.26268  1.0000
  H   H2618     1.0  0.46198  0.97363  0.31871  1.0000
  H   H2619     1.0  0.47673  0.80391  0.44082  1.0000
  C   C3315     1.0  0.54897  0.92958  0.27476  1.0000
  C   C3316     1.0  0.54699  0.92323  0.29364  1.0000
  C   C3317     1.0  0.53626  0.93463  0.30552  1.0000
  C   C3318     1.0  0.52841  0.95845  0.27954  1.0000
  C   C3319     1.0  0.53995  0.94719  0.26774  1.0000
  H   H2620     1.0  0.53661  0.74596  0.26404  1.0000
  H   H2621     1.0  0.33773  0.78562  0.37276  1.0000
  H   H2622     1.0  0.56178  0.96811  0.29192  1.0000
  C   C3320     1.0  0.50880  0.82801  0.27999  1.0000
  C   C3321     1.0  0.45501  0.96499  0.28033  1.0000
  H   H2623     1.0  0.49546  0.92670  0.24618  1.0000
  H   H2624     1.0  0.55747  0.92085  0.26548  1.0000
  H   H2625     1.0  0.55390  0.90951  0.29904  1.0000
  H   H2626     1.0  0.54220  0.95198  0.25303  1.0000
  C   C3322     1.0  0.64761  0.55165  0.24140  1.0000
  H   H2627     1.0  0.43030  0.79921  0.23850  1.0000
  H   H2628     1.0  0.36396  0.64325  0.27870  1.0000
  C   C3323     1.0  0.64113  0.62498  0.30638  1.0000
  S   S440      1.0  0.38243  0.65969  0.23616  1.0000
  C   C3324     1.0  0.58594  0.82133  0.41036  1.0000
  C   C3325     1.0  0.58771  0.87586  0.38364  1.0000
  C   C3326     1.0  0.60019  0.86935  0.28670  1.0000
  C   C3327     1.0  0.64318  0.77668  0.24301  1.0000
  H   H2629     1.0  0.35180  0.64896  0.23084  1.0000
  S   S441      1.0  0.44534  0.69358  0.24033  1.0000
  C   C3328     1.0  0.61060  0.58659  0.25461  1.0000
  C   C3329     1.0  0.50279  0.89827  0.27875  1.0000
  H   H2630     1.0  0.51183  0.87372  0.26773  1.0000
  H   H2631     1.0  0.51653  0.89952  0.27841  1.0000
  C   C3330     1.0  0.48779  0.91170  0.28431  1.0000
  C   C3331     1.0  0.62519  0.64476  0.24454  1.0000
  H   H2632     1.0  0.63010  0.72042  0.26795  1.0000
  H   H2633     1.0  0.64586  0.74315  0.34187  1.0000
  C   C3332     1.0  0.47039  0.98314  0.31016  1.0000
  S   S442      1.0  0.41853  0.66439  0.26255  1.0000
  S   S443      1.0  0.62224  0.79169  0.37279  1.0000
  H   H2634     1.0  0.34742  0.60293  0.26370  1.0000
  H   H2635     1.0  0.32569  0.74546  0.33908  1.0000
  C   C3333     1.0  0.57637  0.82082  0.26084  1.0000
  H   H2636     1.0  0.58232  0.86430  0.25496  1.0000
  P   P112      1.0  0.51068  0.82307  0.25780  1.0000
  C   C3334     1.0  0.61132  0.59237  0.23569  1.0000
  H   H2637     1.0  0.56800  0.83159  0.39092  1.0000
  H   H2638     1.0  0.62085  0.79847  0.24912  1.0000
  H   H2639     1.0  0.64249  0.77411  0.32222  1.0000
  Fe  Fe221     1.0  0.59623  0.69036  0.23561  1.0000
  C   C3335     1.0  0.35110  0.63930  0.28605  1.0000
  H   H2640     1.0  0.58120  0.88336  0.39445  1.0000
  C   C3336     1.0  0.53504  0.86075  0.43542  1.0000
  H   H2641     1.0  0.62509  0.61726  0.25998  1.0000
  H   H2642     1.0  0.63512  0.79009  0.40478  1.0000
  H   H2643     1.0  0.64472  0.66468  0.26135  1.0000
  H   H2644     1.0  0.60605  0.83271  0.37589  1.0000
  H   H2645     1.0  0.38283  0.76543  0.33542  1.0000
  H   H2646     1.0  0.35905  0.72390  0.37452  1.0000
  C   C3337     1.0  0.41959  0.93487  0.27566  1.0000
  P   P113      1.0  0.45089  0.92845  0.29022  1.0000
  H   H2647     1.0  0.62969  0.51102  0.23636  1.0000
  H   H2648     1.0  0.42151  0.83897  0.43895  1.0000
  C   C3338     1.0  0.61115  0.94784  0.26880  1.0000
  H   H2649     1.0  0.37589  0.70547  0.39836  1.0000
  C   C3339     1.0  0.60246  0.89250  0.25865  1.0000
  C   C3340     1.0  0.42062  0.98222  0.23633  1.0000
  S   S444      1.0  0.53432  0.92420  0.23724  1.0000
  H   H2650     1.0  0.45422  0.89541  0.27620  1.0000
  C   C3341     1.0  0.48820  0.82979  0.25249  1.0000
  H   H2651     1.0  0.58924  0.80281  0.24211  1.0000
  H   H2652     1.0  0.39576  0.93914  0.26427  1.0000
  C   C3342     1.0  0.42965  0.92382  0.28873  1.0000
  C   C3343     1.0  0.65035  0.87704  0.27839  1.0000
  C   C3344     1.0  0.47829  0.75818  0.26143  1.0000
  C   C3345     1.0  0.59368  0.78813  0.41921  1.0000
  C   C3346     1.0  0.62097  0.86197  0.25893  1.0000
  H   H2653     1.0  0.63095  0.85213  0.25185  1.0000
  C   C3347     1.0  0.45177  0.84201  0.24849  1.0000
  C   C3348     1.0  0.40272  0.83826  0.42296  1.0000
  C   C3349     1.0  0.33054  0.73952  0.41147  1.0000
  H   H2654     1.0  0.42432  0.94639  0.26604  1.0000
  C   C3350     1.0  0.64872  0.95200  0.26250  1.0000
  C   C3351     1.0  0.33488  0.84815  0.46543  1.0000
  C   C3352     1.0  0.63461  0.52242  0.23780  1.0000
  H   H2655     1.0  0.51929  0.96099  0.30794  1.0000
  C   C3353     1.0  0.55086  0.85132  0.42554  1.0000
  H   H2656     1.0  0.53475  0.82210  0.31155  1.0000
  C   C3354     1.0  0.52123  0.63620  0.26184  1.0000
  H   H2657     1.0  0.57882  0.63192  0.23643  1.0000
  C   C3355     1.0  0.56785  0.85583  0.42353  1.0000
  C   C3356     1.0  0.33776  0.75033  0.33850  1.0000
  C   C3357     1.0  0.53609  0.84609  0.24393  1.0000
  H   H2658     1.0  0.41843  0.95437  0.34467  1.0000
  H   H2659     1.0  0.57263  0.77700  0.23261  1.0000
  C   C3358     1.0  0.59676  0.95177  0.25956  1.0000
  H   H2660     1.0  0.38011  0.76136  0.44649  1.0000
  C   C3359     1.0  0.49162  0.64784  0.25318  1.0000
  H   H2661     1.0  0.50773  0.79173  0.28865  1.0000
  H   H2662     1.0  0.64832  0.85388  0.41423  1.0000
  H   H2663     1.0  0.38149  0.83586  0.41078  1.0000
  C   C3360     1.0  0.38564  0.83499  0.42342  1.0000
  H   H2664     1.0  0.49158  0.74562  0.44473  1.0000
  C   C3361     1.0  0.60439  0.83632  0.44128  1.0000
  C   C3362     1.0  0.34509  0.57642  0.26204  1.0000
  C   C3363     1.0  0.46005  0.94930  0.25549  1.0000
  H   H2665     1.0  0.65407  0.50519  0.25387  1.0000
  H   H2666     1.0  0.62522  0.85323  0.39773  1.0000
  H   H2667     1.0  0.58659  0.90035  0.36248  1.0000
  C   C3364     1.0  0.35654  0.71676  0.42025  1.0000
  C   C3365     1.0  0.57552  0.96242  0.28553  1.0000
  H   H2668     1.0  0.56838  0.96338  0.26006  1.0000
  C   C3366     1.0  0.59919  0.87621  0.35126  1.0000
  H   H2669     1.0  0.51414  0.68244  0.24772  1.0000
  H   H2670     1.0  0.60365  0.76890  0.23921  1.0000
  H   H2671     1.0  0.60126  0.88360  0.33716  1.0000
  Fe  Fe222     1.0  0.40770  0.66956  0.23685  1.0000
  H   H2672     1.0  0.41474  0.97013  0.24091  1.0000
  H   H2673     1.0  0.34533  0.63459  0.26223  1.0000
  C   C3367     1.0  0.60679  0.84248  0.42220  1.0000
  C   C3368     1.0  0.52865  0.79129  0.24404  1.0000
  H   H2674     1.0  0.49104  0.85758  0.23880  1.0000
  H   H2675     1.0  0.61941  0.57413  0.26003  1.0000
  C   C3369     1.0  0.35736  0.75978  0.35272  1.0000
  C   C3370     1.0  0.64833  0.51910  0.24771  1.0000
  H   H2676     1.0  0.52199  0.85717  0.43692  1.0000
  H   H2677     1.0  0.34828  0.74853  0.31013  1.0000
  C   C3371     1.0  0.58971  0.95813  0.29502  1.0000
  C   C3372     1.0  0.64338  0.81822  0.36327  1.0000
  C   C3373     1.0  0.63563  0.94402  0.23324  1.0000
  C   C3374     1.0  0.46357  0.98069  0.24903  1.0000
  H   H2678     1.0  0.52377  0.88198  0.45108  1.0000
  H   H2679     1.0  0.63208  0.75155  0.42348  1.0000
  C   C3375     1.0  0.50925  0.96871  0.24309  1.0000
  H   H2680     1.0  0.64532  0.75884  0.44626  1.0000
  C   C3376     1.0  0.46393  0.96506  0.24289  1.0000
  C   C3377     1.0  0.45906  0.98069  0.26770  1.0000
  H   H2681     1.0  0.64998  0.75023  0.39242  1.0000
  C   C3378     1.0  0.42463  0.81378  0.23573  1.0000
  H   H2682     1.0  0.51161  0.95506  0.25135  1.0000
  H   H2683     1.0  0.61849  0.91372  0.28998  1.0000
  C   C3379     1.0  0.65180  0.63809  0.29752  1.0000
  C   C3380     1.0  0.65317  0.75284  0.34320  1.0000
  C   C3381     1.0  0.58699  0.61329  0.26021  1.0000
  H   H2684     1.0  0.61600  0.83158  0.46515  1.0000
  C   C3382     1.0  0.43020  0.94482  0.33908  1.0000
  C   C3383     1.0  0.65477  0.53373  0.24957  1.0000
  C   C3384     1.0  0.63054  0.90628  0.28231  1.0000
  C   C3385     1.0  0.65121  0.77034  0.33214  1.0000
  H   H2685     1.0  0.64389  0.84297  0.44786  1.0000
  H   H2686     1.0  0.35010  0.89864  0.24220  1.0000
  C   C3386     1.0  0.64085  0.91517  0.26629  1.0000
  H   H2687     1.0  0.55404  0.86531  0.23312  1.0000
  C   C3387     1.0  0.65338  0.75785  0.43270  1.0000
  H   H2688     1.0  0.49455  0.77357  0.45307  1.0000
  H   H2689     1.0  0.64819  0.65116  0.30168  1.0000
  C   C3388     1.0  0.32332  0.78766  0.37871  1.0000
  H   H2690     1.0  0.65294  0.56277  0.24276  1.0000
  C   C3389     1.0  0.63538  0.88733  0.28837  1.0000
  H   H2691     1.0  0.57759  0.62145  0.26959  1.0000
  S   S445      1.0  0.43803  0.92115  0.23132  1.0000
  H   H2692     1.0  0.62710  0.88047  0.30046  1.0000
  H   H2693     1.0  0.63119  0.91738  0.23336  1.0000
  H   H2694     1.0  0.37318  0.85703  0.47945  1.0000
  H   H2695     1.0  0.65554  0.80654  0.41128  1.0000
  S   S446      1.0  0.40403  0.70027  0.23228  1.0000
  P   P114      1.0  0.36410  0.82270  0.47826  1.0000
  H   H2696     1.0  0.35730  0.76062  0.47826  1.0000
  C   C3390     1.0  0.36018  0.78766  0.47814  1.0000
  C   C3391     1.0  0.58771  0.61923  0.24144  1.0000
  H   H2697     1.0  0.47552  0.91263  0.23552  1.0000
  C   C3392     1.0  0.32366  0.62944  0.28586  1.0000
  P   P115      1.0  0.32481  0.75171  0.37575  1.0000
  H   H2698     1.0  0.32387  0.63437  0.32849  1.0000
  C   C3393     1.0  0.40255  0.74111  0.72731  1.0000
  S   S447      1.0  0.56355  0.82727  0.69921  1.0000
  H   H2699     1.0  0.32958  0.90700  0.57708  1.0000
  H   H2700     1.0  0.43399  0.76200  0.72401  1.0000
  H   H2701     1.0  0.65234  0.85359  0.63924  1.0000
  C   C3394     1.0  0.33460  0.78322  0.53568  1.0000
  Fe  Fe223     1.0  0.53866  0.83873  0.71837  1.0000
  S   S448      1.0  0.51102  0.85042  0.71081  1.0000
  Fe  Fe224     1.0  0.57847  0.84348  0.70848  1.0000
  S   S449      1.0  0.59978  0.85963  0.69084  1.0000
  C   C3395     1.0  0.44420  0.75055  0.71962  1.0000
  H   H2702     1.0  0.44659  0.90426  0.68833  1.0000
  C   C3396     1.0  0.46958  0.81635  0.71274  1.0000
  C   C3397     1.0  0.38468  0.78891  0.49175  1.0000
  H   H2703     1.0  0.34465  0.81388  0.72592  1.0000
  H   H2704     1.0  0.33014  0.84181  0.55223  1.0000
  S   S450      1.0  0.41376  0.84572  0.69919  1.0000
  H   H2705     1.0  0.37122  0.85100  0.53675  1.0000
  H   H2706     1.0  0.33099  0.80982  0.49852  1.0000
  Fe  Fe225     1.0  0.39098  0.83356  0.69693  1.0000
  H   H2707     1.0  0.35949  0.80856  0.51784  1.0000
  C   C3398     1.0  0.50538  0.89707  0.70691  1.0000
  H   H2708     1.0  0.34925  0.77860  0.53403  1.0000
  H   H2709     1.0  0.35906  0.51558  0.70399  1.0000
  C   C3399     1.0  0.41193  0.71578  0.67213  1.0000
  C   C3400     1.0  0.36204  0.81122  0.68011  1.0000
  C   C3401     1.0  0.35097  0.80093  0.67686  1.0000
  H   H2710     1.0  0.36623  0.80798  0.69308  1.0000
  C   C3402     1.0  0.52977  0.96035  0.72891  1.0000
  C   C3403     1.0  0.36706  0.83147  0.49660  1.0000
  C   C3404     1.0  0.49565  0.83683  0.71119  1.0000
  C   C3405     1.0  0.47855  0.84561  0.70690  1.0000
  C   C3406     1.0  0.46544  0.83547  0.70797  1.0000
  C   C3407     1.0  0.36484  0.76852  0.48215  1.0000
  H   H2711     1.0  0.32335  0.71698  0.48371  1.0000
  Fe  Fe226     1.0  0.42356  0.81815  0.71600  1.0000
  H   H2712     1.0  0.47540  0.86037  0.70296  1.0000
  H   H2713     1.0  0.45218  0.84245  0.70502  1.0000
  C   C3408     1.0  0.64133  0.75696  0.70078  1.0000
  C   C3409     1.0  0.34383  0.72614  0.72529  1.0000
  C   C3410     1.0  0.61184  0.85246  0.67026  1.0000
  C   C3411     1.0  0.60450  0.84232  0.66242  1.0000
  C   C3412     1.0  0.61418  0.83656  0.64618  1.0000
  C   C3413     1.0  0.63153  0.84035  0.63784  1.0000
  C   C3414     1.0  0.63901  0.85049  0.64563  1.0000
  C   C3415     1.0  0.62904  0.85676  0.66169  1.0000
  H   H2714     1.0  0.59121  0.83915  0.66866  1.0000
  H   H2715     1.0  0.60810  0.82919  0.64000  1.0000
  C   C3416     1.0  0.62054  0.73259  0.69973  1.0000
  H   H2716     1.0  0.63480  0.86462  0.66769  1.0000
  H   H2717     1.0  0.34234  0.73422  0.71181  1.0000
  C   C3417     1.0  0.47086  0.72112  0.70863  1.0000
  C   C3418     1.0  0.62671  0.73117  0.71563  1.0000
  H   H2718     1.0  0.51306  0.81080  0.71909  1.0000
  H   H2719     1.0  0.44114  0.73346  0.63457  1.0000
  C   C3419     1.0  0.58582  0.90867  0.70547  1.0000
  S   S451      1.0  0.33117  0.79195  0.65668  1.0000
  C   C3420     1.0  0.58452  0.79495  0.66375  1.0000
  H   H2720     1.0  0.48116  0.70965  0.70446  1.0000
  H   H2721     1.0  0.54183  0.95773  0.71843  1.0000
  C   C3421     1.0  0.49986  0.81771  0.71590  1.0000
  H   H2722     1.0  0.64924  0.76633  0.70157  1.0000
  H   H2723     1.0  0.57535  0.88430  0.71854  1.0000
  C   C3422     1.0  0.41250  0.72638  0.68413  1.0000
  S   S452      1.0  0.37230  0.84235  0.72202  1.0000
  H   H2724     1.0  0.35221  0.87402  0.66498  1.0000
  H   H2725     1.0  0.65044  0.90503  0.55543  1.0000
  H   H2726     1.0  0.42167  0.71021  0.64495  1.0000
  S   S453      1.0  0.38156  0.83904  0.67005  1.0000
  C   C3423     1.0  0.35455  0.51369  0.71871  1.0000
  C   C3424     1.0  0.33773  0.88088  0.69118  1.0000
  C   C3425     1.0  0.57415  0.93416  0.72105  1.0000
  C   C3426     1.0  0.61773  0.78625  0.65718  1.0000
  C   C3427     1.0  0.35593  0.89058  0.70699  1.0000
  C   C3428     1.0  0.34525  0.80517  0.66011  1.0000
  S   S454      1.0  0.40221  0.80545  0.71162  1.0000
  C   C3429     1.0  0.57470  0.89834  0.71914  1.0000
  H   H2727     1.0  0.61214  0.72339  0.69952  1.0000
  H   H2728     1.0  0.64974  0.83352  0.52026  1.0000
  H   H2729     1.0  0.37673  0.49096  0.72424  1.0000
  C   C3430     1.0  0.43318  0.73145  0.64842  1.0000
  C   C3431     1.0  0.58458  0.80034  0.64505  1.0000
  C   C3432     1.0  0.37293  0.85579  0.50763  1.0000
  H   H2730     1.0  0.32673  0.93666  0.58567  1.0000
  H   H2731     1.0  0.35143  0.72442  0.48736  1.0000
  H   H2732     1.0  0.57447  0.94789  0.72185  1.0000
  C   C3433     1.0  0.60114  0.79858  0.63237  1.0000
  H   H2733     1.0  0.39264  0.79660  0.49539  1.0000
  C   C3434     1.0  0.63715  0.74330  0.71612  1.0000
  H   H2734     1.0  0.40343  0.70562  0.67665  1.0000
  H   H2735     1.0  0.37627  0.86916  0.50496  1.0000
  C   C3435     1.0  0.33920  0.72567  0.49797  1.0000
  C   C3436     1.0  0.35088  0.81971  0.64657  1.0000
  C   C3437     1.0  0.46061  0.90296  0.70960  1.0000
  C   C3438     1.0  0.58557  0.92658  0.70643  1.0000
  H   H2736     1.0  0.51478  0.97991  0.70976  1.0000
  H   H2737     1.0  0.34669  0.82306  0.63359  1.0000
  C   C3439     1.0  0.36193  0.83001  0.64983  1.0000
  H   H2738     1.0  0.60061  0.78372  0.68429  1.0000
  C   C3440     1.0  0.35270  0.87937  0.67647  1.0000
  H   H2739     1.0  0.35949  0.77878  0.71983  1.0000
  H   H2740     1.0  0.35102  0.73574  0.51490  1.0000
  C   C3441     1.0  0.32709  0.82228  0.48898  1.0000
  H   H2741     1.0  0.34374  0.83995  0.69957  1.0000
  C   C3442     1.0  0.52453  0.92141  0.71095  1.0000
  P   P116      1.0  0.42394  0.75370  0.69352  1.0000
  C   C3443     1.0  0.42578  0.77642  0.68020  1.0000
  C   C3444     1.0  0.42222  0.71834  0.65427  1.0000
  H   H2742     1.0  0.43117  0.87864  0.70579  1.0000
  C   C3445     1.0  0.44313  0.74391  0.70469  1.0000
  C   C3446     1.0  0.33891  0.52532  0.72629  1.0000
  C   C3447     1.0  0.36756  0.82581  0.66660  1.0000
  C   C3448     1.0  0.63482  0.75873  0.68487  1.0000
  C   C3449     1.0  0.43822  0.78576  0.68241  1.0000
  C   C3450     1.0  0.43890  0.80359  0.67253  1.0000
  C   C3451     1.0  0.42735  0.81216  0.66022  1.0000
  C   C3452     1.0  0.41537  0.80277  0.65749  1.0000
  C   C3453     1.0  0.41462  0.78497  0.66736  1.0000
  C   C3454     1.0  0.42330  0.73972  0.67828  1.0000
  C   C3455     1.0  0.50758  0.91968  0.72249  1.0000
  C   C3456     1.0  0.44894  0.89742  0.70188  1.0000
  H   H2743     1.0  0.57176  0.79638  0.67370  1.0000
  H   H2744     1.0  0.54486  0.78197  0.70347  1.0000
  C   C3457     1.0  0.43377  0.74208  0.66038  1.0000
  H   H2745     1.0  0.40445  0.72418  0.69789  1.0000
  C   C3458     1.0  0.61765  0.79162  0.63837  1.0000
  H   H2746     1.0  0.53211  0.93069  0.71254  1.0000
  H   H2747     1.0  0.38737  0.77813  0.69588  1.0000
  C   C3459     1.0  0.33898  0.73202  0.51343  1.0000
  C   C3460     1.0  0.45664  0.72919  0.69918  1.0000
  H   H2748     1.0  0.62302  0.72094  0.72772  1.0000
  C   C3461     1.0  0.65294  0.82094  0.68774  1.0000
  H   H2749     1.0  0.57990  0.74091  0.71610  1.0000
  C   C3462     1.0  0.37069  0.88923  0.69222  1.0000
  H   H2750     1.0  0.44714  0.77968  0.69203  1.0000
  H   H2751     1.0  0.44806  0.81093  0.67486  1.0000
  H   H2752     1.0  0.42739  0.82621  0.65306  1.0000
  H   H2753     1.0  0.40619  0.80957  0.64816  1.0000
  H   H2754     1.0  0.40499  0.77808  0.66524  1.0000
  C   C3463     1.0  0.37937  0.75957  0.49091  1.0000
  C   C3464     1.0  0.46357  0.89417  0.72724  1.0000
  H   H2755     1.0  0.34672  0.78970  0.68740  1.0000
  H   H2756     1.0  0.46716  0.91423  0.70191  1.0000
  H   H2757     1.0  0.44233  0.75219  0.65565  1.0000
  C   C3465     1.0  0.63114  0.80414  0.68605  1.0000
  H   H2758     1.0  0.49831  0.88739  0.70526  1.0000
  H   H2759     1.0  0.33290  0.77335  0.51239  1.0000
  H   H2760     1.0  0.63020  0.79093  0.62822  1.0000
  H   H2761     1.0  0.45615  0.72376  0.68776  1.0000
  H   H2762     1.0  0.57184  0.80609  0.64040  1.0000
  S   S455      1.0  0.64293  0.83231  0.61758  1.0000
  C   C3466     1.0  0.51441  0.97299  0.72392  1.0000
  C   C3467     1.0  0.40325  0.75452  0.71105  1.0000
  C   C3468     1.0  0.36907  0.88362  0.67698  1.0000
  C   C3469     1.0  0.44338  0.87405  0.72907  1.0000
  C   C3470     1.0  0.36983  0.79799  0.48330  1.0000
  H   H2763     1.0  0.62506  0.82436  0.70264  1.0000
  H   H2764     1.0  0.61743  0.80156  0.69040  1.0000
  C   C3471     1.0  0.50662  0.75464  0.72786  1.0000
  C   C3472     1.0  0.33251  0.82469  0.72563  1.0000
  Fe  Fe227     1.0  0.56930  0.80577  0.72403  1.0000
  H   H2765     1.0  0.33088  0.61264  0.53493  1.0000
  H   H2766     1.0  0.52816  0.89026  0.68533  1.0000
  C   C3473     1.0  0.36368  0.82157  0.51469  1.0000
  H   H2767     1.0  0.64161  0.74239  0.72858  1.0000
  C   C3474     1.0  0.32541  0.78028  0.52340  1.0000
  C   C3475     1.0  0.33196  0.83948  0.71075  1.0000
  H   H2768     1.0  0.52825  0.77237  0.68514  1.0000
  C   C3476     1.0  0.36536  0.82852  0.52907  1.0000
  S   S456      1.0  0.55293  0.85714  0.72561  1.0000
  H   H2769     1.0  0.32339  0.73862  0.53888  1.0000
  H   H2770     1.0  0.38300  0.74475  0.49390  1.0000
  P   P117      1.0  0.63885  0.77720  0.66543  1.0000
  C   C3477     1.0  0.37004  0.84560  0.52555  1.0000
  C   C3478     1.0  0.62452  0.74633  0.68442  1.0000
  C   C3479     1.0  0.47168  0.72766  0.72363  1.0000
  H   H2771     1.0  0.59483  0.90258  0.69433  1.0000
  H   H2772     1.0  0.59447  0.93446  0.69598  1.0000
  C   C3480     1.0  0.51114  0.75892  0.70875  1.0000
  H   H2773     1.0  0.49040  0.79279  0.71962  1.0000
  H   H2774     1.0  0.36612  0.84127  0.63931  1.0000
  C   C3481     1.0  0.64437  0.79481  0.67351  1.0000
  H   H2775     1.0  0.37320  0.72005  0.71835  1.0000
  C   C3482     1.0  0.49802  0.90716  0.72081  1.0000
  S   S457      1.0  0.33605  0.79582  0.56566  1.0000
  C   C3483     1.0  0.38742  0.76778  0.70827  1.0000
  H   H2776     1.0  0.61921  0.74756  0.67238  1.0000
  C   C3484     1.0  0.53201  0.91080  0.69760  1.0000
  C   C3485     1.0  0.33958  0.88624  0.70658  1.0000
  S   S458      1.0  0.45317  0.80321  0.71476  1.0000
  S   S459      1.0  0.57745  0.77728  0.71846  1.0000
  C   C3486     1.0  0.44028  0.88299  0.71165  1.0000
  C   C3487     1.0  0.63548  0.81700  0.69323  1.0000
  H   H2777     1.0  0.38080  0.88170  0.66591  1.0000
  H   H2778     1.0  0.38357  0.89189  0.69292  1.0000
  H   H2779     1.0  0.54536  0.91175  0.68899  1.0000
  H   H2780     1.0  0.35747  0.89429  0.71907  1.0000
  H   H2781     1.0  0.36274  0.82070  0.54300  1.0000
  H   H2782     1.0  0.40068  0.76285  0.50235  1.0000
  C   C3488     1.0  0.53417  0.77432  0.71025  1.0000
  H   H2783     1.0  0.50381  0.75481  0.70077  1.0000
  C   C3489     1.0  0.48695  0.80752  0.71635  1.0000
  C   C3490     1.0  0.52487  0.76884  0.69994  1.0000
  C   C3491     1.0  0.52234  0.89875  0.69549  1.0000
  C   C3492     1.0  0.60098  0.78788  0.66976  1.0000
  H   H2784     1.0  0.60127  0.80309  0.61786  1.0000
  C   C3493     1.0  0.38934  0.76977  0.49564  1.0000
  C   C3494     1.0  0.36122  0.71811  0.72896  1.0000
  Fe  Fe228     1.0  0.39596  0.85188  0.72584  1.0000
  C   C3495     1.0  0.37144  0.76811  0.72181  1.0000
  C   C3496     1.0  0.37132  0.84882  0.49319  1.0000
  H   H2785     1.0  0.33157  0.53595  0.71718  1.0000
  H   H2786     1.0  0.32857  0.88656  0.71850  1.0000
  C   C3497     1.0  0.32474  0.79174  0.55036  1.0000
  S   S460      1.0  0.32338  0.82132  0.60746  1.0000
  H   H2787     1.0  0.32404  0.83100  0.52723  1.0000
  H   H2788     1.0  0.32547  0.58529  0.55914  1.0000
  C   C3498     1.0  0.45842  0.74243  0.72904  1.0000
  C   C3499     1.0  0.32316  0.73362  0.52711  1.0000
  C   C3500     1.0  0.32341  0.72143  0.49593  1.0000
  C   C3501     1.0  0.52964  0.77012  0.72936  1.0000
  H   H2789     1.0  0.41444  0.73057  0.72984  1.0000
  Fe  Fe229     1.0  0.43434  0.93682  0.81802  1.0000
  S   S461      1.0  0.43924  0.92472  0.84645  1.0000
  Fe  Fe230     1.0  0.43026  0.90034  0.81181  1.0000
  S   S462      1.0  0.43446  0.88598  0.84000  1.0000
  S   S463      1.0  0.42950  0.87834  0.79763  1.0000
  Fe  Fe231     1.0  0.41628  0.91068  0.84927  1.0000
  S   S464      1.0  0.39338  0.90922  0.87393  1.0000
  Fe  Fe232     1.0  0.45701  0.90093  0.83456  1.0000
  S   S465      1.0  0.48431  0.88392  0.83912  1.0000
  S   S466      1.0  0.40994  0.92432  0.82153  1.0000
  S   S467      1.0  0.45417  0.91386  0.80582  1.0000
  Fe  Fe233     1.0  0.56123  0.91785  0.85082  1.0000
  S   S468      1.0  0.56682  0.93223  0.82142  1.0000
  S   S469      1.0  0.53237  0.92150  0.86696  1.0000
  Fe  Fe234     1.0  0.60099  0.90375  0.85182  1.0000
  S   S470      1.0  0.60987  0.91719  0.82255  1.0000
  S   S471      1.0  0.62285  0.88936  0.86792  1.0000
  Fe  Fe235     1.0  0.58848  0.94163  0.82934  1.0000
  S   S472      1.0  0.59353  0.97058  0.81798  1.0000
  Fe  Fe236     1.0  0.58764  0.90642  0.81735  1.0000
  S   S473      1.0  0.59427  0.89472  0.79161  1.0000
  S   S474      1.0  0.58133  0.92901  0.85904  1.0000
  S   S475      1.0  0.58028  0.89119  0.84631  1.0000
  H   H2790     1.0  0.65412  0.50119  0.96307  1.0000
  C   C3502     1.0  0.33473  0.73891  0.80511  1.0000
  S   S476      1.0  0.58553  0.80729  0.95173  1.0000
  C   C3503     1.0  0.35267  0.63523  0.83370  1.0000
  Fe  Fe237     1.0  0.58460  0.76463  0.93421  1.0000
  S   S477      1.0  0.57956  0.79302  0.91716  1.0000
  S   S478      1.0  0.58535  0.73879  0.92517  1.0000
  Fe  Fe238     1.0  0.60293  0.79664  0.92711  1.0000
  S   S479      1.0  0.62754  0.80675  0.90893  1.0000
  Fe  Fe239     1.0  0.56264  0.80073  0.94336  1.0000
  S   S480      1.0  0.53505  0.81930  0.94575  1.0000
  S   S481      1.0  0.60918  0.76766  0.94253  1.0000
  S   S482      1.0  0.56560  0.77209  0.95975  1.0000
  Fe  Fe240     1.0  0.41277  0.81702  0.94629  1.0000
  S   S483      1.0  0.39498  0.84524  0.94406  1.0000
  Fe  Fe241     1.0  0.44907  0.79125  0.93979  1.0000
  S   S484      1.0  0.47877  0.78410  0.92699  1.0000
  Fe  Fe242     1.0  0.41412  0.77749  0.94592  1.0000
  S   S485      1.0  0.40105  0.75626  0.94159  1.0000
  S   S486      1.0  0.42569  0.79994  0.92488  1.0000
  Fe  Fe243     1.0  0.58312  0.71813  0.83545  1.0000
  S   S487      1.0  0.56973  0.69751  0.85707  1.0000
  S   S488      1.0  0.59191  0.74161  0.84102  1.0000
  Fe  Fe244     1.0  0.58103  0.70087  0.80524  1.0000
  S   S489      1.0  0.56769  0.67843  0.82455  1.0000
  S   S490      1.0  0.58802  0.70193  0.77496  1.0000
  Fe  Fe245     1.0  0.55039  0.70117  0.83856  1.0000
  S   S491      1.0  0.51986  0.70823  0.84960  1.0000
  Fe  Fe246     1.0  0.58832  0.67667  0.84124  1.0000
  S   S492      1.0  0.60350  0.65228  0.85884  1.0000
  S   S493      1.0  0.56239  0.72365  0.81800  1.0000
  S   S494      1.0  0.60299  0.69725  0.82072  1.0000
  C   C3504     1.0  0.35100  0.56350  0.76758  1.0000
  C   C3505     1.0  0.57389  0.86745  0.80265  1.0000
  C   C3506     1.0  0.48523  0.88454  0.75621  1.0000
  H   H2791     1.0  0.34791  0.59166  0.76899  1.0000
  H   H2792     1.0  0.52510  0.92687  0.81943  1.0000
  S   S495      1.0  0.36721  0.79770  0.75856  1.0000
  S   S496      1.0  0.58634  0.82097  0.73186  1.0000
  H   H2793     1.0  0.51972  0.98012  0.84352  1.0000
  Fe  Fe247     1.0  0.39150  0.68794  0.85026  1.0000
  S   S497      1.0  0.41460  0.68002  0.82753  1.0000
  H   H2794     1.0  0.44619  0.97705  0.87239  1.0000
  Fe  Fe248     1.0  0.40674  0.71992  0.85284  1.0000
  S   S498      1.0  0.43082  0.71442  0.83018  1.0000
  S   S499      1.0  0.40483  0.74641  0.86145  1.0000
  Fe  Fe249     1.0  0.41106  0.71011  0.81587  1.0000
  S   S500      1.0  0.41508  0.72054  0.78542  1.0000
  Fe  Fe250     1.0  0.43266  0.68495  0.84369  1.0000
  S   S501      1.0  0.46077  0.66694  0.84382  1.0000
  S   S502      1.0  0.38660  0.71804  0.83725  1.0000
  S   S503      1.0  0.40988  0.69045  0.86774  1.0000
  C   C3507     1.0  0.38047  0.77637  0.76643  1.0000
  C   C3508     1.0  0.37260  0.76371  0.78085  1.0000
  C   C3509     1.0  0.38323  0.74658  0.78710  1.0000
  C   C3510     1.0  0.40162  0.74205  0.77867  1.0000
  C   C3511     1.0  0.40933  0.75458  0.76407  1.0000
  C   C3512     1.0  0.39890  0.77184  0.75819  1.0000
  H   H2795     1.0  0.42346  0.75096  0.75743  1.0000
  H   H2796     1.0  0.40509  0.78153  0.74713  1.0000
  C   C3513     1.0  0.46075  0.94387  0.76580  1.0000
  H   H2797     1.0  0.51783  0.87920  0.80925  1.0000
  C   C3514     1.0  0.37283  0.67934  0.78272  1.0000
  H   H2798     1.0  0.39496  0.78451  0.84672  1.0000
  C   C3515     1.0  0.36183  0.65914  0.85069  1.0000
  C   C3516     1.0  0.37412  0.65265  0.83589  1.0000
  C   C3517     1.0  0.36949  0.64084  0.82742  1.0000
  H   H2799     1.0  0.38719  0.65668  0.83099  1.0000
  H   H2800     1.0  0.37911  0.63583  0.81606  1.0000
  C   C3518     1.0  0.50395  0.69609  0.84807  1.0000
  C   C3519     1.0  0.48533  0.70244  0.85479  1.0000
  C   C3520     1.0  0.47206  0.69378  0.85319  1.0000
  C   C3521     1.0  0.47733  0.67827  0.84539  1.0000
  C   C3522     1.0  0.49601  0.67159  0.83906  1.0000
  C   C3523     1.0  0.50929  0.68058  0.84022  1.0000
  H   H2801     1.0  0.48112  0.71411  0.86132  1.0000
  H   H2802     1.0  0.45775  0.69887  0.85839  1.0000
  H   H2803     1.0  0.50018  0.65952  0.83312  1.0000
  H   H2804     1.0  0.52362  0.67542  0.83518  1.0000
  C   C3524     1.0  0.58326  0.72353  0.76053  1.0000
  C   C3525     1.0  0.58091  0.74001  0.76625  1.0000
  H   H2805     1.0  0.62567  0.87463  0.91266  1.0000
  C   C3526     1.0  0.53185  0.76799  0.77787  1.0000
  C   C3527     1.0  0.58268  0.72402  0.74248  1.0000
  H   H2806     1.0  0.58149  0.73972  0.78016  1.0000
  C   C3528     1.0  0.56538  0.85497  0.79913  1.0000
  H   H2807     1.0  0.39732  0.72599  0.92843  1.0000
  C   C3529     1.0  0.62085  0.63429  0.85138  1.0000
  C   C3530     1.0  0.63128  0.62273  0.86389  1.0000
  C   C3531     1.0  0.64448  0.60748  0.85916  1.0000
  C   C3532     1.0  0.64706  0.60341  0.84195  1.0000
  C   C3533     1.0  0.63692  0.61517  0.82923  1.0000
  C   C3534     1.0  0.62398  0.63072  0.83384  1.0000
  H   H2808     1.0  0.62876  0.62538  0.87748  1.0000
  H   H2809     1.0  0.46550  0.97292  0.84249  1.0000
  H   H2810     1.0  0.63887  0.61207  0.81589  1.0000
  H   H2811     1.0  0.61597  0.63952  0.82412  1.0000
  C   C3535     1.0  0.40338  0.75303  0.91920  1.0000
  C   C3536     1.0  0.40038  0.73671  0.91668  1.0000
  C   C3537     1.0  0.40133  0.73416  0.89900  1.0000
  C   C3538     1.0  0.40474  0.74819  0.88382  1.0000
  C   C3539     1.0  0.40756  0.76454  0.88640  1.0000
  C   C3540     1.0  0.40728  0.76683  0.90394  1.0000
  H   H2812     1.0  0.40975  0.77554  0.87482  1.0000
  H   H2813     1.0  0.40959  0.77944  0.90569  1.0000
  C   C3541     1.0  0.58660  0.74013  0.90176  1.0000
  C   C3542     1.0  0.58646  0.75670  0.88903  1.0000
  C   C3543     1.0  0.58799  0.75714  0.87039  1.0000
  C   C3544     1.0  0.58930  0.74105  0.86447  1.0000
  C   C3545     1.0  0.58904  0.72457  0.87726  1.0000
  C   C3546     1.0  0.58773  0.72413  0.89580  1.0000
  H   H2814     1.0  0.58520  0.76917  0.89348  1.0000
  H   H2815     1.0  0.58808  0.76997  0.86060  1.0000
  H   H2816     1.0  0.59037  0.71205  0.87282  1.0000
  H   H2817     1.0  0.58732  0.71138  0.90561  1.0000
  C   C3547     1.0  0.51918  0.80826  0.94257  1.0000
  C   C3548     1.0  0.50060  0.81639  0.94553  1.0000
  C   C3549     1.0  0.48792  0.80843  0.94185  1.0000
  C   C3550     1.0  0.49387  0.79264  0.93452  1.0000
  C   C3551     1.0  0.51238  0.78415  0.93206  1.0000
  C   C3552     1.0  0.52503  0.79184  0.93625  1.0000
  H   H2818     1.0  0.49602  0.82899  0.95041  1.0000
  H   H2819     1.0  0.47369  0.81485  0.94410  1.0000
  H   H2820     1.0  0.51694  0.77178  0.92666  1.0000
  H   H2821     1.0  0.53936  0.78545  0.93379  1.0000
  H   H2822     1.0  0.39386  0.76527  0.80718  1.0000
  C   C3553     1.0  0.37267  0.85297  0.83541  1.0000
  C   C3554     1.0  0.38117  0.79145  0.85152  1.0000
  H   H2823     1.0  0.37198  0.90513  0.90962  1.0000
  H   H2824     1.0  0.47804  0.78011  0.74936  1.0000
  H   H2825     1.0  0.40496  0.85074  0.76190  1.0000
  H   H2826     1.0  0.57238  0.86895  0.81653  1.0000
  H   H2827     1.0  0.59355  0.88426  0.75890  1.0000
  C   C3555     1.0  0.62344  0.86629  0.87867  1.0000
  C   C3556     1.0  0.63995  0.85558  0.88285  1.0000
  C   C3557     1.0  0.64096  0.83729  0.89193  1.0000
  C   C3558     1.0  0.62536  0.82971  0.89742  1.0000
  C   C3559     1.0  0.60868  0.84042  0.89352  1.0000
  C   C3560     1.0  0.60782  0.85867  0.88379  1.0000
  H   H2828     1.0  0.36582  0.48606  0.75800  1.0000
  C   C3561     1.0  0.52929  0.95110  0.74718  1.0000
  H   H2829     1.0  0.59659  0.83456  0.89776  1.0000
  H   H2830     1.0  0.59509  0.86694  0.88049  1.0000
  H   H2831     1.0  0.37680  0.70194  0.74897  1.0000
  H   H2832     1.0  0.56375  0.85817  0.87578  1.0000
  H   H2833     1.0  0.38257  0.79642  0.92320  1.0000
  C   C3562     1.0  0.34542  0.70836  0.79834  1.0000
  H   H2834     1.0  0.58673  0.92280  0.75712  1.0000
  H   H2835     1.0  0.51275  0.94835  0.77462  1.0000
  H   H2836     1.0  0.62864  0.60589  0.92243  1.0000
  H   H2837     1.0  0.35836  0.76722  0.78724  1.0000
  C   C3563     1.0  0.45686  0.98480  0.86624  1.0000
  H   H2838     1.0  0.59043  0.96623  0.85741  1.0000
  C   C3564     1.0  0.41766  0.87982  0.78046  1.0000
  C   C3565     1.0  0.41118  0.89642  0.76933  1.0000
  C   C3566     1.0  0.40289  0.89641  0.75503  1.0000
  C   C3567     1.0  0.40089  0.87985  0.75204  1.0000
  C   C3568     1.0  0.40669  0.86348  0.76374  1.0000
  C   C3569     1.0  0.41534  0.86344  0.77758  1.0000
  H   H2839     1.0  0.41302  0.90914  0.77138  1.0000
  C   C3570     1.0  0.33896  0.73217  0.82245  1.0000
  C   C3571     1.0  0.39463  0.89057  0.89260  1.0000
  C   C3572     1.0  0.38203  0.89252  0.90889  1.0000
  C   C3573     1.0  0.38250  0.87844  0.92440  1.0000
  C   C3574     1.0  0.39537  0.86207  0.92377  1.0000
  C   C3575     1.0  0.40794  0.85980  0.90740  1.0000
  C   C3576     1.0  0.40765  0.87416  0.89179  1.0000
  H   H2840     1.0  0.41791  0.84714  0.90685  1.0000
  H   H2841     1.0  0.41743  0.87256  0.87923  1.0000
  C   C3577     1.0  0.49716  0.89424  0.84762  1.0000
  C   C3578     1.0  0.48923  0.90984  0.85511  1.0000
  C   C3579     1.0  0.50006  0.91805  0.86135  1.0000
  C   C3580     1.0  0.51886  0.91098  0.85956  1.0000
  C   C3581     1.0  0.52675  0.89545  0.85201  1.0000
  C   C3582     1.0  0.51582  0.88684  0.84647  1.0000
  H   H2842     1.0  0.47481  0.91555  0.85614  1.0000
  H   H2843     1.0  0.49397  0.93014  0.86711  1.0000
  H   H2844     1.0  0.54124  0.88990  0.85069  1.0000
  H   H2845     1.0  0.52191  0.87465  0.84088  1.0000
  C   C3583     1.0  0.63778  0.64901  0.78090  1.0000
  C   C3584     1.0  0.47112  0.92870  0.75849  1.0000
  C   C3585     1.0  0.45823  0.85438  0.87527  1.0000
  C   C3586     1.0  0.45837  0.83614  0.88409  1.0000
  C   C3587     1.0  0.45806  0.83094  0.90282  1.0000
  C   C3588     1.0  0.45753  0.84393  0.91277  1.0000
  C   C3589     1.0  0.45675  0.86240  0.90417  1.0000
  C   C3590     1.0  0.45744  0.86749  0.88523  1.0000
  P   P118      1.0  0.45838  0.87862  0.91660  1.0000
  C   C3591     1.0  0.44479  0.87645  0.93961  1.0000
  C   C3592     1.0  0.48232  0.87447  0.91704  1.0000
  C   C3593     1.0  0.49510  0.87803  0.90070  1.0000
  C   C3594     1.0  0.51370  0.87454  0.90092  1.0000
  C   C3595     1.0  0.51967  0.86696  0.91735  1.0000
  C   C3596     1.0  0.50712  0.86291  0.93357  1.0000
  C   C3597     1.0  0.48853  0.86648  0.93342  1.0000
  C   C3598     1.0  0.43179  0.86530  0.94583  1.0000
  C   C3599     1.0  0.42211  0.86322  0.96396  1.0000
  H   H2846     1.0  0.63289  0.78351  0.82973  1.0000
  C   C3600     1.0  0.34226  0.62237  0.89711  1.0000
  C   C3601     1.0  0.44709  0.88639  0.95150  1.0000
  C   C3602     1.0  0.44984  0.90159  0.90516  1.0000
  C   C3603     1.0  0.43186  0.90624  0.90238  1.0000
  C   C3604     1.0  0.42474  0.92398  0.89379  1.0000
  C   C3605     1.0  0.43552  0.93722  0.88789  1.0000
  C   C3606     1.0  0.45339  0.93278  0.89080  1.0000
  C   C3607     1.0  0.46051  0.91507  0.89956  1.0000
  H   H2847     1.0  0.45916  0.85831  0.86062  1.0000
  H   H2848     1.0  0.45907  0.82598  0.87636  1.0000
  H   H2849     1.0  0.45869  0.81672  0.90956  1.0000
  H   H2850     1.0  0.45799  0.83953  0.92711  1.0000
  H   H2851     1.0  0.45779  0.88146  0.87798  1.0000
  H   H2852     1.0  0.49067  0.88346  0.88781  1.0000
  H   H2853     1.0  0.52350  0.87758  0.88835  1.0000
  H   H2854     1.0  0.53405  0.86371  0.91751  1.0000
  H   H2855     1.0  0.51191  0.85644  0.94618  1.0000
  H   H2856     1.0  0.47921  0.86243  0.94603  1.0000
  H   H2857     1.0  0.42893  0.85830  0.93675  1.0000
  C   C3608     1.0  0.36319  0.70788  0.74640  1.0000
  C   C3609     1.0  0.56236  0.94361  0.76270  1.0000
  C   C3610     1.0  0.33028  0.66947  0.77774  1.0000
  H   H2858     1.0  0.45660  0.89559  0.94676  1.0000
  H   H2859     1.0  0.42333  0.89612  0.90685  1.0000
  H   H2860     1.0  0.41090  0.92738  0.89149  1.0000
  H   H2861     1.0  0.43000  0.95086  0.88093  1.0000
  H   H2862     1.0  0.46177  0.94303  0.88620  1.0000
  H   H2863     1.0  0.47427  0.91205  0.90186  1.0000
  C   C3611     1.0  0.63526  0.70655  0.93141  1.0000
  C   C3612     1.0  0.60830  0.82208  0.78256  1.0000
  H   H2864     1.0  0.39843  0.90916  0.74602  1.0000
  H   H2865     1.0  0.59974  0.90473  0.95893  1.0000
  C   C3613     1.0  0.63795  0.68224  0.91550  1.0000
  C   C3614     1.0  0.62812  0.69852  0.92125  1.0000
  P   P119      1.0  0.62874  0.67219  0.90201  1.0000
  C   C3615     1.0  0.63895  0.64807  0.90344  1.0000
  C   C3616     1.0  0.60447  0.67389  0.91055  1.0000
  C   C3617     1.0  0.59690  0.67347  0.92922  1.0000
  C   C3618     1.0  0.57834  0.67329  0.93600  1.0000
  C   C3619     1.0  0.56731  0.67315  0.92429  1.0000
  C   C3620     1.0  0.57474  0.67355  0.90572  1.0000
  C   C3621     1.0  0.59321  0.67401  0.89886  1.0000
  C   C3622     1.0  0.51943  0.98323  0.88310  1.0000
  H   H2866     1.0  0.61956  0.67459  0.78497  1.0000
  C   C3623     1.0  0.38652  0.74141  0.74075  1.0000
  H   H2867     1.0  0.47198  0.94280  0.80608  1.0000
  P   P120      1.0  0.34991  0.69273  0.78303  1.0000
  C   C3624     1.0  0.63268  0.68422  0.87842  1.0000
  C   C3625     1.0  0.63202  0.70318  0.87407  1.0000
  C   C3626     1.0  0.63370  0.71264  0.85587  1.0000
  C   C3627     1.0  0.63626  0.70327  0.84186  1.0000
  C   C3628     1.0  0.63714  0.68438  0.84605  1.0000
  C   C3629     1.0  0.63518  0.67493  0.86423  1.0000
  H   H2868     1.0  0.62743  0.71908  0.93584  1.0000
  C   C3630     1.0  0.58160  0.85744  0.93625  1.0000
  C   C3631     1.0  0.43722  0.94611  0.74946  1.0000
  H   H2869     1.0  0.48384  0.92168  0.76277  1.0000
  H   H2870     1.0  0.61486  0.70506  0.91796  1.0000
  H   H2871     1.0  0.60532  0.67304  0.93861  1.0000
  C   C3632     1.0  0.34278  0.55048  0.76494  1.0000
  C   C3633     1.0  0.33793  0.72708  0.79307  1.0000
  H   H2872     1.0  0.56625  0.67342  0.89656  1.0000
  H   H2873     1.0  0.59868  0.67426  0.88446  1.0000
  C   C3634     1.0  0.54877  0.98406  0.88831  1.0000
  H   H2874     1.0  0.61295  0.83861  0.79852  1.0000
  H   H2875     1.0  0.44194  0.92617  0.73315  1.0000
  C   C3635     1.0  0.59106  0.89681  0.96960  1.0000
  H   H2876     1.0  0.62928  0.71092  0.88467  1.0000
  H   H2877     1.0  0.63200  0.72742  0.85270  1.0000
  H   H2878     1.0  0.63678  0.71078  0.82788  1.0000
  H   H2879     1.0  0.63840  0.67713  0.83532  1.0000
  H   H2880     1.0  0.63482  0.66053  0.86718  1.0000
  C   C3636     1.0  0.42497  0.62761  0.82657  1.0000
  C   C3637     1.0  0.43455  0.63451  0.83545  1.0000
  C   C3638     1.0  0.43271  0.62934  0.85440  1.0000
  C   C3639     1.0  0.42159  0.61696  0.86447  1.0000
  C   C3640     1.0  0.41227  0.60956  0.85561  1.0000
  C   C3641     1.0  0.41381  0.61523  0.83659  1.0000
  P   P121      1.0  0.39833  0.59315  0.86878  1.0000
  C   C3642     1.0  0.39526  0.57955  0.85426  1.0000
  C   C3643     1.0  0.40994  0.57829  0.88635  1.0000
  C   C3644     1.0  0.40008  0.57235  0.90397  1.0000
  C   C3645     1.0  0.40924  0.56101  0.91754  1.0000
  C   C3646     1.0  0.42826  0.55549  0.91360  1.0000
  C   C3647     1.0  0.43815  0.56125  0.89606  1.0000
  C   C3648     1.0  0.42904  0.57257  0.88246  1.0000
  C   C3649     1.0  0.38253  0.58700  0.84288  1.0000
  C   C3650     1.0  0.37950  0.57657  0.83199  1.0000
  C   C3651     1.0  0.38913  0.55854  0.83241  1.0000
  C   C3652     1.0  0.40196  0.55100  0.84359  1.0000
  C   C3653     1.0  0.40506  0.56145  0.85446  1.0000
  C   C3654     1.0  0.37628  0.60489  0.87939  1.0000
  C   C3655     1.0  0.36076  0.59720  0.88299  1.0000
  H   H2881     1.0  0.33471  0.73273  0.77969  1.0000
  C   C3656     1.0  0.49708  0.96907  0.81428  1.0000
  H   H2882     1.0  0.50645  0.89118  0.78048  1.0000
  P   P122      1.0  0.47780  0.90214  0.73752  1.0000
  H   H2883     1.0  0.42610  0.63198  0.81193  1.0000
  H   H2884     1.0  0.44321  0.64413  0.82773  1.0000
  H   H2885     1.0  0.43986  0.63512  0.86124  1.0000
  H   H2886     1.0  0.42029  0.61321  0.87918  1.0000
  H   H2887     1.0  0.40644  0.61021  0.82940  1.0000
  H   H2888     1.0  0.38536  0.57652  0.90732  1.0000
  H   H2889     1.0  0.40159  0.55659  0.93116  1.0000
  H   H2890     1.0  0.43536  0.54681  0.92415  1.0000
  H   H2891     1.0  0.45291  0.55704  0.89301  1.0000
  H   H2892     1.0  0.43692  0.57693  0.86893  1.0000
  H   H2893     1.0  0.37483  0.60087  0.84256  1.0000
  H   H2894     1.0  0.36953  0.58244  0.82333  1.0000
  H   H2895     1.0  0.38653  0.55043  0.82412  1.0000
  H   H2896     1.0  0.40944  0.53702  0.84385  1.0000
  H   H2897     1.0  0.41500  0.55528  0.86303  1.0000
  H   H2898     1.0  0.36167  0.58449  0.87899  1.0000
  C   C3657     1.0  0.57732  0.86350  0.76672  1.0000
  H   H2899     1.0  0.39903  0.72155  0.89718  1.0000
  C   C3658     1.0  0.62890  0.80717  0.97282  1.0000
  H   H2900     1.0  0.43552  0.96387  0.76757  1.0000
  C   C3659     1.0  0.54344  0.70434  0.76577  1.0000
  H   H2901     1.0  0.43691  0.86266  0.73642  1.0000
  H   H2902     1.0  0.64324  0.68760  0.79054  1.0000
  S   S504      1.0  0.39227  0.87960  0.73302  1.0000
  C   C3660     1.0  0.46781  0.98263  0.84913  1.0000
  H   H2903     1.0  0.48697  0.75189  0.95503  1.0000
  C   C3661     1.0  0.63596  0.76645  0.85584  1.0000
  C   C3662     1.0  0.47076  0.76686  0.88953  1.0000
  C   C3663     1.0  0.46264  0.77439  0.87438  1.0000
  C   C3664     1.0  0.47238  0.78353  0.85824  1.0000
  C   C3665     1.0  0.49034  0.78487  0.85715  1.0000
  C   C3666     1.0  0.49864  0.77710  0.87230  1.0000
  C   C3667     1.0  0.48868  0.76817  0.88848  1.0000
  P   P123      1.0  0.52198  0.77783  0.87144  1.0000
  C   C3668     1.0  0.53174  0.75500  0.88228  1.0000
  C   C3669     1.0  0.53409  0.78426  0.84830  1.0000
  C   C3670     1.0  0.54835  0.77177  0.83997  1.0000
  C   C3671     1.0  0.55860  0.77759  0.82264  1.0000
  C   C3672     1.0  0.55483  0.79589  0.81362  1.0000
  C   C3673     1.0  0.54055  0.80835  0.82176  1.0000
  C   C3674     1.0  0.53021  0.80257  0.83903  1.0000
  C   C3675     1.0  0.53912  0.75194  0.89788  1.0000
  C   C3676     1.0  0.54395  0.73415  0.90773  1.0000
  C   C3677     1.0  0.54173  0.71928  0.90193  1.0000
  C   C3678     1.0  0.53460  0.72216  0.88634  1.0000
  C   C3679     1.0  0.52959  0.73993  0.87654  1.0000
  C   C3680     1.0  0.52310  0.79524  0.88261  1.0000
  C   C3681     1.0  0.50730  0.80768  0.88869  1.0000
  C   C3682     1.0  0.50861  0.82185  0.89624  1.0000
  C   C3683     1.0  0.52561  0.82351  0.89797  1.0000
  C   C3684     1.0  0.54139  0.81133  0.89172  1.0000
  C   C3685     1.0  0.54021  0.79743  0.88377  1.0000
  H   H2904     1.0  0.46323  0.75990  0.90213  1.0000
  H   H2905     1.0  0.44889  0.77290  0.87524  1.0000
  H   H2906     1.0  0.46615  0.78938  0.84648  1.0000
  H   H2907     1.0  0.49772  0.79163  0.84442  1.0000
  H   H2908     1.0  0.49484  0.76201  0.90032  1.0000
  H   H2909     1.0  0.55192  0.75766  0.84689  1.0000
  H   H2910     1.0  0.56964  0.76785  0.81636  1.0000
  H   H2911     1.0  0.56286  0.80046  0.80024  1.0000
  H   H2912     1.0  0.53766  0.82253  0.81471  1.0000
  H   H2913     1.0  0.51937  0.81246  0.84532  1.0000
  H   H2914     1.0  0.54088  0.76314  0.90279  1.0000
  H   H2915     1.0  0.54956  0.73191  0.91981  1.0000
  H   H2916     1.0  0.54548  0.70555  0.90956  1.0000
  H   H2917     1.0  0.53267  0.71065  0.88192  1.0000
  H   H2918     1.0  0.52359  0.74191  0.86476  1.0000
  H   H2919     1.0  0.49396  0.80634  0.88791  1.0000
  H   H2920     1.0  0.49640  0.83117  0.90132  1.0000
  H   H2921     1.0  0.52653  0.83398  0.90451  1.0000
  H   H2922     1.0  0.55456  0.81276  0.89290  1.0000
  H   H2923     1.0  0.55262  0.78830  0.87865  1.0000
  C   C3686     1.0  0.53204  0.70927  0.79670  1.0000
  C   C3687     1.0  0.50890  0.80243  0.77827  1.0000
  C   C3688     1.0  0.52508  0.79823  0.78471  1.0000
  C   C3689     1.0  0.53662  0.78106  0.78435  1.0000
  H   H2924     1.0  0.51410  0.73496  0.79981  1.0000
  H   H2925     1.0  0.53170  0.70461  0.81123  1.0000
  H   H2926     1.0  0.55089  0.68505  0.78962  1.0000
  H   H2927     1.0  0.50040  0.81600  0.77784  1.0000
  H   H2928     1.0  0.52908  0.80859  0.78915  1.0000
  H   H2929     1.0  0.54955  0.77795  0.78859  1.0000
  P   P124      1.0  0.54846  0.93376  0.75388  1.0000
  C   C3690     1.0  0.35218  0.52042  0.81086  1.0000
  C   C3691     1.0  0.34149  0.58159  0.76696  1.0000
  C   C3692     1.0  0.37598  0.81024  0.91769  1.0000
  C   C3693     1.0  0.49700  0.85787  0.78556  1.0000
  C   C3694     1.0  0.42351  0.81384  0.86507  1.0000
  C   C3695     1.0  0.41967  0.83295  0.86131  1.0000
  C   C3696     1.0  0.42060  0.84252  0.84322  1.0000
  C   C3697     1.0  0.42539  0.83310  0.82891  1.0000
  C   C3698     1.0  0.42973  0.81390  0.83248  1.0000
  C   C3699     1.0  0.42836  0.80439  0.85073  1.0000
  P   P125      1.0  0.43522  0.80147  0.81415  1.0000
  C   C3700     1.0  0.41399  0.79803  0.81129  1.0000
  C   C3701     1.0  0.44496  0.81456  0.79248  1.0000
  C   C3702     1.0  0.45676  0.82607  0.79147  1.0000
  C   C3703     1.0  0.46496  0.83519  0.77443  1.0000
  C   C3704     1.0  0.46175  0.83267  0.75838  1.0000
  C   C3705     1.0  0.44983  0.82150  0.75929  1.0000
  C   C3706     1.0  0.44144  0.81250  0.77623  1.0000
  C   C3707     1.0  0.41179  0.78074  0.81057  1.0000
  C   C3708     1.0  0.39552  0.77873  0.80736  1.0000
  C   C3709     1.0  0.38158  0.79402  0.80415  1.0000
  C   C3710     1.0  0.38379  0.81134  0.80443  1.0000
  C   C3711     1.0  0.39988  0.81335  0.80808  1.0000
  C   C3712     1.0  0.45184  0.78057  0.81960  1.0000
  C   C3713     1.0  0.47050  0.77986  0.81189  1.0000
  C   C3714     1.0  0.48356  0.76428  0.81690  1.0000
  C   C3715     1.0  0.47813  0.74914  0.82946  1.0000
  C   C3716     1.0  0.45963  0.74964  0.83721  1.0000
  C   C3717     1.0  0.44657  0.76534  0.83247  1.0000
  H   H2930     1.0  0.42260  0.80634  0.87912  1.0000
  H   H2931     1.0  0.41584  0.84036  0.87237  1.0000
  H   H2932     1.0  0.41750  0.85732  0.84018  1.0000
  H   H2933     1.0  0.42568  0.84091  0.81512  1.0000
  H   H2934     1.0  0.43096  0.78966  0.85392  1.0000
  H   H2935     1.0  0.45974  0.82793  0.80376  1.0000
  H   H2936     1.0  0.47390  0.84417  0.77354  1.0000
  C   C3718     1.0  0.34278  0.50859  0.75664  1.0000
  H   H2937     1.0  0.44706  0.81981  0.74684  1.0000
  H   H2938     1.0  0.43229  0.80386  0.77653  1.0000
  H   H2939     1.0  0.42252  0.76873  0.81231  1.0000
  H   H2940     1.0  0.36917  0.79249  0.80115  1.0000
  H   H2941     1.0  0.37313  0.82323  0.80152  1.0000
  H   H2942     1.0  0.40150  0.82693  0.80793  1.0000
  H   H2943     1.0  0.47514  0.79142  0.80232  1.0000
  H   H2944     1.0  0.45536  0.73791  0.84706  1.0000
  H   H2945     1.0  0.43240  0.76557  0.83908  1.0000
  H   H2946     1.0  0.55954  0.97690  0.78570  1.0000
  S   S505      1.0  0.54334  0.81622  0.74250  1.0000
  H   H2947     1.0  0.38157  0.48574  0.79216  1.0000
  C   C3719     1.0  0.63221  0.87943  0.92084  1.0000
  C   C3720     1.0  0.62537  0.87821  0.93971  1.0000
  C   C3721     1.0  0.43734  0.88433  0.96961  1.0000
  C   C3722     1.0  0.52369  0.88966  0.79880  1.0000
  H   H2948     1.0  0.46842  0.83950  0.74523  1.0000
  H   H2949     1.0  0.60406  0.85672  0.82037  1.0000
  C   C3723     1.0  0.34491  0.65366  0.85689  1.0000
  H   H2950     1.0  0.33853  0.50647  0.77139  1.0000
  H   H2951     1.0  0.48579  0.97062  0.76567  1.0000
  H   H2952     1.0  0.53709  0.77447  0.73705  1.0000
  H   H2953     1.0  0.55090  0.98475  0.84071  1.0000
  C   C3724     1.0  0.36846  0.51023  0.80255  1.0000
  C   C3725     1.0  0.52539  0.96458  0.88284  1.0000
  H   H2954     1.0  0.35614  0.68758  0.81986  1.0000
  H   H2955     1.0  0.62005  0.83624  0.93340  1.0000
  C   C3726     1.0  0.51564  0.76046  0.73830  1.0000
  H   H2956     1.0  0.65215  0.59845  0.86906  1.0000
  H   H2957     1.0  0.42386  0.95255  0.74636  1.0000
  C   C3727     1.0  0.42192  0.97706  0.83828  1.0000
  C   C3728     1.0  0.32627  0.86351  0.86106  1.0000
  H   H2958     1.0  0.38706  0.89136  0.84910  1.0000
  H   H2959     1.0  0.37279  0.88030  0.93698  1.0000
  H   H2960     1.0  0.48683  0.73165  0.79168  1.0000
  C   C3729     1.0  0.48921  0.76113  0.97828  1.0000
  S   S506      1.0  0.34755  0.62089  0.82189  1.0000
  C   C3730     1.0  0.62777  0.81328  0.95442  1.0000
  H   H2961     1.0  0.45398  0.73296  0.80018  1.0000
  H   H2962     1.0  0.51004  0.87180  0.73961  1.0000
  C   C3731     1.0  0.58390  0.87825  0.78813  1.0000
  P   P126      1.0  0.60750  0.81767  0.83697  1.0000
  C   C3732     1.0  0.58261  0.83974  0.85954  1.0000
  C   C3733     1.0  0.60675  0.81285  0.81541  1.0000
  H   H2963     1.0  0.33370  0.56845  0.92120  1.0000
  H   H2964     1.0  0.33753  0.78510  0.86192  1.0000
  H   H2965     1.0  0.56855  0.95860  0.88936  1.0000
  C   C3734     1.0  0.58574  0.87606  0.77020  1.0000
  H   H2966     1.0  0.48832  0.73710  0.83330  1.0000
  H   H2967     1.0  0.62210  0.87928  0.81842  1.0000
  H   H2968     1.0  0.58300  0.84507  0.94663  1.0000
  H   H2969     1.0  0.49798  0.77043  0.97005  1.0000
  C   C3735     1.0  0.33320  0.52318  0.74537  1.0000
  C   C3736     1.0  0.60975  0.82568  0.79893  1.0000
  C   C3737     1.0  0.63755  0.82869  0.84182  1.0000
  C   C3738     1.0  0.34770  0.70560  0.76031  1.0000
  C   C3739     1.0  0.34994  0.70183  0.81565  1.0000
  C   C3740     1.0  0.58843  0.88740  0.92200  1.0000
  S   S507      1.0  0.35350  0.54033  0.81732  1.0000
  H   H2970     1.0  0.41529  0.68352  0.78411  1.0000
  C   C3741     1.0  0.33372  0.67769  0.79047  1.0000
  H   H2971     1.0  0.33178  0.60036  0.89383  1.0000
  H   H2972     1.0  0.33177  0.81496  0.87068  1.0000
  H   H2973     1.0  0.55505  0.89732  0.74428  1.0000
  H   H2974     1.0  0.42266  0.65129  0.78050  1.0000
  S   S508      1.0  0.43723  0.81046  0.95919  1.0000
  C   C3742     1.0  0.34043  0.64154  0.84861  1.0000
  H   H2975     1.0  0.42039  0.85054  0.78595  1.0000
  H   H2976     1.0  0.49794  0.76400  0.81119  1.0000
  H   H2977     1.0  0.47042  0.97460  0.80771  1.0000
  H   H2978     1.0  0.55948  0.87770  0.90101  1.0000
  C   C3743     1.0  0.52202  0.72648  0.79014  1.0000
  C   C3744     1.0  0.54274  0.69820  0.78454  1.0000
  S   S509      1.0  0.36718  0.67384  0.86195  1.0000
  C   C3745     1.0  0.37254  0.81472  0.89999  1.0000
  H   H2979     1.0  0.37718  0.73680  0.79824  1.0000
  C   C3746     1.0  0.62085  0.83175  0.94771  1.0000
  C   C3747     1.0  0.51337  0.95510  0.76040  1.0000
  C   C3748     1.0  0.38076  0.86612  0.82192  1.0000
  H   H2980     1.0  0.55733  0.84697  0.81032  1.0000
  C   C3749     1.0  0.33635  0.49678  0.81083  1.0000
  C   C3750     1.0  0.52235  0.73266  0.77131  1.0000
  C   C3751     1.0  0.50410  0.78941  0.77167  1.0000
  C   C3752     1.0  0.57852  0.75689  0.75367  1.0000
  H   H2981     1.0  0.37321  0.86826  0.87301  1.0000
  C   C3753     1.0  0.65520  0.67434  0.91980  1.0000
  S   S510      1.0  0.43850  0.76751  0.95896  1.0000
  H   H2982     1.0  0.57721  0.76958  0.75788  1.0000
  C   C3754     1.0  0.62649  0.86516  0.82490  1.0000
  C   C3755     1.0  0.53329  0.72149  0.75914  1.0000
  H   H2983     1.0  0.49174  0.79316  0.76631  1.0000
  H   H2984     1.0  0.50224  0.92788  0.73282  1.0000
  H   H2985     1.0  0.48252  0.72121  0.73114  1.0000
  C   C3756     1.0  0.65555  0.63863  0.78046  1.0000
  Fe  Fe251     1.0  0.33016  0.56272  0.82641  1.0000
  H   H2986     1.0  0.33037  0.57874  0.95006  1.0000
  C   C3757     1.0  0.43103  0.98182  0.82017  1.0000
  H   H2987     1.0  0.38102  0.51518  0.79948  1.0000
  C   C3758     1.0  0.46474  0.92227  0.74632  1.0000
  C   C3759     1.0  0.34962  0.50074  0.86062  1.0000
  C   C3760     1.0  0.51539  0.77194  0.77176  1.0000
  C   C3761     1.0  0.56702  0.85297  0.78118  1.0000
  H   H2988     1.0  0.46543  0.94850  0.77556  1.0000
  H   H2989     1.0  0.34981  0.70834  0.84117  1.0000
  C   C3762     1.0  0.33025  0.71353  0.75644  1.0000
  H   H2990     1.0  0.33528  0.65871  0.86827  1.0000
  C   C3763     1.0  0.48266  0.96443  0.80975  1.0000
  C   C3764     1.0  0.57022  0.85974  0.92404  1.0000
  H   H2991     1.0  0.35046  0.53659  0.76552  1.0000
  C   C3765     1.0  0.59282  0.97978  0.85076  1.0000
  S   S511      1.0  0.55610  0.83717  0.77733  1.0000
  C   C3766     1.0  0.37456  0.62137  0.88485  1.0000
  S   S512      1.0  0.39939  0.79514  0.96639  1.0000
  H   H2992     1.0  0.39192  0.89031  0.81642  1.0000
  H   H2993     1.0  0.52379  0.95823  0.82147  1.0000
  C   C3767     1.0  0.55189  0.83527  0.84985  1.0000
  C   C3768     1.0  0.49854  0.97663  0.73713  1.0000
  H   H2994     1.0  0.57877  0.86200  0.75284  1.0000
  H   H2995     1.0  0.35882  0.75558  0.74878  1.0000
  C   C3769     1.0  0.40464  0.67725  0.78308  1.0000
  C   C3770     1.0  0.47304  0.76975  0.76054  1.0000
  P   P127      1.0  0.50955  0.75514  0.76295  1.0000
  H   H2996     1.0  0.44509  0.78060  0.75772  1.0000
  H   H2997     1.0  0.60547  0.93498  0.77062  1.0000
  H   H2998     1.0  0.54234  0.89172  0.81428  1.0000
  H   H2999     1.0  0.38954  0.81466  0.85474  1.0000
  H   H3000     1.0  0.33698  0.67231  0.76348  1.0000
  C   C3771     1.0  0.36987  0.85342  0.85404  1.0000
  C   C3772     1.0  0.59116  0.87101  0.93501  1.0000
  C   C3773     1.0  0.38581  0.88001  0.82688  1.0000
  H   H3001     1.0  0.38390  0.70152  0.78534  1.0000
  C   C3774     1.0  0.51733  0.89629  0.78252  1.0000
  C   C3775     1.0  0.53744  0.89670  0.80163  1.0000
  H   H3002     1.0  0.59533  0.89829  0.92104  1.0000
  H   H3003     1.0  0.35819  0.85148  0.92992  1.0000
  C   C3776     1.0  0.40878  0.65907  0.78109  1.0000
  C   C3777     1.0  0.49884  0.93289  0.81205  1.0000
  C   C3778     1.0  0.45426  0.77019  0.76537  1.0000
  C   C3779     1.0  0.57701  0.88974  0.90983  1.0000
  H   H3004     1.0  0.47185  0.86958  0.80222  1.0000
  C   C3780     1.0  0.59145  0.94196  0.77026  1.0000
  H   H3005     1.0  0.37654  0.80402  0.89220  1.0000
  H   H3006     1.0  0.37343  0.81999  0.94213  1.0000
  C   C3781     1.0  0.33724  0.49626  0.87697  1.0000
  H   H3007     1.0  0.64861  0.53010  0.94016  1.0000
  C   C3782     1.0  0.64183  0.86004  0.83283  1.0000
  C   C3783     1.0  0.38676  0.68740  0.78386  1.0000
  H   H3008     1.0  0.50175  0.84785  0.79693  1.0000
  S   S513      1.0  0.40715  0.82492  0.74277  1.0000
  C   C3784     1.0  0.37071  0.82346  0.92845  1.0000
  C   C3785     1.0  0.37102  0.75500  0.73808  1.0000
  H   H3009     1.0  0.51654  0.95702  0.88031  1.0000
  H   H3010     1.0  0.58440  0.71138  0.73801  1.0000
  H   H3011     1.0  0.53644  0.85428  0.86705  1.0000
  C   C3786     1.0  0.48519  0.75587  0.76980  1.0000
  C   C3787     1.0  0.37805  0.80847  0.85616  1.0000
  C   C3788     1.0  0.35289  0.48645  0.80292  1.0000
  H   H3012     1.0  0.36924  0.76967  0.85016  1.0000
  C   C3789     1.0  0.38308  0.88058  0.84532  1.0000
  C   C3790     1.0  0.65053  0.89074  0.94146  1.0000
  C   C3791     1.0  0.35839  0.84575  0.90396  1.0000
  C   C3792     1.0  0.54518  0.90997  0.78804  1.0000
  C   C3793     1.0  0.48027  0.87017  0.78855  1.0000
  H   H3013     1.0  0.63370  0.79275  0.97813  1.0000
  Fe  Fe252     1.0  0.38494  0.81492  0.73688  1.0000
  C   C3794     1.0  0.44762  0.93107  0.74195  1.0000
  C   C3795     1.0  0.39500  0.65094  0.77999  1.0000
  C   C3796     1.0  0.44740  0.75702  0.77978  1.0000
  H   H3014     1.0  0.43288  0.75726  0.78361  1.0000
  H   H3015     1.0  0.61647  0.77835  0.89693  1.0000
  H   H3016     1.0  0.56340  0.84884  0.92477  1.0000
  C   C3797     1.0  0.55470  0.96540  0.88800  1.0000
  C   C3798     1.0  0.37522  0.86733  0.85888  1.0000
  H   H3017     1.0  0.54902  0.84232  0.96437  1.0000
  C   C3799     1.0  0.62924  0.63466  0.91448  1.0000
  H   H3018     1.0  0.54128  0.75498  0.77731  1.0000
  H   H3019     1.0  0.59211  0.96231  0.78450  1.0000
  H   H3020     1.0  0.54750  0.94118  0.88525  1.0000
  H   H3021     1.0  0.39812  0.63673  0.77876  1.0000
  P   P128      1.0  0.60577  0.86802  0.95084  1.0000
  C   C3800     1.0  0.58075  0.93512  0.76257  1.0000
  C   C3801     1.0  0.36070  0.48698  0.85162  1.0000
  C   C3802     1.0  0.59114  0.87873  0.96911  1.0000
  C   C3803     1.0  0.36201  0.84121  0.92156  1.0000
  C   C3804     1.0  0.61485  0.84422  0.95947  1.0000
  H   H3022     1.0  0.52046  0.84887  0.76546  1.0000
  H   H3023     1.0  0.43931  0.89189  0.97875  1.0000
  C   C3805     1.0  0.52504  0.90949  0.76888  1.0000
  S   S514      1.0  0.33163  0.57444  0.84965  1.0000
  C   C3806     1.0  0.36879  0.49348  0.79848  1.0000
  C   C3807     1.0  0.37707  0.66100  0.78085  1.0000
  C   C3808     1.0  0.56546  0.96553  0.77883  1.0000
  C   C3809     1.0  0.50757  0.85850  0.76785  1.0000
  C   C3810     1.0  0.49807  0.96777  0.75538  1.0000
  H   H3024     1.0  0.36827  0.84272  0.83121  1.0000
  C   C3811     1.0  0.36660  0.78305  0.85353  1.0000
  C   C3812     1.0  0.36363  0.83256  0.89296  1.0000
  H   H3025     1.0  0.38295  0.86574  0.80757  1.0000
  C   C3813     1.0  0.63640  0.61613  0.91430  1.0000
  C   C3814     1.0  0.53908  0.91637  0.77151  1.0000
  H   H3026     1.0  0.59439  0.84187  0.86317  1.0000
  H   H3027     1.0  0.55598  0.91499  0.79053  1.0000
  Fe  Fe253     1.0  0.58976  0.77799  0.96650  1.0000
  C   C3815     1.0  0.61964  0.77942  0.88226  1.0000
  C   C3816     1.0  0.63136  0.76493  0.87479  1.0000
  C   C3817     1.0  0.61683  0.83813  0.97778  1.0000
  C   C3818     1.0  0.36029  0.81710  0.86326  1.0000
  H   H3028     1.0  0.36659  0.65428  0.78032  1.0000
  C   C3819     1.0  0.60398  0.80562  0.78243  1.0000
  C   C3820     1.0  0.45930  0.74330  0.78917  1.0000
  C   C3821     1.0  0.47809  0.74265  0.78422  1.0000
  C   C3822     1.0  0.60103  0.79275  0.79871  1.0000
  H   H3029     1.0  0.65253  0.88814  0.89759  1.0000
  C   C3823     1.0  0.54292  0.84001  0.97884  1.0000
  C   C3824     1.0  0.55467  0.95871  0.77118  1.0000
  Fe  Fe254     1.0  0.55977  0.83358  0.74831  1.0000
  C   C3825     1.0  0.60194  0.79651  0.81519  1.0000
  C   C3826     1.0  0.61642  0.85220  0.82577  1.0000
  C   C3827     1.0  0.47434  0.88332  0.77390  1.0000
  H   H3030     1.0  0.62721  0.64323  0.77892  1.0000
  H   H3031     1.0  0.38630  0.73142  0.75351  1.0000
  C   C3828     1.0  0.34380  0.60602  0.89165  1.0000
  H   H3032     1.0  0.63204  0.80362  0.94538  1.0000
  H   H3033     1.0  0.46124  0.89257  0.77638  1.0000
  C   C3829     1.0  0.33598  0.51390  0.81466  1.0000
  C   C3830     1.0  0.62869  0.78239  0.84439  1.0000
  P   P129      1.0  0.35688  0.83808  0.87108  1.0000
  C   C3831     1.0  0.51254  0.95539  0.81751  1.0000
  H   H3034     1.0  0.61589  0.63839  0.92286  1.0000
  C   C3832     1.0  0.32531  0.67314  0.80898  1.0000
  H   H3035     1.0  0.63689  0.75260  0.88375  1.0000
  C   C3833     1.0  0.42497  0.87259  0.97590  1.0000
  H   H3036     1.0  0.38610  0.62789  0.88199  1.0000
  C   C3834     1.0  0.61626  0.79675  0.85184  1.0000
  C   C3835     1.0  0.61200  0.79525  0.87089  1.0000
  H   H3037     1.0  0.60312  0.80637  0.87701  1.0000
  C   C3836     1.0  0.54293  0.95563  0.88549  1.0000
  C   C3837     1.0  0.56524  0.84910  0.86663  1.0000
  H   H3038     1.0  0.32910  0.75335  0.80093  1.0000
  C   C3838     1.0  0.34879  0.79173  0.86022  1.0000
  C   C3839     1.0  0.57845  0.75716  0.73547  1.0000
  H   H3039     1.0  0.52018  0.91420  0.75622  1.0000
  H   H3040     1.0  0.57046  0.81681  0.83369  1.0000
  H   H3041     1.0  0.36466  0.55947  0.77039  1.0000
  C   C3840     1.0  0.54991  0.84702  0.86162  1.0000
  C   C3841     1.0  0.50167  0.87168  0.75320  1.0000
  H   H3042     1.0  0.53994  0.83365  0.84611  1.0000
  H   H3043     1.0  0.54036  0.96506  0.77220  1.0000
  C   C3842     1.0  0.58386  0.95724  0.77825  1.0000
  H   H3044     1.0  0.41223  0.85445  0.96865  1.0000
  C   C3843     1.0  0.58479  0.82812  0.84747  1.0000
  C   C3844     1.0  0.56924  0.82570  0.84291  1.0000
  H   H3045     1.0  0.61017  0.83226  0.76999  1.0000
  C   C3845     1.0  0.48351  0.94641  0.80875  1.0000
  H   H3046     1.0  0.57547  0.90215  0.89939  1.0000
  C   C3846     1.0  0.33300  0.84907  0.87447  1.0000
  H   H3047     1.0  0.64911  0.87031  0.83285  1.0000
  H   H3048     1.0  0.57253  0.67312  0.95036  1.0000
  H   H3049     1.0  0.59884  0.78663  0.82774  1.0000
  C   C3847     1.0  0.62192  0.83379  0.83407  1.0000
  H   H3050     1.0  0.41801  0.96389  0.84321  1.0000
  C   C3848     1.0  0.64766  0.88690  0.91225  1.0000
  H   H3051     1.0  0.64192  0.81480  0.84888  1.0000
  H   H3052     1.0  0.32807  0.67866  0.81928  1.0000
  C   C3849     1.0  0.51341  0.93743  0.81628  1.0000
  H   H3053     1.0  0.63052  0.88161  0.96479  1.0000
  H   H3054     1.0  0.59765  0.77997  0.79866  1.0000
  H   H3055     1.0  0.55227  0.69597  0.75636  1.0000
  H   H3056     1.0  0.55297  0.67279  0.92956  1.0000
  C   C3850     1.0  0.65231  0.69842  0.93591  1.0000
  C   C3851     1.0  0.64682  0.67401  0.78751  1.0000
  H   H3057     1.0  0.33660  0.74131  0.83176  1.0000
  C   C3852     1.0  0.35766  0.62997  0.89379  1.0000
  C   C3853     1.0  0.34561  0.80869  0.86515  1.0000
  H   H3058     1.0  0.35123  0.85948  0.89908  1.0000
  C   C3854     1.0  0.63498  0.88337  0.95007  1.0000
  S   S515      1.0  0.43654  0.96643  0.80509  1.0000
  C   C3855     1.0  0.34647  0.71362  0.82773  1.0000
  C   C3856     1.0  0.56265  0.92397  0.73471  1.0000
  H   H3059     1.0  0.60265  0.80299  0.76975  1.0000
  H   H3060     1.0  0.49913  0.91883  0.81190  1.0000
  Fe  Fe255     1.0  0.42502  0.78726  0.97749  1.0000
  C   C3857     1.0  0.48307  0.75059  0.96975  1.0000
  H   H3061     1.0  0.53438  0.72604  0.74452  1.0000
  C   C3858     1.0  0.56797  0.87590  0.91078  1.0000
  C   C3859     1.0  0.44379  0.95251  0.76137  1.0000
  H   H3062     1.0  0.35046  0.51495  0.85469  1.0000
  H   H3063     1.0  0.64750  0.53361  0.81490  1.0000
  C   C3860     1.0  0.35840  0.49704  0.74905  1.0000
  H   H3064     1.0  0.35640  0.64300  0.89742  1.0000
  H   H3065     1.0  0.45628  0.87314  0.75081  1.0000
  H   H3066     1.0  0.49595  0.74701  0.73451  1.0000
  C   C3861     1.0  0.65329  0.61078  0.90317  1.0000
  H   H3067     1.0  0.32744  0.63732  0.85359  1.0000
  C   C3862     1.0  0.32835  0.72379  0.73901  1.0000
  H   H3068     1.0  0.32877  0.50724  0.88354  1.0000
  C   C3863     1.0  0.45468  0.87982  0.73702  1.0000
  H   H3069     1.0  0.33523  0.86835  0.84843  1.0000
  C   C3864     1.0  0.63342  0.66667  0.78440  1.0000
  C   C3865     1.0  0.32496  0.55556  0.76158  1.0000
  C   C3866     1.0  0.56315  0.90589  0.73371  1.0000
  H   H3070     1.0  0.65204  0.86142  0.87896  1.0000
  H   H3071     1.0  0.32581  0.83195  0.90115  1.0000
  H   H3072     1.0  0.32908  0.62942  0.90349  1.0000
  H   H3073     1.0  0.32392  0.49164  0.81386  1.0000
  Fe  Fe256     1.0  0.32703  0.60210  0.83099  1.0000
  H   H3074     1.0  0.46649  0.73088  0.97342  1.0000
  H   H3075     1.0  0.45901  0.74749  0.74068  1.0000
  H   H3076     1.0  0.65385  0.82907  0.89496  1.0000
  H   H3077     1.0  0.64526  0.75535  0.85000  1.0000
  S   S516      1.0  0.32739  0.59003  0.80741  1.0000
  C   C3867     1.0  0.64738  0.84180  0.84125  1.0000
  H   H3078     1.0  0.37008  0.49052  0.83881  1.0000
  C   C3868     1.0  0.32336  0.58646  0.76482  1.0000
  C   C3869     1.0  0.36448  0.49979  0.73009  1.0000
  H   H3079     1.0  0.53266  0.86864  0.97924  1.0000
  C   C3870     1.0  0.58015  0.74073  0.73008  1.0000
  H   H3080     1.0  0.32334  0.52191  0.82080  1.0000
  Fe  Fe257     1.0  0.84352  0.40081  0.10276  1.0000
  S   S517      1.0  0.83182  0.43034  0.10379  1.0000
  S   S518      1.0  0.82891  0.38652  0.09060  1.0000
  Fe  Fe258     1.0  0.87027  0.39737  0.12686  1.0000
  S   S519      1.0  0.86062  0.42649  0.12984  1.0000
  S   S520      1.0  0.89348  0.38046  0.14020  1.0000
  Fe  Fe259     1.0  0.83240  0.42166  0.13366  1.0000
  S   S521      1.0  0.80954  0.43402  0.15461  1.0000
  Fe  Fe260     1.0  0.86098  0.43252  0.09988  1.0000
  S   S522      1.0  0.87160  0.45733  0.08273  1.0000
  S   S523      1.0  0.84202  0.39179  0.13319  1.0000
  S   S524      1.0  0.87286  0.40356  0.09635  1.0000
  Fe  Fe261     1.0  0.81942  0.38540  0.99393  1.0000
  H   H3081     1.0  0.65985  0.14651  0.02633  1.0000
  S   S525      1.0  0.83261  0.36562  0.01630  1.0000
  C   C3871     1.0  0.67105  0.23315  0.18174  1.0000
  H   H3082     1.0  0.81569  0.46301  0.17028  1.0000
  C   C3872     1.0  0.66866  0.23455  0.19993  1.0000
  H   H3083     1.0  0.73977  0.41874  0.05124  1.0000
  S   S526      1.0  0.78941  0.39007  0.99410  1.0000
  H   H3084     1.0  0.69838  0.44375  0.19573  1.0000
  C   C3873     1.0  0.71158  0.45161  0.01593  1.0000
  S   S527      1.0  0.89438  0.40525  0.21181  1.0000
  H   H3085     1.0  0.70325  0.47642  0.05604  1.0000
  S   S528      1.0  0.95486  0.45823  0.19202  1.0000
  H   H3086     1.0  0.74937  0.46358  0.14706  1.0000
  C   C3874     1.0  0.70633  0.39695  0.14645  1.0000
  H   H3087     1.0  0.88836  0.45067  0.12809  1.0000
  H   H3088     1.0  0.85955  0.47835  0.99733  1.0000
  H   H3089     1.0  0.79751  0.37636  0.08601  1.0000
  C   C3875     1.0  0.77478  0.35619  0.06714  1.0000
  C   C3876     1.0  0.81778  0.46766  0.01683  1.0000
  C   C3877     1.0  0.89506  0.47463  0.17471  1.0000
  H   H3090     1.0  0.94094  0.41767  0.15746  1.0000
  C   C3878     1.0  0.82818  0.46181  0.98608  1.0000
  H   H3091     1.0  0.73137  0.40097  0.10297  1.0000
  H   H3092     1.0  0.82715  0.40839  0.20503  1.0000
  C   C3879     1.0  0.78091  0.41437  0.09074  1.0000
  H   H3093     1.0  0.79619  0.39430  0.03488  1.0000
  Fe  Fe262     1.0  0.72694  0.39829  0.21646  1.0000
  S   S529      1.0  0.74476  0.39193  0.18987  1.0000
  H   H3094     1.0  0.79965  0.47396  0.13791  1.0000
  C   C3880     1.0  0.83065  0.46308  0.21817  1.0000
  C   C3881     1.0  0.65883  0.12085  0.15911  1.0000
  Fe  Fe263     1.0  0.92144  0.40627  0.21708  1.0000
  C   C3882     1.0  0.86198  0.45120  0.16412  1.0000
  C   C3883     1.0  0.77706  0.42528  0.22873  1.0000
  H   H3095     1.0  0.82997  0.47426  0.20643  1.0000
  H   H3096     1.0  0.78096  0.45218  0.21414  1.0000
  C   C3884     1.0  0.82253  0.47592  0.07130  1.0000
  C   C3885     1.0  0.72128  0.44836  0.11357  1.0000
  C   C3886     1.0  0.82966  0.46452  0.16821  1.0000
  C   C3887     1.0  0.77738  0.43721  0.04303  1.0000
  H   H3097     1.0  0.70953  0.12922  0.07148  1.0000
  H   H3098     1.0  0.85523  0.41982  0.22969  1.0000
  C   C3888     1.0  0.77443  0.35258  0.13976  1.0000
  H   H3099     1.0  0.74224  0.36759  0.10349  1.0000
  C   C3889     1.0  0.75397  0.41985  0.04774  1.0000
  H   H3100     1.0  0.79452  0.43549  0.07297  1.0000
  C   C3890     1.0  0.68370  0.23005  0.20839  1.0000
  H   H3101     1.0  0.93326  0.40517  0.13444  1.0000
  H   H3102     1.0  0.79315  0.45091  0.09787  1.0000
  P   P130      1.0  0.83944  0.47832  0.03455  1.0000
  C   C3891     1.0  0.90958  0.48313  0.17301  1.0000
  C   C3892     1.0  0.79077  0.42213  0.03859  1.0000
  C   C3893     1.0  0.79691  0.37174  0.13091  1.0000
  C   C3894     1.0  0.74368  0.45666  0.08623  1.0000
  H   H3103     1.0  0.80180  0.38397  0.12314  1.0000
  H   H3104     1.0  0.90694  0.42165  0.11994  1.0000
  H   H3105     1.0  0.71649  0.44666  0.12826  1.0000
  C   C3895     1.0  0.66484  0.21798  0.05838  1.0000
  H   H3106     1.0  0.73321  0.09913  0.18189  1.0000
  C   C3896     1.0  0.78618  0.37177  0.08403  1.0000
  H   H3107     1.0  0.82086  0.36099  0.14260  1.0000
  C   C3897     1.0  0.69945  0.14284  0.22548  1.0000
  H   H3108     1.0  0.71724  0.21933  0.17200  1.0000
  C   C3898     1.0  0.73342  0.45301  0.07547  1.0000
  C   C3899     1.0  0.70365  0.22332  0.17990  1.0000
  H   H3109     1.0  0.92252  0.44638  0.16609  1.0000
  C   C3900     1.0  0.89026  0.46989  0.20780  1.0000
  C   C3901     1.0  0.71029  0.40072  0.12733  1.0000
  H   H3110     1.0  0.80283  0.45649  0.00368  1.0000
  C   C3902     1.0  0.76243  0.47968  0.02570  1.0000
  H   H3111     1.0  0.66839  0.14507  0.14293  1.0000
  H   H3112     1.0  0.76704  0.41018  0.13691  1.0000
  H   H3113     1.0  0.88321  0.46416  0.22127  1.0000
  C   C3903     1.0  0.72051  0.39010  0.15603  1.0000
  H   H3114     1.0  0.69030  0.22657  0.15759  1.0000
  C   C3904     1.0  0.68851  0.22741  0.17176  1.0000
  H   H3115     1.0  0.77704  0.34925  0.05594  1.0000
  H   H3116     1.0  0.84176  0.45963  0.11333  1.0000
  C   C3905     1.0  0.91914  0.44150  0.15565  1.0000
  S   S530      1.0  0.94862  0.40836  0.19811  1.0000
  C   C3906     1.0  0.79248  0.42128  0.16555  1.0000
  C   C3907     1.0  0.77772  0.42833  0.17839  1.0000
  C   C3908     1.0  0.76319  0.41920  0.18624  1.0000
  C   C3909     1.0  0.76344  0.40286  0.18143  1.0000
  C   C3910     1.0  0.77848  0.39547  0.16906  1.0000
  C   C3911     1.0  0.79295  0.40471  0.16104  1.0000
  H   H3117     1.0  0.77735  0.44101  0.18212  1.0000
  H   H3118     1.0  0.75152  0.42520  0.19546  1.0000
  H   H3119     1.0  0.77877  0.38275  0.16543  1.0000
  H   H3120     1.0  0.80421  0.39922  0.15109  1.0000
  C   C3912     1.0  0.89406  0.38800  0.15965  1.0000
  C   C3913     1.0  0.87845  0.39861  0.16855  1.0000
  C   C3914     1.0  0.87875  0.40385  0.18454  1.0000
  C   C3915     1.0  0.89481  0.39904  0.19137  1.0000
  C   C3916     1.0  0.91053  0.38868  0.18236  1.0000
  C   C3917     1.0  0.91006  0.38290  0.16668  1.0000
  H   H3121     1.0  0.86587  0.40202  0.16364  1.0000
  H   H3122     1.0  0.86647  0.41153  0.19170  1.0000
  H   H3123     1.0  0.92292  0.38479  0.18771  1.0000
  H   H3124     1.0  0.92213  0.37460  0.15990  1.0000
  C   C3918     1.0  0.83552  0.37235  0.03538  1.0000
  C   C3919     1.0  0.83277  0.39076  0.03639  1.0000
  C   C3920     1.0  0.83243  0.39543  0.05302  1.0000
  C   C3921     1.0  0.83528  0.38164  0.06849  1.0000
  C   C3922     1.0  0.83904  0.36329  0.06703  1.0000
  C   C3923     1.0  0.83942  0.35867  0.05052  1.0000
  H   H3125     1.0  0.83028  0.40131  0.02453  1.0000
  H   H3126     1.0  0.82897  0.40963  0.05418  1.0000
  H   H3127     1.0  0.84077  0.35256  0.07899  1.0000
  H   H3128     1.0  0.84168  0.34441  0.04981  1.0000
  H   H3129     1.0  0.90104  0.46815  0.99488  1.0000
  C   C3924     1.0  0.90689  0.47991  0.98721  1.0000
  H   H3130     1.0  0.87961  0.47060  0.02939  1.0000
  H   H3131     1.0  0.78163  0.44942  0.04324  1.0000
  C   C3925     1.0  0.68978  0.16326  0.03131  1.0000
  H   H3132     1.0  0.74146  0.45951  0.20368  1.0000
  C   C3926     1.0  0.70401  0.13869  0.06024  1.0000
  H   H3133     1.0  0.84091  0.43565  0.17015  1.0000
  C   C3927     1.0  0.84387  0.44916  0.16791  1.0000
  C   C3928     1.0  0.78797  0.43025  0.08682  1.0000
  C   C3929     1.0  0.70569  0.46930  0.04497  1.0000
  H   H3134     1.0  0.93087  0.47101  0.99906  1.0000
  C   C3930     1.0  0.68511  0.26890  0.21494  1.0000
  H   H3135     1.0  0.81380  0.36789  0.19382  1.0000
  C   C3931     1.0  0.73357  0.44285  0.15879  1.0000
  H   H3136     1.0  0.68068  0.19394  0.04860  1.0000
  C   C3932     1.0  0.86606  0.46871  0.16018  1.0000
  H   H3137     1.0  0.80781  0.46680  0.02954  1.0000
  C   C3933     1.0  0.66712  0.20078  0.05426  1.0000
  H   H3138     1.0  0.76364  0.39212  0.04353  1.0000
  H   H3139     1.0  0.80499  0.42314  0.03487  1.0000
  H   H3140     1.0  0.73933  0.44268  0.01920  1.0000
  C   C3934     1.0  0.84333  0.44673  0.21619  1.0000
  H   H3141     1.0  0.85326  0.37399  0.22149  1.0000
  C   C3935     1.0  0.90421  0.45100  0.14744  1.0000
  C   C3936     1.0  0.80293  0.40029  0.22346  1.0000
  C   C3937     1.0  0.72594  0.45024  0.02443  1.0000
  C   C3938     1.0  0.75882  0.43648  0.04676  1.0000
  P   P131      1.0  0.74124  0.45633  0.05097  1.0000
  C   C3939     1.0  0.71539  0.14246  0.04307  1.0000
  C   C3940     1.0  0.77211  0.48117  0.15277  1.0000
  H   H3142     1.0  0.81040  0.33265  0.16082  1.0000
  H   H3143     1.0  0.74711  0.35248  0.07770  1.0000
  H   H3144     1.0  0.76163  0.34994  0.13883  1.0000
  H   H3145     1.0  0.71751  0.38739  0.17088  1.0000
  H   H3146     1.0  0.68453  0.17293  0.02002  1.0000
  H   H3147     1.0  0.71575  0.42411  0.17342  1.0000
  C   C3941     1.0  0.77263  0.41582  0.12285  1.0000
  H   H3148     1.0  0.68322  0.46300  0.01516  1.0000
  C   C3942     1.0  0.80193  0.34272  0.15220  1.0000
  H   H3149     1.0  0.74551  0.45729  0.11344  1.0000
  C   C3943     1.0  0.70130  0.22484  0.19807  1.0000
  H   H3150     1.0  0.82771  0.48316  0.13149  1.0000
  C   C3944     1.0  0.71923  0.43713  0.17245  1.0000
  C   C3945     1.0  0.75513  0.36702  0.09381  1.0000
  C   C3946     1.0  0.84981  0.37007  0.21050  1.0000
  C   C3947     1.0  0.78892  0.36291  0.06957  1.0000
  C   C3948     1.0  0.84403  0.46818  0.98421  1.0000
  C   C3949     1.0  0.74208  0.47207  0.20708  1.0000
  C   C3950     1.0  0.72296  0.45860  0.03941  1.0000
  H   H3151     1.0  0.83521  0.46720  0.07441  1.0000
  C   C3951     1.0  0.82770  0.36685  0.19489  1.0000
  C   C3952     1.0  0.91058  0.42743  0.12961  1.0000
  C   C3953     1.0  0.78525  0.33965  0.15106  1.0000
  H   H3152     1.0  0.87510  0.46033  0.19387  1.0000
  H   H3153     1.0  0.67655  0.22417  0.05599  1.0000
  H   H3154     1.0  0.76759  0.46878  0.01809  1.0000
  H   H3155     1.0  0.75834  0.48288  0.98958  1.0000
  C   C3954     1.0  0.80779  0.35870  0.14204  1.0000
  H   H3156     1.0  0.71327  0.22227  0.20387  1.0000
  C   C3955     1.0  0.85167  0.48401  0.16103  1.0000
  C   C3956     1.0  0.92370  0.48149  0.98954  1.0000
  H   H3157     1.0  0.77966  0.43806  0.12989  1.0000
  H   H3158     1.0  0.87800  0.36419  0.19665  1.0000
  H   H3159     1.0  0.80209  0.36112  0.06031  1.0000
  C   C3957     1.0  0.80519  0.43156  0.20834  1.0000
  H   H3160     1.0  0.74114  0.43421  0.14916  1.0000
  H   H3161     1.0  0.85187  0.44506  0.20302  1.0000
  C   C3958     1.0  0.77355  0.40681  0.10890  1.0000
  C   C3959     1.0  0.70828  0.15478  0.02863  1.0000
  C   C3960     1.0  0.86295  0.42548  0.05393  1.0000
  C   C3961     1.0  0.88160  0.42565  0.04925  1.0000
  C   C3962     1.0  0.88751  0.44196  0.04044  1.0000
  C   C3963     1.0  0.87477  0.45815  0.03631  1.0000
  C   C3964     1.0  0.85599  0.45815  0.04140  1.0000
  C   C3965     1.0  0.85018  0.44165  0.05000  1.0000
  C   C3966     1.0  0.75792  0.35814  0.07932  1.0000
  H   H3162     1.0  0.78075  0.32720  0.15884  1.0000
  C   C3967     1.0  0.81311  0.41289  0.21164  1.0000
  C   C3968     1.0  0.83158  0.37061  0.21021  1.0000
  H   H3163     1.0  0.79914  0.47498  0.20463  1.0000
  P   P132      1.0  0.88953  0.47138  0.15458  1.0000
  H   H3164     1.0  0.69228  0.39934  0.15391  1.0000
  C   C3969     1.0  0.70959  0.44803  0.18513  1.0000
  H   H3165     1.0  0.81079  0.47679  0.09959  1.0000
  C   C3970     1.0  0.84186  0.36196  0.18049  1.0000
  C   C3971     1.0  0.92970  0.42515  0.15079  1.0000
  C   C3972     1.0  0.78582  0.40593  0.03863  1.0000
  C   C3973     1.0  0.67818  0.15929  0.04844  1.0000
  C   C3974     1.0  0.95514  0.47240  0.20629  1.0000
  C   C3975     1.0  0.92541  0.41812  0.13780  1.0000
  Fe  Fe264     1.0  0.96087  0.39257  0.22250  1.0000
  H   H3166     1.0  0.90870  0.47961  0.21802  1.0000
  H   H3167     1.0  0.71397  0.44488  0.00456  1.0000
  C   C3976     1.0  0.76743  0.40471  0.04347  1.0000
  H   H3168     1.0  0.85842  0.41280  0.06077  1.0000
  H   H3169     1.0  0.89144  0.41316  0.05268  1.0000
  H   H3170     1.0  0.90195  0.44211  0.03711  1.0000
  C   C3977     1.0  0.66814  0.36811  0.22323  1.0000
  H   H3171     1.0  0.83578  0.44126  0.05364  1.0000
  C   C3978     1.0  0.90006  0.44383  0.13433  1.0000
  H   H3172     1.0  0.78170  0.40790  0.07964  1.0000
  C   C3979     1.0  0.85998  0.36068  0.18130  1.0000
  H   H3173     1.0  0.67155  0.10034  0.19916  1.0000
  H   H3174     1.0  0.76081  0.36125  0.21491  1.0000
  C   C3980     1.0  0.86394  0.36465  0.19634  1.0000
  H   H3175     1.0  0.83880  0.35935  0.16859  1.0000
  H   H3176     1.0  0.67242  0.11248  0.15886  1.0000
  C   C3981     1.0  0.69140  0.47086  0.03626  1.0000
  H   H3177     1.0  0.74936  0.38149  0.15432  1.0000
  H   H3178     1.0  0.77187  0.46718  0.15985  1.0000
  S   S531      1.0  0.69655  0.40832  0.22093  1.0000
  C   C3982     1.0  0.86085  0.47507  0.09451  1.0000
  H   H3179     1.0  0.71712  0.15779  0.01534  1.0000
  C   C3983     1.0  0.65936  0.36313  0.21186  1.0000
  H   H3180     1.0  0.73009  0.11722  0.15087  1.0000
  C   C3984     1.0  0.73758  0.45439  0.10521  1.0000
  C   C3985     1.0  0.78728  0.43892  0.10087  1.0000
  C   C3986     1.0  0.71737  0.44638  0.08404  1.0000
  H   H3181     1.0  0.90215  0.47720  0.11426  1.0000
  C   C3987     1.0  0.74270  0.38974  0.12733  1.0000
  H   H3182     1.0  0.71587  0.48252  0.98947  1.0000
  C   C3988     1.0  0.78006  0.36885  0.12980  1.0000
  C   C3989     1.0  0.81498  0.46168  0.00230  1.0000
  H   H3183     1.0  0.66616  0.17058  0.19860  1.0000
  H   H3184     1.0  0.67698  0.14414  0.07643  1.0000
  Fe  Fe265     1.0  0.94684  0.43254  0.20995  1.0000
  C   C3990     1.0  0.80872  0.48149  0.08564  1.0000
  H   H3185     1.0  0.70251  0.14155  0.14680  1.0000
  C   C3991     1.0  0.83378  0.47395  0.01508  1.0000
  H   H3186     1.0  0.87096  0.35714  0.17002  1.0000
  H   H3187     1.0  0.70959  0.44273  0.07619  1.0000
  C   C3992     1.0  0.76909  0.37444  0.09595  1.0000
  H   H3188     1.0  0.69926  0.40601  0.11993  1.0000
  H   H3189     1.0  0.81307  0.44115  0.19915  1.0000
  C   C3993     1.0  0.73848  0.45934  0.15796  1.0000
  C   C3994     1.0  0.77962  0.43171  0.11889  1.0000
  H   H3190     1.0  0.69088  0.26410  0.20228  1.0000
  C   C3995     1.0  0.72947  0.46986  0.17132  1.0000
  C   C3996     1.0  0.84687  0.47415  0.99868  1.0000
  H   H3191     1.0  0.78383  0.37974  0.21018  1.0000
  C   C3997     1.0  0.78716  0.43776  0.21683  1.0000
  H   H3192     1.0  0.67828  0.14787  0.17324  1.0000
  H   H3193     1.0  0.69853  0.43976  0.10949  1.0000
  S   S532      1.0  0.98572  0.36967  0.22165  1.0000
  C   C3998     1.0  0.77043  0.35740  0.22393  1.0000
  H   H3194     1.0  0.72972  0.13587  0.04097  1.0000
  H   H3195     1.0  0.65935  0.23705  0.17525  1.0000
  C   C3999     1.0  0.69430  0.46187  0.02187  1.0000
  P   P133      1.0  0.76612  0.38527  0.11503  1.0000
  H   H3196     1.0  0.87273  0.43909  0.16405  1.0000
  C   C4000     1.0  0.68550  0.14714  0.06298  1.0000
  C   C4001     1.0  0.73862  0.38661  0.14654  1.0000
  C   C4002     1.0  0.84660  0.47223  0.10951  1.0000
  Fe  Fe266     1.0  0.79173  0.41945  0.98278  1.0000
  S   S533      1.0  0.77233  0.44428  0.99144  1.0000
  H   H3197     1.0  0.75638  0.46127  0.07994  1.0000
  C   C4003     1.0  0.71467  0.46430  0.18459  1.0000
  C   C4004     1.0  0.71117  0.44441  0.10298  1.0000
  C   C4005     1.0  0.70408  0.13388  0.16038  1.0000
  C   C4006     1.0  0.71957  0.12014  0.16267  1.0000
  C   C4007     1.0  0.72133  0.10997  0.18014  1.0000
  H   H3198     1.0  0.67806  0.47902  0.04068  1.0000
  C   C4008     1.0  0.69204  0.12742  0.19317  1.0000
  C   C4009     1.0  0.69034  0.13751  0.17553  1.0000
  H   H3199     1.0  0.68815  0.29665  0.20228  1.0000
  C   C4010     1.0  0.72845  0.39757  0.11778  1.0000
  H   H3200     1.0  0.70728  0.47229  0.19489  1.0000
  C   C4011     1.0  0.66446  0.07963  0.22253  1.0000
  C   C4012     1.0  0.82034  0.48241  0.05311  1.0000
  S   S534      1.0  0.82080  0.41503  0.98524  1.0000
  C   C4013     1.0  0.90458  0.47859  0.20598  1.0000
  C   C4014     1.0  0.94935  0.46727  0.22523  1.0000
  C   C4015     1.0  0.74944  0.47750  0.04211  1.0000
  P   P134      1.0  0.67416  0.13121  0.21295  1.0000
  C   C4016     1.0  0.88564  0.46776  0.19222  1.0000
  P   P135      1.0  0.81331  0.37636  0.22910  1.0000
  C   C4017     1.0  0.74395  0.47154  0.22474  1.0000
  C   C4018     1.0  0.83356  0.48188  0.16509  1.0000
  H   H3201     1.0  0.66086  0.36975  0.19757  1.0000
  C   C4019     1.0  0.68374  0.28737  0.21488  1.0000
  H   H3202     1.0  0.67631  0.37848  0.21765  1.0000
  C   C4020     1.0  0.78360  0.36781  0.22124  1.0000
  H   H3203     1.0  0.70976  0.13804  0.21439  1.0000
  H   H3204     1.0  0.98714  0.44588  0.20764  1.0000
  C   C4021     1.0  0.65656  0.13927  0.15015  1.0000
  C   C4022     1.0  0.70761  0.11355  0.19533  1.0000
  C   C4023     1.0  0.68118  0.14148  0.22789  1.0000
  H   H3205     1.0  0.66426  0.07029  0.21425  1.0000
  H   H3206     1.0  0.70898  0.10533  0.20876  1.0000
  S   S535      1.0  0.91877  0.43195  0.22683  1.0000
  C   C4024     1.0  0.66875  0.10914  0.22445  1.0000
  C   C4025     1.0  0.66870  0.09672  0.21398  1.0000
  C   C4026     1.0  0.79876  0.40901  0.43414  1.0000
  Fe  Fe267     1.0  0.93260  0.41363  0.24891  1.0000
  S   S536      1.0  0.92069  0.41706  0.27791  1.0000
  H   H3207     1.0  0.85327  0.34269  0.27303  1.0000
  Fe  Fe268     1.0  0.86199  0.04012  0.41321  1.0000
  S   S537      1.0  0.83647  0.04833  0.43353  1.0000
  S   S538      1.0  0.87197  0.01045  0.40996  1.0000
  Fe  Fe269     1.0  0.87258  0.07762  0.40640  1.0000
  S   S539      1.0  0.84796  0.08835  0.42630  1.0000
  S   S540      1.0  0.89079  0.09763  0.39137  1.0000
  Fe  Fe270     1.0  0.85414  0.06060  0.44411  1.0000
  C   C4027     1.0  0.98277  0.38866  0.26635  1.0000
  Fe  Fe271     1.0  0.83289  0.07537  0.41362  1.0000
  S   S541      1.0  0.80766  0.09186  0.40308  1.0000
  S   S542      1.0  0.87991  0.05076  0.42510  1.0000
  S   S543      1.0  0.85721  0.06628  0.39230  1.0000
  C   C4028     1.0  0.70371  0.46586  0.25665  1.0000
  Fe  Fe272     1.0  0.95295  0.13320  0.43050  1.0000
  S   S544      1.0  0.92904  0.15048  0.44550  1.0000
  S   S545      1.0  0.95223  0.10515  0.42751  1.0000
  S   S546      1.0  0.95600  0.17926  0.44114  1.0000
  Fe  Fe273     1.0  0.94893  0.15361  0.46048  1.0000
  Fe  Fe274     1.0  0.93798  0.17448  0.42491  1.0000
  S   S547      1.0  0.91634  0.19548  0.41186  1.0000
  C   C4029     1.0  0.70465  0.15030  0.23762  1.0000
  Fe  Fe275     1.0  0.84850  0.27678  0.44313  1.0000
  S   S548      1.0  0.83224  0.30528  0.44480  1.0000
  S   S549      1.0  0.87922  0.26980  0.43894  1.0000
  Fe  Fe276     1.0  0.81509  0.26063  0.44970  1.0000
  S   S550      1.0  0.79587  0.28750  0.45161  1.0000
  S   S551      1.0  0.80658  0.23349  0.45559  1.0000
  Fe  Fe277     1.0  0.81574  0.29957  0.42762  1.0000
  S   S552      1.0  0.80582  0.31907  0.40313  1.0000
  H   H3208     1.0  0.75987  0.44337  0.27238  1.0000
  S   S553      1.0  0.83343  0.27212  0.42404  1.0000
  H   H3209     1.0  0.78184  0.38441  0.43062  1.0000
  Fe  Fe278     1.0  0.80285  0.42098  0.35954  1.0000
  S   S554      1.0  0.79824  0.40778  0.33899  1.0000
  S   S555      1.0  0.80688  0.40382  0.38732  1.0000
  Fe  Fe279     1.0  0.80284  0.45808  0.33338  1.0000
  S   S556      1.0  0.79842  0.44730  0.31072  1.0000
  C   C4030     1.0  0.82135  0.45039  0.25038  1.0000
  Fe  Fe280     1.0  0.77802  0.43361  0.33218  1.0000
  S   S557      1.0  0.75065  0.43440  0.32659  1.0000
  Fe  Fe281     1.0  0.81912  0.42254  0.31942  1.0000
  S   S558      1.0  0.83861  0.40791  0.29819  1.0000
  S   S559      1.0  0.78066  0.44607  0.35445  1.0000
  S   S560      1.0  0.82543  0.43417  0.34031  1.0000
  C   C4031     1.0  0.75799  0.99106  0.40300  1.0000
  H   H3210     1.0  0.87018  0.09935  0.44580  1.0000
  S   S561      1.0  0.69769  0.40475  0.26430  1.0000
  H   H3211     1.0  0.70000  0.19499  0.23249  1.0000
  H   H3212     1.0  0.81320  0.45162  0.26387  1.0000
  S   S562      1.0  0.75000  0.38529  0.27289  1.0000
  C   C4032     1.0  0.92008  0.23387  0.47094  1.0000
  H   H3213     1.0  0.95154  0.40728  0.29991  1.0000
  H   H3214     1.0  0.65592  0.08361  0.26690  1.0000
  Fe  Fe282     1.0  0.72884  0.16429  0.44387  1.0000
  S   S563      1.0  0.72976  0.18130  0.41520  1.0000
  S   S564      1.0  0.74367  0.13570  0.45479  1.0000
  Fe  Fe283     1.0  0.70261  0.19450  0.46174  1.0000
  S   S565      1.0  0.70109  0.21367  0.43473  1.0000
  H   H3215     1.0  0.66329  0.16014  0.26583  1.0000
  Fe  Fe284     1.0  0.69914  0.18960  0.42431  1.0000
  S   S566      1.0  0.67586  0.19609  0.40889  1.0000
  Fe  Fe285     1.0  0.73149  0.20404  0.42785  1.0000
  S   S567      1.0  0.74800  0.22628  0.41473  1.0000
  S   S568      1.0  0.69822  0.17114  0.45212  1.0000
  S   S569      1.0  0.73303  0.18636  0.45560  1.0000
  H   H3216     1.0  0.95251  0.46169  0.29511  1.0000
  C   C4033     1.0  0.78030  0.33482  0.45741  1.0000
  H   H3217     1.0  0.74187  0.19017  0.26177  1.0000
  C   C4034     1.0  0.84241  0.35431  0.26995  1.0000
  C   C4035     1.0  0.69929  0.27207  0.47768  1.0000
  C   C4036     1.0  0.78174  0.47920  0.25434  1.0000
  C   C4037     1.0  0.89896  0.18106  0.35741  1.0000
  H   H3218     1.0  0.97317  0.24947  0.39550  1.0000
  H   H3219     1.0  0.97387  0.42698  0.29360  1.0000
  H   H3220     1.0  0.93141  0.19518  0.37356  1.0000
  H   H3221     1.0  0.95310  0.20748  0.38281  1.0000
  C   C4038     1.0  0.77242  0.36007  0.43295  1.0000
  H   H3222     1.0  0.77930  0.40504  0.47950  1.0000
  H   H3223     1.0  0.92956  0.23935  0.45910  1.0000
  H   H3224     1.0  0.80747  0.40113  0.42424  1.0000
  C   C4039     1.0  0.85610  0.37833  0.43411  1.0000
  C   C4040     1.0  0.66976  0.28233  0.24708  1.0000
  H   H3225     1.0  0.70465  0.24150  0.25114  1.0000
  C   C4041     1.0  0.67062  0.18491  0.39395  1.0000
  C   C4042     1.0  0.68243  0.16959  0.38796  1.0000
  C   C4043     1.0  0.65994  0.08713  0.25213  1.0000
  C   C4044     1.0  0.83446  0.35192  0.44751  1.0000
  C   C4045     1.0  0.86342  0.15146  0.44350  1.0000
  H   H3226     1.0  0.79520  0.43382  0.41377  1.0000
  H   H3227     1.0  0.69521  0.16411  0.39255  1.0000
  C   C4046     1.0  0.87125  0.47988  0.27456  1.0000
  H   H3228     1.0  0.93607  0.20644  0.47324  1.0000
  C   C4047     1.0  0.81897  0.46474  0.23517  1.0000
  C   C4048     1.0  0.90959  0.16913  0.38589  1.0000
  H   H3229     1.0  0.82797  0.00118  0.37894  1.0000
  H   H3230     1.0  0.78611  0.45199  0.24885  1.0000
  H   H3231     1.0  0.68691  0.14944  0.37148  1.0000
  C   C4049     1.0  0.75121  0.42204  0.31020  1.0000
  C   C4050     1.0  0.73549  0.42436  0.30329  1.0000
  C   C4051     1.0  0.73522  0.41360  0.29122  1.0000
  C   C4052     1.0  0.75061  0.40034  0.28626  1.0000
  C   C4053     1.0  0.76649  0.39842  0.29274  1.0000
  C   C4054     1.0  0.76685  0.40933  0.30459  1.0000
  H   H3232     1.0  0.72339  0.43428  0.30751  1.0000
  H   H3233     1.0  0.72294  0.41520  0.28622  1.0000
  H   H3234     1.0  0.77848  0.38835  0.28874  1.0000
  H   H3235     1.0  0.77905  0.40760  0.30973  1.0000
  C   C4055     1.0  0.76399  0.22834  0.42645  1.0000
  C   C4056     1.0  0.77099  0.24440  0.42164  1.0000
  C   C4057     1.0  0.78393  0.24623  0.43063  1.0000
  C   C4058     1.0  0.79005  0.23190  0.44435  1.0000
  C   C4059     1.0  0.78316  0.21582  0.44905  1.0000
  C   C4060     1.0  0.77014  0.21406  0.44018  1.0000
  H   H3236     1.0  0.76640  0.25546  0.41095  1.0000
  H   H3237     1.0  0.78935  0.25858  0.42682  1.0000
  H   H3238     1.0  0.78794  0.20464  0.45956  1.0000
  H   H3239     1.0  0.76509  0.20155  0.44382  1.0000
  C   C4061     1.0  0.80652  0.34249  0.39893  1.0000
  C   C4062     1.0  0.79751  0.35477  0.38569  1.0000
  C   C4063     1.0  0.79766  0.37354  0.38193  1.0000
  C   C4064     1.0  0.80704  0.38018  0.39127  1.0000
  C   C4065     1.0  0.81633  0.36783  0.40433  1.0000
  C   C4066     1.0  0.81599  0.34905  0.40825  1.0000
  H   H3240     1.0  0.79026  0.34975  0.37841  1.0000
  H   H3241     1.0  0.79020  0.38290  0.37209  1.0000
  H   H3242     1.0  0.82379  0.37281  0.41145  1.0000
  H   H3243     1.0  0.82310  0.33970  0.41838  1.0000
  C   C4067     1.0  0.90624  0.21569  0.42017  1.0000
  C   C4068     1.0  0.91667  0.22551  0.42483  1.0000
  C   C4069     1.0  0.90834  0.24237  0.43010  1.0000
  C   C4070     1.0  0.88947  0.24900  0.43161  1.0000
  C   C4071     1.0  0.87906  0.23901  0.42719  1.0000
  C   C4072     1.0  0.88749  0.22263  0.42107  1.0000
  H   H3244     1.0  0.93121  0.22039  0.42383  1.0000
  H   H3245     1.0  0.91650  0.25034  0.43297  1.0000
  H   H3246     1.0  0.86453  0.24388  0.42837  1.0000
  H   H3247     1.0  0.87940  0.21512  0.41737  1.0000
  C   C4073     1.0  0.76203  0.12453  0.44003  1.0000
  C   C4074     1.0  0.76355  0.12911  0.42106  1.0000
  C   C4075     1.0  0.77766  0.11903  0.40980  1.0000
  C   C4076     1.0  0.79068  0.10480  0.41741  1.0000
  C   C4077     1.0  0.78956  0.10067  0.43630  1.0000
  C   C4078     1.0  0.77502  0.11026  0.44760  1.0000
  H   H3248     1.0  0.75353  0.14004  0.41511  1.0000
  H   H3249     1.0  0.77843  0.12218  0.39519  1.0000
  H   H3250     1.0  0.79966  0.08983  0.44216  1.0000
  H   H3251     1.0  0.77389  0.10678  0.46223  1.0000
  C   C4079     1.0  0.90586  0.09990  0.40390  1.0000
  C   C4080     1.0  0.91606  0.08437  0.41336  1.0000
  C   C4081     1.0  0.92991  0.08615  0.42111  1.0000
  C   C4082     1.0  0.93321  0.10348  0.41996  1.0000
  C   C4083     1.0  0.92223  0.11911  0.41152  1.0000
  C   C4084     1.0  0.90884  0.11730  0.40314  1.0000
  H   H3252     1.0  0.91388  0.07092  0.41393  1.0000
  C   C4085     1.0  0.86564  0.45469  0.26463  1.0000
  H   H3253     1.0  0.92474  0.13246  0.41068  1.0000
  H   H3254     1.0  0.90104  0.12935  0.39577  1.0000
  C   C4086     1.0  0.66612  0.35982  0.24180  1.0000
  C   C4087     1.0  0.75648  0.07017  0.45071  1.0000
  C   C4088     1.0  0.84633  0.00593  0.39323  1.0000
  C   C4089     1.0  0.85735  0.99818  0.40616  1.0000
  C   C4090     1.0  0.79001  0.36340  0.45348  1.0000
  C   C4091     1.0  0.90653  0.48491  0.27942  1.0000
  C   C4092     1.0  0.83590  0.99539  0.38945  1.0000
  H   H3255     1.0  0.84629  0.01985  0.38573  1.0000
  H   H3256     1.0  0.76668  0.15684  0.46338  1.0000
  C   C4093     1.0  0.67918  0.23350  0.37394  1.0000
  C   C4094     1.0  0.92849  0.45742  0.28895  1.0000
  C   C4095     1.0  0.82192  0.37252  0.24975  1.0000
  H   H3257     1.0  0.77681  0.39719  0.24136  1.0000
  C   C4096     1.0  0.65659  0.23524  0.32430  1.0000
  H   H3258     1.0  0.78072  0.32595  0.26155  1.0000
  C   C4097     1.0  0.86800  0.11394  0.44517  1.0000
  H   H3259     1.0  0.98282  0.43821  0.24119  1.0000
  H   H3260     1.0  0.98485  0.37839  0.25828  1.0000
  C   C4098     1.0  0.78055  0.43803  0.44070  1.0000
  C   C4099     1.0  0.89786  0.41456  0.28373  1.0000
  C   C4100     1.0  0.89083  0.40816  0.27213  1.0000
  C   C4101     1.0  0.87267  0.40597  0.27685  1.0000
  C   C4102     1.0  0.86136  0.41047  0.29304  1.0000
  C   C4103     1.0  0.86828  0.41703  0.30461  1.0000
  C   C4104     1.0  0.88656  0.41900  0.29999  1.0000
  H   H3261     1.0  0.89931  0.40495  0.25944  1.0000
  H   H3262     1.0  0.86736  0.40104  0.26776  1.0000
  H   H3263     1.0  0.85960  0.42055  0.31709  1.0000
  H   H3264     1.0  0.89189  0.42412  0.30891  1.0000
  C   C4105     1.0  0.75139  0.46941  0.28059  1.0000
  H   H3265     1.0  0.71440  0.47429  0.27566  1.0000
  H   H3266     1.0  0.77744  0.30752  0.33768  1.0000
  C   C4106     1.0  0.78484  0.40662  0.23196  1.0000
  C   C4107     1.0  0.94585  0.18949  0.36991  1.0000
  C   C4108     1.0  0.76271  0.45691  0.27015  1.0000
  C   C4109     1.0  0.80911  0.13043  0.45419  1.0000
  C   C4110     1.0  0.79171  0.13669  0.46399  1.0000
  C   C4111     1.0  0.78024  0.15205  0.45586  1.0000
  C   C4112     1.0  0.78597  0.16084  0.43779  1.0000
  C   C4113     1.0  0.80337  0.15443  0.42785  1.0000
  C   C4114     1.0  0.81504  0.13941  0.43635  1.0000
  P   P136      1.0  0.81150  0.16696  0.40534  1.0000
  C   C4115     1.0  0.83008  0.15235  0.39289  1.0000
  C   C4116     1.0  0.79286  0.17420  0.39321  1.0000
  C   C4117     1.0  0.78906  0.16214  0.38442  1.0000
  C   C4118     1.0  0.77452  0.16760  0.37527  1.0000
  C   C4119     1.0  0.76369  0.18517  0.37470  1.0000
  C   C4120     1.0  0.76725  0.19720  0.38349  1.0000
  C   C4121     1.0  0.78156  0.19167  0.39299  1.0000
  C   C4122     1.0  0.84539  0.15911  0.38187  1.0000
  C   C4123     1.0  0.85962  0.14782  0.37213  1.0000
  C   C4124     1.0  0.85850  0.12982  0.37304  1.0000
  C   C4125     1.0  0.84336  0.12295  0.38399  1.0000
  C   C4126     1.0  0.82927  0.13410  0.39397  1.0000
  C   C4127     1.0  0.81922  0.18623  0.40796  1.0000
  C   C4128     1.0  0.82400  0.18602  0.42441  1.0000
  C   C4129     1.0  0.82956  0.20108  0.42655  1.0000
  C   C4130     1.0  0.83045  0.21644  0.41235  1.0000
  C   C4131     1.0  0.82602  0.21665  0.39584  1.0000
  C   C4132     1.0  0.82051  0.20157  0.39360  1.0000
  H   H3267     1.0  0.81811  0.11861  0.46028  1.0000
  C   C4133     1.0  0.79517  0.34763  0.24726  1.0000
  H   H3268     1.0  0.66324  0.28768  0.25937  1.0000
  H   H3269     1.0  0.77680  0.17260  0.43165  1.0000
  H   H3270     1.0  0.82874  0.13451  0.42929  1.0000
  H   H3271     1.0  0.79701  0.14839  0.38481  1.0000
  H   H3272     1.0  0.77150  0.15807  0.36885  1.0000
  H   H3273     1.0  0.75224  0.18931  0.36785  1.0000
  H   H3274     1.0  0.75856  0.21067  0.38339  1.0000
  H   H3275     1.0  0.78351  0.20098  0.40037  1.0000
  H   H3276     1.0  0.84641  0.17305  0.38077  1.0000
  H   H3277     1.0  0.87159  0.15291  0.36392  1.0000
  H   H3278     1.0  0.86952  0.12102  0.36553  1.0000
  H   H3279     1.0  0.84260  0.10890  0.38489  1.0000
  H   H3280     1.0  0.81774  0.12840  0.40250  1.0000
  H   H3281     1.0  0.82314  0.17444  0.43576  1.0000
  H   H3282     1.0  0.76737  0.43791  0.46889  1.0000
  H   H3283     1.0  0.67171  0.25401  0.30385  1.0000
  H   H3284     1.0  0.82653  0.22867  0.38494  1.0000
  H   H3285     1.0  0.81699  0.20199  0.38078  1.0000
  C   C4134     1.0  0.73454  0.01698  0.41090  1.0000
  H   H3286     1.0  0.93343  0.21293  0.29865  1.0000
  C   C4135     1.0  0.93670  0.19834  0.30411  1.0000
  H   H3287     1.0  0.79418  0.08103  0.47674  1.0000
  C   C4136     1.0  0.76586  0.01509  0.41285  1.0000
  C   C4137     1.0  0.74754  0.02440  0.41472  1.0000
  P   P137      1.0  0.78286  0.02448  0.41767  1.0000
  C   C4138     1.0  0.77212  0.04229  0.43066  1.0000
  C   C4139     1.0  0.79695  0.00668  0.43136  1.0000
  C   C4140     1.0  0.72403  0.21669  0.25745  1.0000
  H   H3288     1.0  0.83240  0.39730  0.44420  1.0000
  C   C4141     1.0  0.69261  0.25687  0.47771  1.0000
  H   H3289     1.0  0.66226  0.19006  0.32348  1.0000
  C   C4142     1.0  0.81352  0.00940  0.43334  1.0000
  C   C4143     1.0  0.76885  0.03809  0.44988  1.0000
  H   H3290     1.0  0.66395  0.11345  0.25218  1.0000
  C   C4144     1.0  0.76106  0.05200  0.45984  1.0000
  C   C4145     1.0  0.75947  0.07441  0.43163  1.0000
  C   C4146     1.0  0.76715  0.06055  0.42162  1.0000
  C   C4147     1.0  0.79679  0.03410  0.39643  1.0000
  C   C4148     1.0  0.80694  0.04691  0.39618  1.0000
  C   C4149     1.0  0.81730  0.05477  0.37974  1.0000
  C   C4150     1.0  0.81780  0.04982  0.36344  1.0000
  C   C4151     1.0  0.80776  0.03711  0.36351  1.0000
  C   C4152     1.0  0.79724  0.02934  0.37989  1.0000
  H   H3291     1.0  0.72041  0.02420  0.41240  1.0000
  H   H3292     1.0  0.83580  0.42313  0.26010  1.0000
  C   C4153     1.0  0.86698  0.12023  0.46089  1.0000
  H   H3293     1.0  0.69250  0.22468  0.37449  1.0000
  H   H3294     1.0  0.74324  0.03737  0.41911  1.0000
  H   H3295     1.0  0.67966  0.23078  0.34692  1.0000
  C   C4154     1.0  0.83779  0.38327  0.44262  1.0000
  C   C4155     1.0  0.83421  0.43421  0.24835  1.0000
  C   C4156     1.0  0.78168  0.33750  0.25017  1.0000
  H   H3296     1.0  0.81826  0.02190  0.42646  1.0000
  H   H3297     1.0  0.77243  0.02412  0.45720  1.0000
  H   H3298     1.0  0.69567  0.16197  0.26182  1.0000
  H   H3299     1.0  0.94419  0.45485  0.23108  1.0000
  C   C4157     1.0  0.93064  0.13039  0.35602  1.0000
  H   H3300     1.0  0.76946  0.06419  0.40683  1.0000
  H   H3301     1.0  0.80667  0.05114  0.40860  1.0000
  H   H3302     1.0  0.82481  0.06487  0.37964  1.0000
  H   H3303     1.0  0.82593  0.05588  0.35077  1.0000
  H   H3304     1.0  0.80819  0.03320  0.35088  1.0000
  H   H3305     1.0  0.78970  0.01952  0.37947  1.0000
  C   C4158     1.0  0.79619  0.36293  0.23280  1.0000
  H   H3306     1.0  0.88965  0.17319  0.41037  1.0000
  C   C4159     1.0  0.78928  0.34537  0.46296  1.0000
  C   C4160     1.0  0.96406  0.40497  0.28981  1.0000
  C   C4161     1.0  0.67171  0.23681  0.35844  1.0000
  H   H3307     1.0  0.74401  0.45897  0.23494  1.0000
  C   C4162     1.0  0.86868  0.20068  0.46374  1.0000
  H   H3308     1.0  0.95680  0.38313  0.28229  1.0000
  C   C4163     1.0  0.90416  0.24534  0.47816  1.0000
  C   C4164     1.0  0.85444  0.48047  0.28707  1.0000
  H   H3309     1.0  0.72660  0.17645  0.24566  1.0000
  H   H3310     1.0  0.90126  0.18321  0.34269  1.0000
  H   H3311     1.0  0.73990  0.46551  0.29101  1.0000
  C   C4165     1.0  0.67105  0.26388  0.24719  1.0000
  H   H3312     1.0  0.92509  0.10382  0.35811  1.0000
  C   C4166     1.0  0.95682  0.11156  0.37701  1.0000
  C   C4167     1.0  0.69164  0.15657  0.25215  1.0000
  H   H3313     1.0  0.91170  0.18299  0.47150  1.0000
  Fe  Fe286     1.0  0.69534  0.38651  0.24657  1.0000
  C   C4168     1.0  0.85278  0.34699  0.43906  1.0000
  H   H3314     1.0  0.94843  0.08718  0.37653  1.0000
  H   H3315     1.0  0.74303  0.32009  0.47000  1.0000
  H   H3316     1.0  0.73084  0.22274  0.26433  1.0000
  C   C4169     1.0  0.66405  0.20414  0.31901  1.0000
  C   C4170     1.0  0.98492  0.47865  0.29429  1.0000
  C   C4171     1.0  0.83564  0.36685  0.28152  1.0000
  C   C4172     1.0  0.79185  0.42760  0.42818  1.0000
  H   H3317     1.0  0.83258  0.20117  0.43948  1.0000
  C   C4173     1.0  0.98312  0.25303  0.41769  1.0000
  C   C4174     1.0  0.87803  0.18443  0.38626  1.0000
  H   H3318     1.0  0.84082  0.44536  0.27889  1.0000
  S   S570      1.0  0.83144  0.26340  0.46864  1.0000
  P   P138      1.0  0.80297  0.37635  0.45995  1.0000
  S   S571      1.0  0.96036  0.15674  0.40826  1.0000
  H   H3319     1.0  0.76642  0.36560  0.42094  1.0000
  H   H3320     1.0  0.86732  0.12146  0.41647  1.0000
  H   H3321     1.0  0.83740  0.99783  0.44502  1.0000
  C   C4175     1.0  0.77205  0.34206  0.44230  1.0000
  C   C4176     1.0  0.93961  0.46814  0.29100  1.0000
  H   H3322     1.0  0.86283  0.15466  0.41506  1.0000
  H   H3323     1.0  0.97620  0.15748  0.34795  1.0000
  H   H3324     1.0  0.86459  0.18950  0.39385  1.0000
  C   C4177     1.0  0.66762  0.34204  0.47131  1.0000
  C   C4178     1.0  0.87667  0.46695  0.26324  1.0000
  H   H3325     1.0  0.81626  0.39152  0.28662  1.0000
  C   C4179     1.0  0.96701  0.39129  0.27989  1.0000
  H   H3326     1.0  0.80875  0.30395  0.31929  1.0000
  H   H3327     1.0  0.76575  0.33357  0.43762  1.0000
  P   P139      1.0  0.93626  0.16493  0.35462  1.0000
  C   C4180     1.0  0.71389  0.25288  0.44932  1.0000
  C   C4181     1.0  0.69981  0.24738  0.46346  1.0000
  H   H3328     1.0  0.76317  0.42994  0.23555  1.0000
  C   C4182     1.0  0.84918  0.45514  0.27740  1.0000
  C   C4183     1.0  0.71334  0.27784  0.46341  1.0000
  C   C4184     1.0  0.72068  0.26804  0.44924  1.0000
  P   P140      1.0  0.72072  0.29831  0.46318  1.0000
  C   C4185     1.0  0.66101  0.16808  0.37003  1.0000
  C   C4186     1.0  0.80204  0.05361  0.47167  1.0000
  C   C4187     1.0  0.82445  0.99572  0.44391  1.0000
  C   C4188     1.0  0.86356  0.36022  0.43221  1.0000
  H   H3329     1.0  0.78702  0.12955  0.47777  1.0000
  H   H3330     1.0  0.89172  0.21271  0.46117  1.0000
  H   H3331     1.0  0.82925  0.14245  0.47540  1.0000
  H   H3332     1.0  0.77810  0.98798  0.44034  1.0000
  C   C4189     1.0  0.70007  0.31558  0.46647  1.0000
  C   C4190     1.0  0.93869  0.17291  0.33020  1.0000
  Fe  Fe287     1.0  0.72807  0.39493  0.25613  1.0000
  C   C4191     1.0  0.68682  0.31785  0.45614  1.0000
  C   C4192     1.0  0.73555  0.30574  0.44169  1.0000
  C   C4193     1.0  0.75299  0.29500  0.43691  1.0000
  C   C4194     1.0  0.76482  0.30083  0.42060  1.0000
  C   C4195     1.0  0.75948  0.31754  0.40910  1.0000
  C   C4196     1.0  0.74226  0.32846  0.41385  1.0000
  C   C4197     1.0  0.73031  0.32260  0.43007  1.0000
  H   H3333     1.0  0.71960  0.24526  0.43847  1.0000
  C   C4198     1.0  0.84364  0.46793  0.28863  1.0000
  S   S572      1.0  0.67654  0.36599  0.25674  1.0000
  C   C4199     1.0  0.81052  0.03550  0.47779  1.0000
  H   H3334     1.0  0.73152  0.27197  0.43806  1.0000
  C   C4200     1.0  0.67612  0.20938  0.30272  1.0000
  H   H3335     1.0  0.70622  0.45151  0.26315  1.0000
  S   S573      1.0  0.72546  0.37511  0.24071  1.0000
  H   H3336     1.0  0.88957  0.46621  0.25346  1.0000
  C   C4201     1.0  0.98483  0.25113  0.39978  1.0000
  C   C4202     1.0  0.72160  0.19061  0.24693  1.0000
  C   C4203     1.0  0.93450  0.19180  0.32302  1.0000
  H   H3337     1.0  0.68896  0.30935  0.44626  1.0000
  H   H3338     1.0  0.75750  0.28212  0.44584  1.0000
  H   H3339     1.0  0.77835  0.29259  0.41703  1.0000
  H   H3340     1.0  0.76892  0.32215  0.39671  1.0000
  H   H3341     1.0  0.73829  0.34158  0.40507  1.0000
  H   H3342     1.0  0.71717  0.33144  0.43354  1.0000
  H   H3343     1.0  0.87052  0.19431  0.35994  1.0000
  H   H3344     1.0  0.68355  0.19941  0.29440  1.0000
  H   H3345     1.0  0.81757  0.32861  0.29310  1.0000
  C   C4204     1.0  0.97677  0.41616  0.28611  1.0000
  C   C4205     1.0  0.86402  0.14512  0.42788  1.0000
  H   H3346     1.0  0.95314  0.15780  0.29002  1.0000
  C   C4206     1.0  0.77768  0.46184  0.25689  1.0000
  H   H3347     1.0  0.92045  0.16253  0.39334  1.0000
  C   C4207     1.0  0.76934  0.34237  0.23849  1.0000
  H   H3348     1.0  0.87773  0.35639  0.42558  1.0000
  C   C4208     1.0  0.95006  0.47832  0.23672  1.0000
  H   H3349     1.0  0.83134  0.08824  0.46963  1.0000
  H   H3350     1.0  0.91162  0.99130  0.41669  1.0000
  C   C4209     1.0  0.73974  0.00029  0.40512  1.0000
  H   H3351     1.0  0.79464  0.35695  0.28534  1.0000
  C   C4210     1.0  0.95820  0.19675  0.37495  1.0000
  C   C4211     1.0  0.77614  0.42981  0.45919  1.0000
  C   C4212     1.0  0.66920  0.24024  0.30817  1.0000
  H   H3352     1.0  0.92960  0.20146  0.33209  1.0000
  H   H3353     1.0  0.67305  0.19923  0.25858  1.0000
  H   H3354     1.0  0.84878  0.02368  0.46738  1.0000
  S   S574      1.0  0.96066  0.41692  0.23315  1.0000
  C   C4213     1.0  0.95213  0.17484  0.36070  1.0000
  H   H3355     1.0  0.80463  0.34355  0.25639  1.0000
  C   C4214     1.0  0.82667  0.37019  0.44891  1.0000
  C   C4215     1.0  0.89116  0.16730  0.47560  1.0000
  H   H3356     1.0  0.98647  0.19490  0.37500  1.0000
  S   S575      1.0  0.73175  0.41734  0.23139  1.0000
  H   H3357     1.0  0.83421  0.22830  0.41435  1.0000
  C   C4216     1.0  0.94099  0.14021  0.36094  1.0000
  H   H3358     1.0  0.81185  0.02529  0.46990  1.0000
  H   H3359     1.0  0.72745  0.46825  0.32962  1.0000
  H   H3360     1.0  0.76327  0.36070  0.30359  1.0000
  C   C4217     1.0  0.67340  0.15557  0.25442  1.0000
  H   H3361     1.0  0.93274  0.44264  0.29152  1.0000
  C   C4218     1.0  0.65981  0.22584  0.24508  1.0000
  H   H3362     1.0  0.96626  0.10433  0.38598  1.0000
  C   C4219     1.0  0.79432  0.40057  0.45263  1.0000
  C   C4220     1.0  0.91202  0.46572  0.28320  1.0000
  C   C4221     1.0  0.94673  0.10188  0.37173  1.0000
  H   H3363     1.0  0.86452  0.38855  0.42897  1.0000
  H   H3364     1.0  0.66050  0.33269  0.45056  1.0000
  C   C4222     1.0  0.95379  0.13067  0.37190  1.0000
  C   C4223     1.0  0.78131  0.37074  0.43852  1.0000
  C   C4224     1.0  0.85339  0.00900  0.46954  1.0000
  C   C4225     1.0  0.86201  0.18450  0.46855  1.0000
  C   C4226     1.0  0.70658  0.20115  0.23950  1.0000
  C   C4227     1.0  0.82168  0.38187  0.27756  1.0000
  C   C4228     1.0  0.84514  0.43233  0.23125  1.0000
  H   H3365     1.0  0.87005  0.44453  0.25611  1.0000
  H   H3366     1.0  0.84809  0.18519  0.46766  1.0000
  C   C4229     1.0  0.67068  0.33105  0.45854  1.0000
  P   P141      1.0  0.68060  0.23308  0.23153  1.0000
  C   C4230     1.0  0.94565  0.16070  0.31816  1.0000
  C   C4231     1.0  0.86503  0.13901  0.46012  1.0000
  C   C4232     1.0  0.81488  0.38477  0.26174  1.0000
  C   C4233     1.0  0.91328  0.17233  0.36673  1.0000
  H   H3367     1.0  0.77519  0.45246  0.43603  1.0000
  H   H3368     1.0  0.67451  0.30852  0.23071  1.0000
  H   H3369     1.0  0.72620  0.37669  0.32672  1.0000
  H   H3370     1.0  0.72967  0.99451  0.40223  1.0000
  H   H3371     1.0  0.86183  0.16599  0.44250  1.0000
  H   H3372     1.0  0.83090  0.46816  0.29856  1.0000
  H   H3373     1.0  0.93832  0.07404  0.42770  1.0000
  C   C4234     1.0  0.89777  0.18349  0.47076  1.0000
  C   C4235     1.0  0.74866  0.48377  0.32282  1.0000
  H   H3374     1.0  0.67476  0.23759  0.40140  1.0000
  H   H3375     1.0  0.80423  0.39667  0.25899  1.0000
  S   S576      1.0  0.68849  0.45612  0.23259  1.0000
  H   H3376     1.0  0.90379  0.45699  0.28173  1.0000
  C   C4236     1.0  0.70907  0.22729  0.24997  1.0000
  C   C4237     1.0  0.88144  0.18724  0.36717  1.0000
  H   H3377     1.0  0.84131  0.36508  0.29345  1.0000
  H   H3378     1.0  0.75956  0.47231  0.31966  1.0000
  H   H3379     1.0  0.94506  0.19116  0.27756  1.0000
  C   C4238     1.0  0.73059  0.48143  0.32848  1.0000
  H   H3380     1.0  0.86006  0.21363  0.45895  1.0000
  H   H3381     1.0  0.78518  0.99116  0.40484  1.0000
  H   H3382     1.0  0.79605  0.33922  0.47441  1.0000
  C   C4239     1.0  0.83539  0.35696  0.25426  1.0000
  H   H3383     1.0  0.75878  0.04873  0.47464  1.0000
  C   C4240     1.0  0.97103  0.16841  0.35553  1.0000
  C   C4241     1.0  0.89207  0.17518  0.39559  1.0000
  Fe  Fe288     1.0  0.97793  0.15971  0.42601  1.0000
  S   S577      1.0  0.85799  0.05411  0.47307  1.0000
  C   C4242     1.0  0.93358  0.11130  0.36132  1.0000
  H   H3384     1.0  0.87518  0.01068  0.44582  1.0000
  H   H3385     1.0  0.66571  0.25507  0.25976  1.0000
  C   C4243     1.0  0.88589  0.35530  0.28733  1.0000
  C   C4244     1.0  0.89199  0.33753  0.28407  1.0000
  C   C4245     1.0  0.88878  0.32257  0.29828  1.0000
  C   C4246     1.0  0.87976  0.32537  0.31584  1.0000
  C   C4247     1.0  0.87428  0.34315  0.31939  1.0000
  C   C4248     1.0  0.87685  0.35813  0.30484  1.0000
  P   P142      1.0  0.86170  0.34695  0.34172  1.0000
  C   C4249     1.0  0.83818  0.34843  0.34125  1.0000
  C   C4250     1.0  0.86906  0.32934  0.36034  1.0000
  C   C4251     1.0  0.85717  0.32685  0.37747  1.0000
  C   C4252     1.0  0.86265  0.31330  0.39203  1.0000
  C   C4253     1.0  0.88023  0.30244  0.38977  1.0000
  C   C4254     1.0  0.89242  0.30530  0.37296  1.0000
  C   C4255     1.0  0.88693  0.31882  0.35831  1.0000
  C   C4256     1.0  0.82864  0.36431  0.33148  1.0000
  C   C4257     1.0  0.81101  0.36507  0.32943  1.0000
  C   C4258     1.0  0.80260  0.35017  0.33756  1.0000
  C   C4259     1.0  0.81197  0.33427  0.34734  1.0000
  C   C4260     1.0  0.82981  0.33326  0.34895  1.0000
  C   C4261     1.0  0.86520  0.36773  0.34568  1.0000
  C   C4262     1.0  0.88232  0.37271  0.33900  1.0000
  C   C4263     1.0  0.88516  0.38865  0.34230  1.0000
  C   C4264     1.0  0.87111  0.39948  0.35266  1.0000
  C   C4265     1.0  0.85425  0.39429  0.35983  1.0000
  C   C4266     1.0  0.85125  0.37850  0.35633  1.0000
  H   H3386     1.0  0.88818  0.36694  0.27627  1.0000
  H   H3387     1.0  0.89910  0.33541  0.27048  1.0000
  H   H3388     1.0  0.89331  0.30881  0.29566  1.0000
  H   H3389     1.0  0.87705  0.31369  0.32662  1.0000
  H   H3390     1.0  0.87184  0.37206  0.30695  1.0000
  H   H3391     1.0  0.84359  0.33533  0.37956  1.0000
  H   H3392     1.0  0.85322  0.31122  0.40509  1.0000
  H   H3393     1.0  0.88443  0.29192  0.40111  1.0000
  H   H3394     1.0  0.90615  0.29707  0.37135  1.0000
  H   H3395     1.0  0.89667  0.32112  0.34553  1.0000
  H   H3396     1.0  0.83496  0.37603  0.32522  1.0000
  H   H3397     1.0  0.80384  0.37725  0.32156  1.0000
  H   H3398     1.0  0.78885  0.35103  0.33617  1.0000
  H   H3399     1.0  0.80541  0.32272  0.35378  1.0000
  H   H3400     1.0  0.83697  0.32065  0.35620  1.0000
  H   H3401     1.0  0.89344  0.36441  0.33109  1.0000
  H   H3402     1.0  0.89820  0.39275  0.33659  1.0000
  H   H3403     1.0  0.87322  0.41196  0.35505  1.0000
  H   H3404     1.0  0.84344  0.40261  0.36800  1.0000
  H   H3405     1.0  0.83808  0.37474  0.36198  1.0000
  C   C4267     1.0  0.67767  0.16130  0.37602  1.0000
  C   C4268     1.0  0.88652  0.20018  0.46493  1.0000
  H   H3406     1.0  0.79723  0.05740  0.45895  1.0000
  C   C4269     1.0  0.86648  0.12638  0.42867  1.0000
  C   C4270     1.0  0.66031  0.20856  0.25692  1.0000
  H   H3407     1.0  0.75608  0.08854  0.42455  1.0000
  H   H3408     1.0  0.72572  0.40337  0.33877  1.0000
  C   C4271     1.0  0.71977  0.34752  0.29153  1.0000
  C   C4272     1.0  0.70132  0.35240  0.29948  1.0000
  C   C4273     1.0  0.69610  0.35228  0.31822  1.0000
  C   C4274     1.0  0.70935  0.34749  0.32896  1.0000
  C   C4275     1.0  0.72797  0.34294  0.32099  1.0000
  C   C4276     1.0  0.73306  0.34271  0.30220  1.0000
  P   P143      1.0  0.74480  0.33780  0.33508  1.0000
  C   C4277     1.0  0.74331  0.35741  0.34455  1.0000
  C   C4278     1.0  0.74085  0.31751  0.35225  1.0000
  C   C4279     1.0  0.73569  0.31790  0.37099  1.0000
  C   C4280     1.0  0.73349  0.30181  0.38401  1.0000
  C   C4281     1.0  0.73604  0.28532  0.37842  1.0000
  C   C4282     1.0  0.74049  0.28496  0.35978  1.0000
  C   C4283     1.0  0.74277  0.30100  0.34674  1.0000
  C   C4284     1.0  0.75354  0.35585  0.35772  1.0000
  C   C4285     1.0  0.75349  0.37127  0.36414  1.0000
  C   C4286     1.0  0.74342  0.38836  0.35733  1.0000
  C   C4287     1.0  0.73327  0.39002  0.34423  1.0000
  C   C4288     1.0  0.73341  0.37472  0.33762  1.0000
  C   C4289     1.0  0.76775  0.33416  0.32154  1.0000
  C   C4290     1.0  0.77302  0.34814  0.30696  1.0000
  C   C4291     1.0  0.79085  0.34606  0.29664  1.0000
  C   C4292     1.0  0.80370  0.33010  0.30100  1.0000
  C   C4293     1.0  0.79870  0.31621  0.31573  1.0000
  C   C4294     1.0  0.78082  0.31824  0.32606  1.0000
  H   H3409     1.0  0.72377  0.34780  0.27696  1.0000
  H   H3410     1.0  0.69111  0.35642  0.29104  1.0000
  H   H3411     1.0  0.90166  0.12567  0.47220  1.0000
  H   H3412     1.0  0.70511  0.34770  0.34341  1.0000
  H   H3413     1.0  0.74721  0.33916  0.29554  1.0000
  H   H3414     1.0  0.73325  0.33054  0.37566  1.0000
  H   H3415     1.0  0.72980  0.30208  0.39847  1.0000
  H   H3416     1.0  0.73446  0.27281  0.38853  1.0000
  H   H3417     1.0  0.74222  0.27220  0.35548  1.0000
  H   H3418     1.0  0.74624  0.30051  0.33233  1.0000
  H   H3419     1.0  0.76189  0.34282  0.36273  1.0000
  H   H3420     1.0  0.76151  0.37013  0.37414  1.0000
  H   H3421     1.0  0.74377  0.40046  0.36186  1.0000
  C   C4295     1.0  0.66438  0.10419  0.24363  1.0000
  H   H3422     1.0  0.90111  0.25970  0.47167  1.0000
  S   S578      1.0  0.65583  0.15702  0.35494  1.0000
  H   H3423     1.0  0.96100  0.13780  0.37715  1.0000
  H   H3424     1.0  0.92000  0.13751  0.34844  1.0000
  H   H3425     1.0  0.68178  0.35617  0.32430  1.0000
  C   C4296     1.0  0.66913  0.24078  0.38919  1.0000
  C   C4297     1.0  0.77103  0.99847  0.40670  1.0000
  S   S579      1.0  0.97238  0.13455  0.44693  1.0000
  H   H3426     1.0  0.85861  0.33289  0.43783  1.0000
  C   C4298     1.0  0.65993  0.07487  0.24160  1.0000
  C   C4299     1.0  0.73026  0.19835  0.25598  1.0000
  H   H3427     1.0  0.97017  0.25280  0.42728  1.0000
  C   C4300     1.0  0.98403  0.48064  0.27603  1.0000
  C   C4301     1.0  0.67606  0.29409  0.23093  1.0000
  H   H3428     1.0  0.71883  0.15091  0.23589  1.0000
  H   H3429     1.0  0.82642  0.34145  0.45292  1.0000
  H   H3430     1.0  0.69468  0.23552  0.46359  1.0000
  C   C4302     1.0  0.67874  0.22740  0.29735  1.0000
  C   C4303     1.0  0.69538  0.47163  0.24149  1.0000
  C   C4304     1.0  0.79118  0.99028  0.44076  1.0000
  H   H3431     1.0  0.75070  0.08105  0.45833  1.0000
  C   C4305     1.0  0.66819  0.14815  0.24230  1.0000
  C   C4306     1.0  0.78296  0.41113  0.46516  1.0000
  H   H3432     1.0  0.68819  0.23146  0.28485  1.0000
  C   C4307     1.0  0.70835  0.47880  0.26371  1.0000
  Fe  Fe289     1.0  0.70126  0.42582  0.23803  1.0000
  C   C4308     1.0  0.86851  0.00163  0.45731  1.0000
  C   C4309     1.0  0.70007  0.21954  0.24113  1.0000
  H   H3433     1.0  0.94548  0.47435  0.25132  1.0000
  H   H3434     1.0  0.84072  0.34710  0.24543  1.0000
  C   C4310     1.0  0.94329  0.18608  0.29223  1.0000
  Fe  Fe290     1.0  0.81369  0.29130  0.46868  1.0000
  H   H3435     1.0  0.78015  0.32085  0.46463  1.0000
  C   C4311     1.0  0.97695  0.18970  0.37052  1.0000
  H   H3436     1.0  0.75877  0.33466  0.24077  1.0000
  C   C4312     1.0  0.87326  0.16760  0.47436  1.0000
  S   S580      1.0  0.93379  0.38770  0.24032  1.0000
  H   H3437     1.0  0.86791  0.11031  0.47359  1.0000
  H   H3438     1.0  0.94965  0.14613  0.32323  1.0000
  C   C4313     1.0  0.94781  0.16728  0.29925  1.0000
  C   C4314     1.0  0.98338  0.17567  0.36063  1.0000
  C   C4315     1.0  0.67868  0.25703  0.23111  1.0000
  C   C4316     1.0  0.92380  0.21529  0.47898  1.0000
  H   H3439     1.0  0.95941  0.17785  0.47932  1.0000
  H   H3440     1.0  0.65596  0.06189  0.24823  1.0000
  C   C4317     1.0  0.69684  0.32659  0.47938  1.0000
  Fe  Fe291     1.0  0.83241  0.09918  0.55380  1.0000
  S   S581      1.0  0.85570  0.07626  0.56064  1.0000
  S   S582      1.0  0.82444  0.10945  0.52617  1.0000
  Fe  Fe292     1.0  0.82244  0.10746  0.59178  1.0000
  S   S583      1.0  0.84485  0.08490  0.60161  1.0000
  S   S584      1.0  0.80680  0.12838  0.60900  1.0000
  Fe  Fe293     1.0  0.86225  0.09511  0.57472  1.0000
  S   S585      1.0  0.89151  0.09832  0.56978  1.0000
  Fe  Fe294     1.0  0.83630  0.06787  0.58678  1.0000
  S   S586      1.0  0.84050  0.11870  0.56581  1.0000
  S   S587      1.0  0.81227  0.08969  0.57912  1.0000
  C   C4318     1.0  0.82403  0.02391  0.59627  1.0000
  Fe  Fe295     1.0  0.94976  0.18813  0.56588  1.0000
  S   S588      1.0  0.95658  0.15923  0.58139  1.0000
  S   S589      1.0  0.95480  0.19848  0.53547  1.0000
  Fe  Fe296     1.0  0.93630  0.20381  0.60003  1.0000
  S   S590      1.0  0.94210  0.17639  0.61878  1.0000
  S   S591      1.0  0.92537  0.23113  0.60840  1.0000
  Fe  Fe297     1.0  0.96852  0.17121  0.59833  1.0000
  H   H3441     1.0  0.69007  0.11917  0.55561  1.0000
  Fe  Fe298     1.0  0.92984  0.16660  0.60045  1.0000
  S   S592      1.0  0.90817  0.14960  0.61321  1.0000
  S   S593      1.0  0.96372  0.19947  0.58118  1.0000
  S   S594      1.0  0.92198  0.19454  0.58335  1.0000
  C   C4319     1.0  0.80868  0.15341  0.49650  1.0000
  Fe  Fe299     1.0  0.71693  0.19358  0.59548  1.0000
  S   S595      1.0  0.69558  0.20767  0.57880  1.0000
  S   S596      1.0  0.72509  0.16281  0.60041  1.0000
  Fe  Fe300     1.0  0.72173  0.22948  0.60123  1.0000
  S   S597      1.0  0.70088  0.24661  0.58484  1.0000
  S   S598      1.0  0.73814  0.23765  0.61701  1.0000
  Fe  Fe301     1.0  0.68416  0.22516  0.59986  1.0000
  H   H3442     1.0  0.78112  0.25543  0.48624  1.0000
  Fe  Fe302     1.0  0.71392  0.22753  0.56525  1.0000
  H   H3443     1.0  0.96668  0.09757  0.60521  1.0000
  S   S599      1.0  0.70412  0.20947  0.61764  1.0000
  S   S600      1.0  0.73626  0.21213  0.58040  1.0000
  Fe  Fe303     1.0  0.82715  0.28816  0.60986  1.0000
  S   S601      1.0  0.80589  0.30357  0.62960  1.0000
  S   S602      1.0  0.83963  0.25803  0.61669  1.0000
  Fe  Fe304     1.0  0.82301  0.31951  0.57706  1.0000
  S   S603      1.0  0.80164  0.33772  0.59394  1.0000
  S   S604      1.0  0.83417  0.32672  0.54656  1.0000
  Fe  Fe305     1.0  0.81932  0.32765  0.61520  1.0000
  S   S605      1.0  0.82931  0.34672  0.62736  1.0000
  Fe  Fe306     1.0  0.78993  0.31237  0.60704  1.0000
  S   S606      1.0  0.75965  0.31296  0.61111  1.0000
  S   S607      1.0  0.84177  0.31131  0.59695  1.0000
  S   S608      1.0  0.81009  0.29515  0.58860  1.0000
  Fe  Fe307     1.0  0.81346  0.40938  0.70287  1.0000
  S   S609      1.0  0.79289  0.43485  0.70871  1.0000
  S   S610      1.0  0.80249  0.38849  0.69434  1.0000
  Fe  Fe308     1.0  0.81602  0.44986  0.69815  1.0000
  C   C4320     1.0  0.85953  0.99695  0.54759  1.0000
  S   S611      1.0  0.83617  0.42499  0.68979  1.0000
  C   C4321     1.0  0.66248  0.21535  0.70547  1.0000
  C   C4322     1.0  0.75156  0.30619  0.49519  1.0000
  C   C4323     1.0  0.93582  0.06970  0.61938  1.0000
  H   H3444     1.0  0.74023  0.13165  0.55924  1.0000
  H   H3445     1.0  0.72319  0.27451  0.56095  1.0000
  C   C4324     1.0  0.79984  0.00179  0.59650  1.0000
  C   C4325     1.0  0.69728  0.15296  0.53628  1.0000
  H   H3446     1.0  0.69076  0.08856  0.57512  1.0000
  C   C4326     1.0  0.72961  0.18375  0.67571  1.0000
  P   P144      1.0  0.70217  0.15184  0.55826  1.0000
  C   C4327     1.0  0.73418  0.01187  0.55854  1.0000
  C   C4328     1.0  0.82164  0.35796  0.64627  1.0000
  C   C4329     1.0  0.80647  0.35455  0.66010  1.0000
  C   C4330     1.0  0.80090  0.36397  0.67469  1.0000
  C   C4331     1.0  0.81042  0.37686  0.67573  1.0000
  C   C4332     1.0  0.82559  0.38027  0.66192  1.0000
  C   C4333     1.0  0.83115  0.37086  0.64732  1.0000
  H   H3447     1.0  0.79908  0.34460  0.65956  1.0000
  H   H3448     1.0  0.78915  0.36121  0.68528  1.0000
  H   H3449     1.0  0.83298  0.39021  0.66244  1.0000
  H   H3450     1.0  0.84288  0.37364  0.63671  1.0000
  C   C4334     1.0  0.83722  0.16053  0.50786  1.0000
  H   H3451     1.0  0.74019  0.19808  0.54424  1.0000
  H   H3452     1.0  0.82027  0.04067  0.51649  1.0000
  C   C4335     1.0  0.74385  0.25937  0.61161  1.0000
  C   C4336     1.0  0.73037  0.27526  0.61315  1.0000
  C   C4337     1.0  0.73531  0.29177  0.61266  1.0000
  C   C4338     1.0  0.75373  0.29245  0.61063  1.0000
  C   C4339     1.0  0.76714  0.27666  0.60860  1.0000
  C   C4340     1.0  0.76220  0.26021  0.60915  1.0000
  H   H3453     1.0  0.71612  0.27461  0.61559  1.0000
  H   H3454     1.0  0.72484  0.30391  0.61429  1.0000
  H   H3455     1.0  0.78130  0.27693  0.60717  1.0000
  H   H3456     1.0  0.77262  0.24792  0.60822  1.0000
  C   C4341     1.0  0.69711  0.21048  0.50156  1.0000
  C   C4342     1.0  0.71488  0.21372  0.49511  1.0000
  C   C4343     1.0  0.72243  0.22160  0.50524  1.0000
  C   C4344     1.0  0.71249  0.22577  0.52211  1.0000
  C   C4345     1.0  0.82919  0.09866  0.49382  1.0000
  H   H3457     1.0  0.84510  0.99985  0.59292  1.0000
  C   C4346     1.0  0.80664  0.06207  0.49798  1.0000
  H   H3458     1.0  0.73601  0.22443  0.49998  1.0000
  H   H3459     1.0  0.76881  0.17527  0.54829  1.0000
  H   H3460     1.0  0.83678  0.27505  0.56045  1.0000
  C   C4347     1.0  0.80898  0.30749  0.50894  1.0000
  C   C4348     1.0  0.82649  0.31139  0.50291  1.0000
  C   C4349     1.0  0.83421  0.31716  0.51458  1.0000
  C   C4350     1.0  0.82464  0.31863  0.53243  1.0000
  C   C4351     1.0  0.80718  0.31462  0.53843  1.0000
  C   C4352     1.0  0.79929  0.30938  0.52659  1.0000
  H   H3461     1.0  0.65830  0.18587  0.66711  1.0000
  H   H3462     1.0  0.84765  0.32041  0.50981  1.0000
  H   H3463     1.0  0.79954  0.31604  0.55201  1.0000
  H   H3464     1.0  0.78560  0.30681  0.53109  1.0000
  C   C4353     1.0  0.90155  0.23865  0.61055  1.0000
  C   C4354     1.0  0.89359  0.25714  0.61073  1.0000
  C   C4355     1.0  0.87460  0.26337  0.61234  1.0000
  C   C4356     1.0  0.86350  0.25105  0.61401  1.0000
  C   C4357     1.0  0.87146  0.23260  0.61384  1.0000
  C   C4358     1.0  0.89043  0.22640  0.61208  1.0000
  H   H3465     1.0  0.90213  0.26667  0.60960  1.0000
  H   H3466     1.0  0.86855  0.27761  0.61258  1.0000
  H   H3467     1.0  0.86293  0.22308  0.61506  1.0000
  H   H3468     1.0  0.89638  0.21209  0.61220  1.0000
  C   C4359     1.0  0.75125  0.29089  0.50948  1.0000
  C   C4360     1.0  0.67606  0.15182  0.51839  1.0000
  H   H3469     1.0  0.77866  0.02557  0.60104  1.0000
  H   H3470     1.0  0.81643  0.17033  0.52970  1.0000
  C   C4361     1.0  0.94620  0.16084  0.50308  1.0000
  C   C4362     1.0  0.94112  0.15726  0.52215  1.0000
  C   C4363     1.0  0.94412  0.16855  0.53223  1.0000
  C   C4364     1.0  0.95223  0.18349  0.52317  1.0000
  H   H3471     1.0  0.93476  0.14573  0.52914  1.0000
  H   H3472     1.0  0.93986  0.16587  0.54696  1.0000
  C   C4365     1.0  0.78438  0.13826  0.60576  1.0000
  C   C4366     1.0  0.77462  0.12878  0.59980  1.0000
  C   C4367     1.0  0.75638  0.13634  0.59835  1.0000
  C   C4368     1.0  0.74805  0.15378  0.60209  1.0000
  C   C4369     1.0  0.75796  0.16350  0.60760  1.0000
  C   C4370     1.0  0.77600  0.15560  0.60976  1.0000
  H   H3473     1.0  0.78100  0.11541  0.59679  1.0000
  H   H3474     1.0  0.74878  0.12871  0.59418  1.0000
  H   H3475     1.0  0.75156  0.17689  0.61067  1.0000
  H   H3476     1.0  0.78346  0.16289  0.61451  1.0000
  C   C4371     1.0  0.90381  0.13572  0.60057  1.0000
  C   C4372     1.0  0.91774  0.12723  0.58802  1.0000
  C   C4373     1.0  0.91392  0.11553  0.57882  1.0000
  C   C4374     1.0  0.89609  0.11269  0.58176  1.0000
  C   C4375     1.0  0.88217  0.12139  0.59407  1.0000
  C   C4376     1.0  0.88612  0.13252  0.60378  1.0000
  H   H3477     1.0  0.93146  0.12953  0.58555  1.0000
  H   H3478     1.0  0.92474  0.10887  0.56922  1.0000
  H   H3479     1.0  0.86838  0.11944  0.59620  1.0000
  H   H3480     1.0  0.87536  0.13892  0.61359  1.0000
  H   H3481     1.0  0.79998  0.04510  0.60022  1.0000
  C   C4377     1.0  0.88863  0.04755  0.69365  1.0000
  C   C4378     1.0  0.85740  0.06890  0.50157  1.0000
  C   C4379     1.0  0.85029  0.08130  0.51329  1.0000
  C   C4380     1.0  0.83570  0.09579  0.50987  1.0000
  C   C4381     1.0  0.65625  0.19150  0.58899  1.0000
  S   S612      1.0  0.94062  0.14737  0.49105  1.0000
  H   H3482     1.0  0.86817  0.05725  0.50478  1.0000
  H   H3483     1.0  0.85588  0.07930  0.52517  1.0000
  H   H3484     1.0  0.66913  0.19991  0.63471  1.0000
  H   H3485     1.0  0.82158  0.22293  0.56004  1.0000
  C   C4382     1.0  0.68099  0.16485  0.58954  1.0000
  C   C4383     1.0  0.85371  0.22078  0.50130  1.0000
  C   C4384     1.0  0.85787  0.21354  0.51875  1.0000
  C   C4385     1.0  0.84509  0.20528  0.53274  1.0000
  P   P145      1.0  0.88063  0.21096  0.52245  1.0000
  C   C4386     1.0  0.89578  0.21960  0.50185  1.0000
  C   C4387     1.0  0.88177  0.22253  0.53961  1.0000
  C   C4388     1.0  0.89886  0.22479  0.54082  1.0000
  C   C4389     1.0  0.90019  0.23360  0.55400  1.0000
  C   C4390     1.0  0.88452  0.24018  0.56610  1.0000
  C   C4391     1.0  0.86751  0.23773  0.56522  1.0000
  C   C4392     1.0  0.86607  0.22907  0.55191  1.0000
  C   C4393     1.0  0.89216  0.23828  0.49371  1.0000
  C   C4394     1.0  0.79477  0.99980  0.52460  1.0000
  C   C4395     1.0  0.66712  0.17690  0.59876  1.0000
  C   C4396     1.0  0.79317  0.01995  0.59901  1.0000
  C   C4397     1.0  0.91179  0.20815  0.49448  1.0000
  C   C4398     1.0  0.88812  0.18659  0.52935  1.0000
  C   C4399     1.0  0.89668  0.17910  0.54432  1.0000
  C   C4400     1.0  0.90093  0.16014  0.55032  1.0000
  C   C4401     1.0  0.89732  0.14852  0.54106  1.0000
  C   C4402     1.0  0.88939  0.15590  0.52577  1.0000
  C   C4403     1.0  0.88459  0.17486  0.52005  1.0000
  C   C4404     1.0  0.75664  0.09341  0.50918  1.0000
  C   C4405     1.0  0.69650  0.09836  0.57855  1.0000
  H   H3486     1.0  0.84833  0.19886  0.54607  1.0000
  H   H3487     1.0  0.91127  0.21953  0.53174  1.0000
  H   H3488     1.0  0.91345  0.23514  0.55498  1.0000
  H   H3489     1.0  0.88560  0.24714  0.57620  1.0000
  H   H3490     1.0  0.85545  0.24271  0.57485  1.0000
  H   H3491     1.0  0.85274  0.22776  0.55119  1.0000
  H   H3492     1.0  0.88005  0.24739  0.49939  1.0000
  S   S613      1.0  0.79833  0.30072  0.49485  1.0000
  H   H3493     1.0  0.72626  0.26856  0.49583  1.0000
  H   H3494     1.0  0.91521  0.19378  0.50070  1.0000
  H   H3495     1.0  0.90014  0.18771  0.55144  1.0000
  H   H3496     1.0  0.90754  0.15453  0.56184  1.0000
  H   H3497     1.0  0.90115  0.13378  0.54534  1.0000
  H   H3498     1.0  0.88722  0.14689  0.51825  1.0000
  H   H3499     1.0  0.87813  0.18040  0.50837  1.0000
  H   H3500     1.0  0.70417  0.08009  0.60279  1.0000
  C   C4406     1.0  0.77709  0.22555  0.58187  1.0000
  C   C4407     1.0  0.71130  0.12361  0.58738  1.0000
  H   H3501     1.0  0.94979  0.25507  0.57607  1.0000
  P   P146      1.0  0.90008  0.07317  0.63983  1.0000
  H   H3502     1.0  0.85534  0.27643  0.52908  1.0000
  H   H3503     1.0  0.84587  0.26500  0.50639  1.0000
  C   C4408     1.0  0.83711  0.21966  0.49798  1.0000
  H   H3504     1.0  0.80544  0.07238  0.50571  1.0000
  H   H3505     1.0  0.75840  0.28936  0.52033  1.0000
  S   S614      1.0  0.78441  0.98865  0.59570  1.0000
  C   C4409     1.0  0.74482  0.00977  0.57135  1.0000
  C   C4410     1.0  0.75309  0.02394  0.57118  1.0000
  C   C4411     1.0  0.75104  0.04033  0.55807  1.0000
  C   C4412     1.0  0.74029  0.04232  0.54522  1.0000
  P   P147      1.0  0.76161  0.05872  0.55830  1.0000
  C   C4413     1.0  0.75497  0.07860  0.54125  1.0000
  C   C4414     1.0  0.75545  0.06432  0.58083  1.0000
  C   C4415     1.0  0.74205  0.05674  0.59462  1.0000
  C   C4416     1.0  0.73866  0.05979  0.61240  1.0000
  C   C4417     1.0  0.74824  0.07082  0.61647  1.0000
  C   C4418     1.0  0.76107  0.07898  0.60272  1.0000
  C   C4419     1.0  0.76465  0.07579  0.58500  1.0000
  C   C4420     1.0  0.74284  0.09430  0.54626  1.0000
  C   C4421     1.0  0.78629  0.05253  0.55278  1.0000
  C   C4422     1.0  0.79659  0.06633  0.54733  1.0000
  C   C4423     1.0  0.81544  0.06178  0.54633  1.0000
  C   C4424     1.0  0.82430  0.04352  0.55014  1.0000
  C   C4425     1.0  0.81436  0.02972  0.55435  1.0000
  C   C4426     1.0  0.79547  0.03414  0.55565  1.0000
  H   H3506     1.0  0.76941  0.20620  0.52362  1.0000
  C   C4427     1.0  0.82666  0.14888  0.48696  1.0000
  H   H3507     1.0  0.76103  0.02212  0.58143  1.0000
  H   H3508     1.0  0.73430  0.04829  0.59187  1.0000
  H   H3509     1.0  0.72871  0.05346  0.62310  1.0000
  H   H3510     1.0  0.74576  0.07305  0.63028  1.0000
  H   H3511     1.0  0.76854  0.08750  0.60589  1.0000
  H   H3512     1.0  0.77482  0.08213  0.57474  1.0000
  H   H3513     1.0  0.73732  0.09491  0.56051  1.0000
  H   H3514     1.0  0.77106  0.06616  0.51855  1.0000
  H   H3515     1.0  0.83880  0.04010  0.55010  1.0000
  H   H3516     1.0  0.82114  0.01556  0.55762  1.0000
  H   H3517     1.0  0.78824  0.02305  0.55981  1.0000
  C   C4428     1.0  0.84287  0.15836  0.59586  1.0000
  C   C4429     1.0  0.85662  0.16614  0.58308  1.0000
  C   C4430     1.0  0.86367  0.17920  0.58723  1.0000
  C   C4431     1.0  0.85703  0.18446  0.60411  1.0000
  C   C4432     1.0  0.84333  0.17661  0.61717  1.0000
  C   C4433     1.0  0.83625  0.16351  0.61285  1.0000
  P   P148      1.0  0.83520  0.18366  0.63901  1.0000
  C   C4434     1.0  0.85472  0.18715  0.64550  1.0000
  C   C4435     1.0  0.87135  0.17443  0.64325  1.0000
  C   C4436     1.0  0.88690  0.17764  0.64696  1.0000
  C   C4437     1.0  0.88596  0.19349  0.65303  1.0000
  C   C4438     1.0  0.86939  0.20605  0.65563  1.0000
  C   C4439     1.0  0.85380  0.20292  0.65190  1.0000
  C   C4440     1.0  0.81843  0.20481  0.63720  1.0000
  C   C4441     1.0  0.81964  0.21826  0.62105  1.0000
  C   C4442     1.0  0.80739  0.23514  0.62030  1.0000
  C   C4443     1.0  0.79413  0.23885  0.63573  1.0000
  C   C4444     1.0  0.79273  0.22551  0.65179  1.0000
  C   C4445     1.0  0.80487  0.20858  0.65258  1.0000
  H   H3518     1.0  0.83755  0.14804  0.59275  1.0000
  H   H3519     1.0  0.86208  0.16170  0.57016  1.0000
  H   H3520     1.0  0.87458  0.18502  0.57761  1.0000
  H   H3521     1.0  0.86291  0.19444  0.60705  1.0000
  H   H3522     1.0  0.82586  0.15695  0.62244  1.0000
  H   H3523     1.0  0.89819  0.19629  0.65522  1.0000
  H   H3524     1.0  0.86882  0.21863  0.65977  1.0000
  H   H3525     1.0  0.84135  0.21324  0.65336  1.0000
  H   H3526     1.0  0.83036  0.21608  0.60923  1.0000
  H   H3527     1.0  0.80870  0.24571  0.60799  1.0000
  H   H3528     1.0  0.78517  0.25220  0.63537  1.0000
  H   H3529     1.0  0.78249  0.22849  0.66374  1.0000
  H   H3530     1.0  0.80396  0.19870  0.66539  1.0000
  H   H3531     1.0  0.75890  0.31644  0.49513  1.0000
  H   H3532     1.0  0.71725  0.15698  0.49093  1.0000
  H   H3533     1.0  0.71712  0.13319  0.59104  1.0000
  H   H3534     1.0  0.73074  0.16226  0.66197  1.0000
  H   H3535     1.0  0.87654  0.04618  0.70431  1.0000
  C   C4446     1.0  0.86167  0.01136  0.53249  1.0000
  H   H3536     1.0  0.72782  0.00083  0.55867  1.0000
  C   C4447     1.0  0.80119  0.37042  0.48443  1.0000
  C   C4448     1.0  0.72348  0.15904  0.55488  1.0000
  H   H3537     1.0  0.82547  0.19663  0.58550  1.0000
  C   C4449     1.0  0.74019  0.18357  0.54749  1.0000
  C   C4450     1.0  0.77412  0.21889  0.52080  1.0000
  S   S615      1.0  0.83974  0.03698  0.59647  1.0000
  C   C4451     1.0  0.83905  0.00372  0.52049  1.0000
  C   C4452     1.0  0.70327  0.20891  0.67418  1.0000
  C   C4453     1.0  0.91981  0.05089  0.66606  1.0000
  C   C4454     1.0  0.71073  0.15511  0.52017  1.0000
  C   C4455     1.0  0.83677  0.08657  0.48165  1.0000
  C   C4456     1.0  0.95508  0.17530  0.49403  1.0000
  H   H3538     1.0  0.90723  0.03072  0.71078  1.0000
  C   C4457     1.0  0.70632  0.18310  0.66026  1.0000
  C   C4458     1.0  0.81512  0.36335  0.51091  1.0000
  C   C4459     1.0  0.79858  0.36021  0.52244  1.0000
  C   C4460     1.0  0.78332  0.36222  0.51505  1.0000
  C   C4461     1.0  0.70991  0.27401  0.68251  1.0000
  C   C4462     1.0  0.97468  0.23822  0.58345  1.0000
  H   H3539     1.0  0.69793  0.24047  0.64044  1.0000
  C   C4463     1.0  0.77896  0.22424  0.53464  1.0000
  C   C4464     1.0  0.78056  0.24670  0.49975  1.0000
  H   H3540     1.0  0.68204  0.25220  0.48890  1.0000
  C   C4465     1.0  0.68407  0.16723  0.57040  1.0000
  C   C4466     1.0  0.81926  0.16471  0.51756  1.0000
  C   C4467     1.0  0.81644  0.36846  0.49198  1.0000
  H   H3541     1.0  0.81193  0.21036  0.50911  1.0000
  H   H3542     1.0  0.96347  0.06676  0.60378  1.0000
  H   H3543     1.0  0.72370  0.02977  0.53550  1.0000
  C   C4468     1.0  0.97834  0.12496  0.55888  1.0000
  P   P149      1.0  0.69028  0.23030  0.68022  1.0000
  H   H3544     1.0  0.82711  0.36112  0.51664  1.0000
  C   C4469     1.0  0.84755  0.98562  0.54893  1.0000
  C   C4470     1.0  0.83062  0.00557  0.59444  1.0000
  C   C4471     1.0  0.70331  0.12879  0.57194  1.0000
  H   H3545     1.0  0.80876  0.26246  0.56937  1.0000
  C   C4472     1.0  0.76958  0.26597  0.55579  1.0000
  C   C4473     1.0  0.78470  0.24094  0.53107  1.0000
  H   H3546     1.0  0.67326  0.21278  0.52318  1.0000
  C   C4474     1.0  0.78223  0.44399  0.55677  1.0000
  C   C4475     1.0  0.76442  0.45280  0.56330  1.0000
  C   C4476     1.0  0.75478  0.44550  0.58044  1.0000
  C   C4477     1.0  0.76289  0.42931  0.59100  1.0000
  C   C4478     1.0  0.78060  0.42015  0.58433  1.0000
  C   C4479     1.0  0.79039  0.42781  0.56731  1.0000
  P   P150      1.0  0.79121  0.39988  0.59854  1.0000
  C   C4480     1.0  0.79715  0.40783  0.61590  1.0000
  C   C4481     1.0  0.77621  0.38382  0.60810  1.0000
  C   C4482     1.0  0.78018  0.36940  0.62271  1.0000
  C   C4483     1.0  0.76953  0.35605  0.62953  1.0000
  C   C4484     1.0  0.75497  0.35684  0.62158  1.0000
  C   C4485     1.0  0.75110  0.37095  0.60677  1.0000
  C   C4486     1.0  0.76173  0.38436  0.59996  1.0000
  C   C4487     1.0  0.81165  0.41711  0.61122  1.0000
  C   C4488     1.0  0.81599  0.42388  0.62440  1.0000
  C   C4489     1.0  0.80567  0.42174  0.64225  1.0000
  C   C4490     1.0  0.79097  0.41290  0.64691  1.0000
  C   C4491     1.0  0.78663  0.40605  0.63380  1.0000
  C   C4492     1.0  0.81074  0.38736  0.58509  1.0000
  C   C4493     1.0  0.82730  0.38054  0.59112  1.0000
  C   C4494     1.0  0.84166  0.36915  0.58161  1.0000
  C   C4495     1.0  0.83961  0.36450  0.56603  1.0000
  C   C4496     1.0  0.82322  0.37135  0.55986  1.0000
  C   C4497     1.0  0.80879  0.38264  0.56939  1.0000
  H   H3547     1.0  0.78982  0.44980  0.54360  1.0000
  C   C4498     1.0  0.72662  0.27232  0.67003  1.0000
  H   H3548     1.0  0.74107  0.45248  0.58564  1.0000
  H   H3549     1.0  0.75542  0.42397  0.60442  1.0000
  H   H3550     1.0  0.80435  0.42143  0.56220  1.0000
  H   H3551     1.0  0.79188  0.36821  0.62847  1.0000
  H   H3552     1.0  0.77300  0.34472  0.64054  1.0000
  H   H3553     1.0  0.74706  0.34616  0.62653  1.0000
  H   H3554     1.0  0.74017  0.37113  0.60029  1.0000
  H   H3555     1.0  0.75894  0.39476  0.58807  1.0000
  H   H3556     1.0  0.81968  0.41899  0.59740  1.0000
  H   H3557     1.0  0.82742  0.43070  0.62084  1.0000
  H   H3558     1.0  0.80920  0.42669  0.65258  1.0000
  H   H3559     1.0  0.78320  0.41101  0.66087  1.0000
  H   H3560     1.0  0.77511  0.39937  0.63776  1.0000
  H   H3561     1.0  0.82890  0.38306  0.60371  1.0000
  H   H3562     1.0  0.85405  0.36320  0.58690  1.0000
  H   H3563     1.0  0.85046  0.35506  0.55910  1.0000
  H   H3564     1.0  0.82151  0.36719  0.54815  1.0000
  H   H3565     1.0  0.79591  0.38713  0.56491  1.0000
  C   C4499     1.0  0.71967  0.20048  0.68019  1.0000
  H   H3566     1.0  0.67823  0.34820  0.49176  1.0000
  C   C4500     1.0  0.95221  0.07559  0.61098  1.0000
  H   H3567     1.0  0.72637  0.23363  0.65704  1.0000
  H   H3568     1.0  0.86519  0.37503  0.67370  1.0000
  H   H3569     1.0  0.74047  0.12071  0.50377  1.0000
  H   H3570     1.0  0.92110  0.10237  0.49131  1.0000
  H   H3571     1.0  0.87077  0.02649  0.63178  1.0000
  C   C4501     1.0  0.90004  0.10149  0.51581  1.0000
  C   C4502     1.0  0.88191  0.10834  0.52342  1.0000
  C   C4503     1.0  0.87082  0.12167  0.51272  1.0000
  H   H3572     1.0  0.82984  0.13742  0.69702  1.0000
  C   C4504     1.0  0.79225  0.23021  0.56859  1.0000
  H   H3573     1.0  0.80105  0.13091  0.69402  1.0000
  H   H3574     1.0  0.76879  0.14208  0.55513  1.0000
  C   C4505     1.0  0.67319  0.18210  0.56069  1.0000
  C   C4506     1.0  0.89423  0.05411  0.59728  1.0000
  H   H3575     1.0  0.68694  0.22575  0.54151  1.0000
  C   C4507     1.0  0.73654  0.27659  0.56085  1.0000
  H   H3576     1.0  0.88929  0.10012  0.66347  1.0000
  C   C4508     1.0  0.69910  0.26096  0.68607  1.0000
  H   H3577     1.0  0.96400  0.12542  0.53823  1.0000
  C   C4509     1.0  0.95405  0.09291  0.61177  1.0000
  H   H3578     1.0  0.69271  0.23368  0.71687  1.0000
  H   H3579     1.0  0.68580  0.26293  0.69508  1.0000
  H   H3580     1.0  0.90862  0.09135  0.52429  1.0000
  H   H3581     1.0  0.87650  0.10343  0.53770  1.0000
  H   H3582     1.0  0.85680  0.12655  0.51900  1.0000
  H   H3583     1.0  0.96447  0.19820  0.49709  1.0000
  H   H3584     1.0  0.78830  0.26568  0.51082  1.0000
  C   C4510     1.0  0.97268  0.25617  0.55314  1.0000
  H   H3585     1.0  0.79762  0.15052  0.49226  1.0000
  H   H3586     1.0  0.83630  0.33842  0.71581  1.0000
  C   C4511     1.0  0.85882  0.36934  0.71992  1.0000
  C   C4512     1.0  0.73994  0.14618  0.55602  1.0000
  H   H3587     1.0  0.76761  0.20713  0.60665  1.0000
  C   C4513     1.0  0.69484  0.22229  0.52868  1.0000
  H   H3588     1.0  0.93488  0.03370  0.68632  1.0000
  H   H3589     1.0  0.77065  0.35933  0.52400  1.0000
  C   C4514     1.0  0.95797  0.18674  0.50409  1.0000
  C   C4515     1.0  0.76186  0.07827  0.52262  1.0000
  C   C4516     1.0  0.85062  0.35568  0.69342  1.0000
  H   H3590     1.0  0.79008  0.08068  0.54462  1.0000
  H   H3591     1.0  0.82312  0.07244  0.54323  1.0000
  C   C4517     1.0  0.81196  0.20464  0.58451  1.0000
  C   C4518     1.0  0.83773  0.26442  0.52013  1.0000
  H   H3592     1.0  0.79782  0.35562  0.53707  1.0000
  C   C4519     1.0  0.80523  0.03108  0.59856  1.0000
  H   H3593     1.0  0.76348  0.23350  0.58124  1.0000
  C   C4520     1.0  0.85160  0.01463  0.51890  1.0000
  C   C4521     1.0  0.84308  0.27082  0.53289  1.0000
  C   C4522     1.0  0.68351  0.24556  0.64533  1.0000
  H   H3594     1.0  0.87339  0.06452  0.67362  1.0000
  C   C4523     1.0  0.73768  0.10940  0.53276  1.0000
  C   C4524     1.0  0.74455  0.10899  0.51424  1.0000
  H   H3595     1.0  0.75046  0.25146  0.55228  1.0000
  H   H3596     1.0  0.81779  0.10978  0.49131  1.0000
  C   C4525     1.0  0.73194  0.02813  0.54546  1.0000
  H   H3597     1.0  0.73812  0.05480  0.53507  1.0000
  C   C4526     1.0  0.82841  0.20446  0.52942  1.0000
  H   H3598     1.0  0.79860  0.18859  0.60899  1.0000
  C   C4527     1.0  0.73816  0.29216  0.56587  1.0000
  C   C4528     1.0  0.82453  0.21148  0.51198  1.0000
  H   H3599     1.0  0.72831  0.12144  0.53665  1.0000
  H   H3600     1.0  0.89985  0.16809  0.64455  1.0000
  H   H3601     1.0  0.74204  0.26542  0.52049  1.0000
  H   H3602     1.0  0.81865  0.19801  0.54027  1.0000
  C   C4529     1.0  0.65632  0.20625  0.64230  1.0000
  C   C4530     1.0  0.82161  0.25772  0.52491  1.0000
  H   H3603     1.0  0.81814  0.25261  0.51477  1.0000
  H   H3604     1.0  0.85371  0.02560  0.50707  1.0000
  C   C4531     1.0  0.82466  0.16671  0.65642  1.0000
  H   H3605     1.0  0.87249  0.16229  0.63806  1.0000
  H   H3606     1.0  0.84488  0.16007  0.67335  1.0000
  C   C4532     1.0  0.84481  0.99752  0.48466  1.0000
  C   C4533     1.0  0.83255  0.27011  0.55057  1.0000
  H   H3607     1.0  0.80153  0.17081  0.64380  1.0000
  C   C4534     1.0  0.84861  0.35550  0.72543  1.0000
  H   H3608     1.0  0.96882  0.11845  0.56998  1.0000
  C   C4535     1.0  0.80802  0.16339  0.65519  1.0000
  C   C4536     1.0  0.83234  0.15745  0.67175  1.0000
  H   H3609     1.0  0.96802  0.23331  0.59742  1.0000
  H   H3610     1.0  0.86343  0.22663  0.48999  1.0000
  H   H3611     1.0  0.87114  0.02002  0.53129  1.0000
  C   C4537     1.0  0.68964  0.15347  0.50254  1.0000
  C   C4538     1.0  0.79683  0.20012  0.59771  1.0000
  C   C4539     1.0  0.77940  0.21056  0.59638  1.0000
  C   C4540     1.0  0.81044  0.25769  0.54244  1.0000
  C   C4541     1.0  0.81650  0.26326  0.55545  1.0000
  C   C4542     1.0  0.87894  0.10273  0.65544  1.0000
  C   C4543     1.0  0.67984  0.15158  0.53520  1.0000
  C   C4544     1.0  0.73255  0.25757  0.66114  1.0000
  S   S616      1.0  0.72210  0.23582  0.53453  1.0000
  C   C4545     1.0  0.78456  0.36739  0.49611  1.0000
  C   C4546     1.0  0.81524  0.04403  0.50402  1.0000
  C   C4547     1.0  0.80969  0.21960  0.57004  1.0000
  P   P151      1.0  0.78953  0.24884  0.54915  1.0000
  C   C4548     1.0  0.90591  0.03882  0.69729  1.0000
  C   C4549     1.0  0.78490  0.25233  0.51366  1.0000
  C   C4550     1.0  0.79965  0.15041  0.66861  1.0000
  C   C4551     1.0  0.82381  0.14461  0.68527  1.0000
  C   C4552     1.0  0.72387  0.17776  0.54997  1.0000
  H   H3612     1.0  0.83829  0.13124  0.64966  1.0000
  C   C4553     1.0  0.77513  0.23000  0.50332  1.0000
  C   C4554     1.0  0.88691  0.05797  0.67624  1.0000
  H   H3613     1.0  0.90710  0.07426  0.60049  1.0000
  H   H3614     1.0  0.86255  0.12538  0.66759  1.0000
  C   C4555     1.0  0.75626  0.15204  0.55352  1.0000
  C   C4556     1.0  0.85047  0.07133  0.48591  1.0000
  C   C4557     1.0  0.75213  0.26353  0.55590  1.0000
  H   H3615     1.0  0.78404  0.28420  0.56105  1.0000
  H   H3616     1.0  0.66522  0.17530  0.61344  1.0000
  C   C4558     1.0  0.73309  0.27932  0.49540  1.0000
  H   H3617     1.0  0.93206  0.05194  0.65562  1.0000
  C   C4559     1.0  0.77102  0.28172  0.56084  1.0000
  H   H3618     1.0  0.77156  0.22581  0.49253  1.0000
  H   H3619     1.0  0.79110  0.16425  0.51942  1.0000
  C   C4560     1.0  0.75632  0.17074  0.54957  1.0000
  C   C4561     1.0  0.85013  0.12036  0.64783  1.0000
  C   C4562     1.0  0.71168  0.10612  0.59841  1.0000
  C   C4563     1.0  0.72186  0.24444  0.66477  1.0000
  H   H3620     1.0  0.78703  0.14764  0.66732  1.0000
  H   H3621     1.0  0.79696  0.00767  0.53332  1.0000
  C   C4564     1.0  0.86373  0.11697  0.65791  1.0000
  C   C4565     1.0  0.70693  0.15518  0.50339  1.0000
  C   C4566     1.0  0.74206  0.27745  0.50955  1.0000
  C   C4567     1.0  0.96436  0.25045  0.57135  1.0000
  H   H3622     1.0  0.75816  0.46539  0.55516  1.0000
  C   C4568     1.0  0.90250  0.05976  0.66230  1.0000
  H   H3623     1.0  0.71153  0.18789  0.54825  1.0000
  C   C4569     1.0  0.75539  0.29473  0.56580  1.0000
  H   H3624     1.0  0.75666  0.30664  0.57003  1.0000
  H   H3625     1.0  0.77781  0.21552  0.54813  1.0000
  C   C4570     1.0  0.68712  0.21488  0.51833  1.0000
  H   H3626     1.0  0.84131  0.11243  0.62725  1.0000
  C   C4571     1.0  0.80756  0.14098  0.68363  1.0000
  C   C4572     1.0  0.81751  0.03067  0.49385  1.0000
  C   C4573     1.0  0.85179  0.10967  0.63520  1.0000
  H   H3627     1.0  0.96452  0.26532  0.54369  1.0000
  C   C4574     1.0  0.87798  0.12856  0.49431  1.0000
  H   H3628     1.0  0.83399  0.31014  0.48924  1.0000
  C   C4575     1.0  0.86710  0.09562  0.63254  1.0000
  H   H3629     1.0  0.88065  0.04255  0.65018  1.0000
  H   H3630     1.0  0.72485  0.20693  0.68815  1.0000
  C   C4576     1.0  0.87923  0.03653  0.62510  1.0000
  C   C4577     1.0  0.88081  0.09203  0.64259  1.0000
  C   C4578     1.0  0.81863  0.99463  0.59431  1.0000
  C   C4579     1.0  0.80499  0.16121  0.51183  1.0000
  C   C4580     1.0  0.92103  0.08117  0.62852  1.0000
  H   H3631     1.0  0.74245  0.17747  0.68004  1.0000
  C   C4581     1.0  0.93948  0.10435  0.62091  1.0000
  C   C4582     1.0  0.88491  0.04567  0.63547  1.0000
  H   H3632     1.0  0.72606  0.30207  0.57012  1.0000
  H   H3633     1.0  0.72262  0.21067  0.48209  1.0000
  H   H3634     1.0  0.91187  0.10802  0.63563  1.0000
  H   H3635     1.0  0.86832  0.08778  0.62241  1.0000
  C   C4583     1.0  0.89984  0.06335  0.60758  1.0000
  H   H3636     1.0  0.84818  0.16328  0.51246  1.0000
  H   H3637     1.0  0.72413  0.15676  0.52043  1.0000
  H   H3638     1.0  0.89737  0.05779  0.58246  1.0000
  H   H3639     1.0  0.66255  0.15097  0.51754  1.0000
  H   H3640     1.0  0.93467  0.05618  0.61874  1.0000
  P   P152      1.0  0.82739  0.00705  0.50211  1.0000
  C   C4584     1.0  0.89536  0.05912  0.62677  1.0000
  C   C4585     1.0  0.92301  0.09859  0.62915  1.0000
  H   H3641     1.0  0.94071  0.11797  0.62122  1.0000
  C   C4586     1.0  0.88385  0.04077  0.60602  1.0000
  C   C4587     1.0  0.70517  0.24585  0.67751  1.0000
  C   C4588     1.0  0.97555  0.12900  0.54100  1.0000
  C   C4589     1.0  0.70415  0.09354  0.59408  1.0000
  H   H3642     1.0  0.73482  0.28265  0.66688  1.0000
  H   H3643     1.0  0.67859  0.25765  0.61821  1.0000
  C   C4590     1.0  0.92148  0.04049  0.68350  1.0000
  C   C4591     1.0  0.69607  0.11588  0.56751  1.0000
  H   H3644     1.0  0.71767  0.10247  0.61042  1.0000
  H   H3645     1.0  0.83407  0.22476  0.48442  1.0000
  S   S617      1.0  0.82300  0.44520  0.72555  1.0000
  C   C4592     1.0  0.86479  0.37631  0.70134  1.0000
  C   C4593     1.0  0.90705  0.10770  0.49731  1.0000
  C   C4594     1.0  0.67691  0.22431  0.70295  1.0000
  H   H3646     1.0  0.67564  0.18468  0.54592  1.0000
  H   H3647     1.0  0.84046  0.47711  0.69756  1.0000
  H   H3648     1.0  0.74938  0.38816  0.70906  1.0000
  H   H3649     1.0  0.68956  0.15411  0.59742  1.0000
  C   C4595     1.0  0.69645  0.19989  0.66459  1.0000
  C   C4596     1.0  0.67578  0.24228  0.66410  1.0000
  H   H3650     1.0  0.87898  0.03405  0.59801  1.0000
  H   H3651     1.0  0.69353  0.27927  0.48885  1.0000
  H   H3652     1.0  0.70112  0.17640  0.65250  1.0000
  H   H3653     1.0  0.65938  0.21195  0.69395  1.0000
  C   C4597     1.0  0.84107  0.15238  0.49262  1.0000
  H   H3654     1.0  0.68362  0.20594  0.66027  1.0000
  C   C4598     1.0  0.84445  0.34883  0.71198  1.0000
  C   C4599     1.0  0.65929  0.19410  0.56995  1.0000
  H   H3655     1.0  0.86505  0.46586  0.71848  1.0000
  H   H3656     1.0  0.74516  0.25659  0.65094  1.0000
  H   H3657     1.0  0.87239  0.38724  0.69727  1.0000
  H   H3658     1.0  0.66916  0.15033  0.54738  1.0000
  Fe  Fe309     1.0  0.84147  0.41934  0.71841  1.0000
  H   H3659     1.0  0.70515  0.28569  0.68908  1.0000
  C   C4600     1.0  0.72299  0.17513  0.66563  1.0000
  C   C4601     1.0  0.86072  0.36948  0.68809  1.0000
  C   C4602     1.0  0.65712  0.24942  0.67002  1.0000
  H   H3660     1.0  0.70660  0.32496  0.48779  1.0000
  C   C4603     1.0  0.67267  0.25545  0.63268  1.0000
  C   C4604     1.0  0.80795  0.99631  0.50898  1.0000
  H   H3661     1.0  0.76185  0.09307  0.49482  1.0000
  S   S618      1.0  0.68656  0.20183  0.48876  1.0000
  C   C4605     1.0  0.68108  0.22772  0.71827  1.0000
  H   H3662     1.0  0.77266  0.36871  0.49057  1.0000
  S   S619      1.0  0.80953  0.47892  0.68195  1.0000
  H   H3663     1.0  0.84725  0.35054  0.68314  1.0000
  C   C4606     1.0  0.74699  0.39191  0.72221  1.0000
  H   H3664     1.0  0.76853  0.40717  0.71360  1.0000
  C   C4607     1.0  0.77869  0.99309  0.52907  1.0000
  H   H3665     1.0  0.76886  0.99536  0.54143  1.0000
  H   H3666     1.0  0.86721  0.99451  0.55822  1.0000
  H   H3667     1.0  0.74689  0.99709  0.58135  1.0000
  H   H3668     1.0  0.82949  0.37049  0.48333  1.0000
  H   H3669     1.0  0.68661  0.15383  0.48951  1.0000
  C   C4608     1.0  0.80024  0.06692  0.48170  1.0000
  C   C4609     1.0  0.83738  0.98891  0.53540  1.0000
  C   C4610     1.0  0.80470  0.98635  0.49774  1.0000
  S   S620      1.0  0.87012  0.41117  0.72409  1.0000
  H   H3670     1.0  0.98466  0.14125  0.51304  1.0000
  C   C4611     1.0  0.89600  0.12102  0.48654  1.0000
  C   C4612     1.0  0.75785  0.40262  0.72474  1.0000
  H   H3671     1.0  0.90019  0.15474  0.48038  1.0000
  P   P153      1.0  0.86440  0.14679  0.48049  1.0000
  H   H3672     1.0  0.86326  0.31787  0.72914  1.0000
  C   C4613     1.0  0.68068  0.33978  0.48174  1.0000
  C   C4614     1.0  0.73314  0.29481  0.48108  1.0000
  C   C4615     1.0  0.98739  0.13799  0.52669  1.0000
  H   H3673     1.0  0.98750  0.21339  0.52620  1.0000
  C   C4616     1.0  0.74267  0.30811  0.48096  1.0000
  H   H3674     1.0  0.86191  0.37518  0.72978  1.0000
  Fe  Fe310     1.0  0.90383  0.44378  0.83764  1.0000
  S   S621      1.0  0.91551  0.44050  0.80870  1.0000
  S   S622      1.0  0.89200  0.47005  0.84739  1.0000
  Fe  Fe311     1.0  0.90931  0.40300  0.85271  1.0000
  S   S623      1.0  0.92139  0.39595  0.82506  1.0000
  S   S624      1.0  0.90370  0.38266  0.87901  1.0000
  Fe  Fe312     1.0  0.93702  0.41831  0.82110  1.0000
  Fe  Fe313     1.0  0.89898  0.41873  0.81517  1.0000
  S   S625      1.0  0.87551  0.41960  0.80209  1.0000
  S   S626      1.0  0.92629  0.42357  0.84947  1.0000
  S   S627      1.0  0.88586  0.42378  0.84344  1.0000
  S   S628      1.0  0.79810  0.41692  0.95345  1.0000
  Fe  Fe314     1.0  0.79840  0.38710  0.96465  1.0000
  Fe  Fe315     1.0  0.82728  0.41030  0.95663  1.0000
  S   S629      1.0  0.84738  0.42577  0.93618  1.0000
  Fe  Fe316     1.0  0.71750  0.39406  0.88501  1.0000
  S   S630      1.0  0.73067  0.40894  0.85798  1.0000
  S   S631      1.0  0.72267  0.40290  0.90884  1.0000
  Fe  Fe317     1.0  0.69484  0.37836  0.86695  1.0000
  S   S632      1.0  0.70641  0.39283  0.83876  1.0000
  H   H3675     1.0  0.90368  0.36514  0.97655  1.0000
  Fe  Fe318     1.0  0.73322  0.38361  0.84780  1.0000
  S   S633      1.0  0.75871  0.37295  0.82838  1.0000
  Fe  Fe319     1.0  0.70286  0.41711  0.85143  1.0000
  S   S634      1.0  0.69331  0.44676  0.83831  1.0000
  S   S635      1.0  0.72224  0.36754  0.87547  1.0000
  S   S636      1.0  0.68918  0.40360  0.87897  1.0000
  C   C4617     1.0  0.85942  0.37325  0.77790  1.0000
  H   H3676     1.0  0.67152  0.41190  0.82282  1.0000
  P   P154      1.0  0.94185  0.41077  0.91672  1.0000
  H   H3677     1.0  0.90145  0.40670  0.74000  1.0000
  S   S637      1.0  0.77975  0.43490  0.76013  1.0000
  C   C4618     1.0  0.78152  0.45126  0.90928  1.0000
  C   C4619     1.0  0.77065  0.48112  0.97925  1.0000
  C   C4620     1.0  0.69715  0.46206  0.84986  1.0000
  H   H3678     1.0  0.73078  0.41816  0.96263  1.0000
  C   C4621     1.0  0.73842  0.44087  0.96818  1.0000
  C   C4622     1.0  0.94904  0.47002  0.77664  1.0000
  C   C4623     1.0  0.70817  0.46740  0.87442  1.0000
  C   C4624     1.0  0.70470  0.45532  0.86550  1.0000
  C   C4625     1.0  0.97202  0.46308  0.82322  1.0000
  C   C4626     1.0  0.75752  0.45767  0.88572  1.0000
  C   C4627     1.0  0.76407  0.38995  0.80898  1.0000
  C   C4628     1.0  0.75633  0.40837  0.80915  1.0000
  C   C4629     1.0  0.76142  0.42197  0.79412  1.0000
  C   C4630     1.0  0.77380  0.41726  0.77852  1.0000
  C   C4631     1.0  0.78114  0.39880  0.77799  1.0000
  C   C4632     1.0  0.77643  0.38514  0.79333  1.0000
  H   H3679     1.0  0.74664  0.41227  0.82096  1.0000
  H   H3680     1.0  0.75597  0.43623  0.79474  1.0000
  H   H3681     1.0  0.79048  0.39513  0.76583  1.0000
  H   H3682     1.0  0.78223  0.37087  0.79307  1.0000
  H   H3683     1.0  0.71367  0.44428  0.79765  1.0000
  H   H3684     1.0  0.93896  0.42246  0.95065  1.0000
  H   H3685     1.0  0.86724  0.29538  0.79447  1.0000
  C   C4633     1.0  0.90526  0.46258  0.89000  1.0000
  C   C4634     1.0  0.87583  0.45998  0.74290  1.0000
  C   C4635     1.0  0.67896  0.43224  0.79895  1.0000
  H   H3686     1.0  0.68488  0.35591  0.83600  1.0000
  C   C4636     1.0  0.77033  0.37951  0.93884  1.0000
  C   C4637     1.0  0.76484  0.36832  0.93034  1.0000
  C   C4638     1.0  0.75093  0.37551  0.92020  1.0000
  C   C4639     1.0  0.74202  0.39387  0.91895  1.0000
  C   C4640     1.0  0.74766  0.40511  0.92725  1.0000
  C   C4641     1.0  0.76190  0.39804  0.93697  1.0000
  H   H3687     1.0  0.77104  0.35391  0.93201  1.0000
  H   H3688     1.0  0.74653  0.36669  0.91406  1.0000
  H   H3689     1.0  0.74095  0.41936  0.92610  1.0000
  H   H3690     1.0  0.76603  0.40681  0.94339  1.0000
  H   H3691     1.0  0.74955  0.47057  0.84463  1.0000
  C   C4642     1.0  0.82404  0.46148  0.88736  1.0000
  H   H3692     1.0  0.83602  0.47368  0.81781  1.0000
  C   C4643     1.0  0.79528  0.46149  0.96268  1.0000
  H   H3693     1.0  0.88851  0.38338  0.95118  1.0000
  H   H3694     1.0  0.66379  0.21749  0.87103  1.0000
  C   C4644     1.0  0.87502  0.41698  0.78020  1.0000
  C   C4645     1.0  0.89079  0.41220  0.76726  1.0000
  C   C4646     1.0  0.88926  0.41041  0.75001  1.0000
  C   C4647     1.0  0.87199  0.41351  0.74565  1.0000
  C   C4648     1.0  0.85633  0.41825  0.75863  1.0000
  C   C4649     1.0  0.85788  0.41995  0.77580  1.0000
  H   H3695     1.0  0.90410  0.40990  0.77052  1.0000
  H   H3696     1.0  0.77564  0.48250  0.73214  1.0000
  H   H3697     1.0  0.84301  0.42029  0.75553  1.0000
  H   H3698     1.0  0.84572  0.42343  0.78585  1.0000
  C   C4650     1.0  0.88979  0.39435  0.89602  1.0000
  C   C4651     1.0  0.88667  0.41346  0.89287  1.0000
  C   C4652     1.0  0.87403  0.42290  0.90560  1.0000
  C   C4653     1.0  0.86413  0.41335  0.92130  1.0000
  C   C4654     1.0  0.86768  0.39420  0.92478  1.0000
  C   C4655     1.0  0.88072  0.38467  0.91227  1.0000
  H   H3699     1.0  0.89380  0.42106  0.88053  1.0000
  H   H3700     1.0  0.87159  0.43766  0.90305  1.0000
  H   H3701     1.0  0.86025  0.38673  0.93698  1.0000
  H   H3702     1.0  0.88316  0.36989  0.91478  1.0000
  H   H3703     1.0  0.92979  0.40031  0.88874  1.0000
  C   C4656     1.0  0.66400  0.32528  0.94135  1.0000
  C   C4657     1.0  0.68971  0.34995  0.75517  1.0000
  C   C4658     1.0  0.73595  0.45994  0.96514  1.0000
  H   H3704     1.0  0.72495  0.37779  0.73424  1.0000
  C   C4659     1.0  0.92968  0.39630  0.93560  1.0000
  C   C4660     1.0  0.84033  0.47511  0.75970  1.0000
  H   H3705     1.0  0.92369  0.47042  0.81776  1.0000
  C   C4661     1.0  0.96277  0.47473  0.89031  1.0000
  H   H3706     1.0  0.74818  0.43218  0.97626  1.0000
  C   C4662     1.0  0.77982  0.46356  0.97670  1.0000
  H   H3707     1.0  0.95940  0.43564  0.96117  1.0000
  H   H3708     1.0  0.88940  0.45370  0.73653  1.0000
  C   C4663     1.0  0.73111  0.45272  0.77167  1.0000
  C   C4664     1.0  0.70192  0.35706  0.76062  1.0000
  C   C4665     1.0  0.69683  0.37474  0.76445  1.0000
  H   H3709     1.0  0.67466  0.33921  0.91412  1.0000
  P   P155      1.0  0.71241  0.38342  0.77234  1.0000
  C   C4666     1.0  0.72206  0.36522  0.78937  1.0000
  C   C4667     1.0  0.73031  0.39071  0.75367  1.0000
  C   C4668     1.0  0.74143  0.40136  0.75612  1.0000
  H   H3710     1.0  0.97709  0.42173  0.89893  1.0000
  H   H3711     1.0  0.74907  0.46427  0.74770  1.0000
  H   H3712     1.0  0.66282  0.32191  0.89874  1.0000
  C   C4669     1.0  0.73323  0.38598  0.73658  1.0000
  C   C4670     1.0  0.74027  0.36281  0.79090  1.0000
  C   C4671     1.0  0.74755  0.34849  0.80396  1.0000
  C   C4672     1.0  0.73669  0.33662  0.81576  1.0000
  C   C4673     1.0  0.71860  0.33885  0.81429  1.0000
  C   C4674     1.0  0.71132  0.35306  0.80115  1.0000
  C   C4675     1.0  0.69952  0.40255  0.78284  1.0000
  C   C4676     1.0  0.68924  0.39952  0.80078  1.0000
  Fe  Fe320     1.0  0.80130  0.42849  0.73560  1.0000
  C   C4677     1.0  0.75511  0.40729  0.74168  1.0000
  C   C4678     1.0  0.72356  0.47125  0.95446  1.0000
  C   C4679     1.0  0.69881  0.42063  0.77280  1.0000
  C   C4680     1.0  0.75068  0.45755  0.90430  1.0000
  C   C4681     1.0  0.85173  0.47186  0.88554  1.0000
  H   H3713     1.0  0.67334  0.33979  0.81833  1.0000
  S   S638      1.0  0.82024  0.40205  0.73100  1.0000
  C   C4682     1.0  0.86384  0.31323  0.74345  1.0000
  H   H3714     1.0  0.73961  0.40504  0.76922  1.0000
  H   H3715     1.0  0.97456  0.46457  0.89368  1.0000
  C   C4683     1.0  0.98482  0.43151  0.91888  1.0000
  H   H3716     1.0  0.85123  0.46767  0.78434  1.0000
  H   H3717     1.0  0.79221  0.47811  0.80777  1.0000
  H   H3718     1.0  0.74893  0.37200  0.78232  1.0000
  H   H3719     1.0  0.76146  0.34701  0.80538  1.0000
  H   H3720     1.0  0.74219  0.32594  0.82627  1.0000
  H   H3721     1.0  0.71008  0.32978  0.82359  1.0000
  H   H3722     1.0  0.69721  0.35471  0.80037  1.0000
  H   H3723     1.0  0.83398  0.47936  0.73299  1.0000
  H   H3724     1.0  0.67519  0.39902  0.76515  1.0000
  H   H3725     1.0  0.88416  0.27631  0.77161  1.0000
  C   C4684     1.0  0.67238  0.36047  0.75340  1.0000
  H   H3726     1.0  0.70608  0.42340  0.75874  1.0000
  H   H3727     1.0  0.70533  0.47155  0.93714  1.0000
  C   C4685     1.0  0.93275  0.43894  0.88790  1.0000
  C   C4686     1.0  0.95296  0.38303  0.87531  1.0000
  H   H3728     1.0  0.73605  0.45999  0.90951  1.0000
  H   H3729     1.0  0.79230  0.46935  0.75701  1.0000
  C   C4687     1.0  0.77971  0.34349  0.75915  1.0000
  C   C4688     1.0  0.84444  0.47444  0.74107  1.0000
  C   C4689     1.0  0.97859  0.41431  0.84071  1.0000
  C   C4690     1.0  0.87456  0.29603  0.74900  1.0000
  C   C4691     1.0  0.96472  0.47622  0.76621  1.0000
  H   H3730     1.0  0.76368  0.41547  0.74361  1.0000
  C   C4692     1.0  0.92187  0.45486  0.87985  1.0000
  C   C4693     1.0  0.72011  0.45518  0.78864  1.0000
  C   C4694     1.0  0.81339  0.44759  0.78002  1.0000
  C   C4695     1.0  0.81694  0.34447  0.75257  1.0000
  H   H3731     1.0  0.88240  0.45475  0.76945  1.0000
  C   C4696     1.0  0.95351  0.39635  0.90041  1.0000
  P   P156      1.0  0.84039  0.34650  0.74942  1.0000
  H   H3732     1.0  0.70913  0.47324  0.80748  1.0000
  C   C4697     1.0  0.68400  0.28138  0.86091  1.0000
  H   H3733     1.0  0.92626  0.46114  0.86564  1.0000
  H   H3734     1.0  0.87251  0.37537  0.77867  1.0000
  H   H3735     1.0  0.87108  0.35659  0.75770  1.0000
  H   H3736     1.0  0.84821  0.32566  0.78493  1.0000
  H   H3737     1.0  0.89680  0.47477  0.88358  1.0000
  H   H3738     1.0  0.94563  0.43323  0.87978  1.0000
  C   C4698     1.0  0.93841  0.38547  0.94978  1.0000
  H   H3739     1.0  0.96445  0.41537  0.84749  1.0000
  C   C4699     1.0  0.93183  0.48151  0.77638  1.0000
  H   H3740     1.0  0.78831  0.42220  0.81513  1.0000
  H   H3741     1.0  0.69412  0.27887  0.84874  1.0000
  H   H3742     1.0  0.94500  0.46460  0.91529  1.0000
  H   H3743     1.0  0.75743  0.45451  0.93043  1.0000
  H   H3744     1.0  0.80271  0.44809  0.96067  1.0000
  H   H3745     1.0  0.88672  0.46053  0.91619  1.0000
  C   C4700     1.0  0.98882  0.45749  0.81209  1.0000
  C   C4701     1.0  0.67298  0.34994  0.84212  1.0000
  C   C4702     1.0  0.79095  0.33106  0.77033  1.0000
  C   C4703     1.0  0.86210  0.46683  0.73274  1.0000
  H   H3746     1.0  0.82233  0.44638  0.76688  1.0000
  C   C4704     1.0  0.71424  0.46318  0.94625  1.0000
  C   C4705     1.0  0.91181  0.39506  0.93593  1.0000
  C   C4706     1.0  0.94405  0.39385  0.88827  1.0000
  C   C4707     1.0  0.79274  0.48328  0.74984  1.0000
  H   H3747     1.0  0.81232  0.36743  0.77425  1.0000
  H   H3748     1.0  0.88201  0.28773  0.73900  1.0000
  S   S639      1.0  0.96734  0.41629  0.80860  1.0000
  C   C4708     1.0  0.76268  0.45446  0.91605  1.0000
  H   H3749     1.0  0.95248  0.38558  0.94940  1.0000
  C   C4709     1.0  0.97174  0.38707  0.90005  1.0000
  C   C4710     1.0  0.84314  0.45933  0.88254  1.0000
  C   C4711     1.0  0.80630  0.43247  0.79066  1.0000
  C   C4712     1.0  0.96332  0.43233  0.94770  1.0000
  H   H3750     1.0  0.97805  0.46737  0.76670  1.0000
  C   C4713     1.0  0.97098  0.47241  0.83690  1.0000
  H   H3751     1.0  0.79902  0.47891  0.89869  1.0000
  H   H3752     1.0  0.92003  0.47652  0.78496  1.0000
  H   H3753     1.0  0.84412  0.38938  0.79796  1.0000
  H   H3754     1.0  0.90508  0.40257  0.92475  1.0000
  C   C4714     1.0  0.92180  0.48197  0.82394  1.0000
  C   C4715     1.0  0.71782  0.47153  0.79435  1.0000
  C   C4716     1.0  0.92698  0.43050  0.90618  1.0000
  H   H3755     1.0  0.66127  0.28679  0.84770  1.0000
  C   C4717     1.0  0.82555  0.36894  0.77509  1.0000
  C   C4718     1.0  0.69282  0.48110  0.84338  1.0000
  H   H3756     1.0  0.80985  0.41986  0.78567  1.0000
  C   C4719     1.0  0.85550  0.31754  0.77475  1.0000
  H   H3757     1.0  0.71525  0.34868  0.76210  1.0000
  C   C4720     1.0  0.87578  0.28960  0.76737  1.0000
  H   H3758     1.0  0.95029  0.45637  0.78522  1.0000
  C   C4721     1.0  0.84341  0.38127  0.78869  1.0000
  H   H3759     1.0  0.95981  0.46011  0.82121  1.0000
  C   C4722     1.0  0.83114  0.46203  0.82712  1.0000
  H   H3760     1.0  0.67039  0.22711  0.83718  1.0000
  C   C4723     1.0  0.90244  0.38402  0.95078  1.0000
  H   H3761     1.0  0.77838  0.36617  0.73607  1.0000
  C   C4724     1.0  0.82649  0.37905  0.78734  1.0000
  C   C4725     1.0  0.65760  0.28873  0.89214  1.0000
  H   H3762     1.0  0.68845  0.44931  0.77324  1.0000
  H   H3763     1.0  0.67346  0.22589  0.74750  1.0000
  H   H3764     1.0  0.68072  0.28308  0.90515  1.0000
  H   H3765     1.0  0.66927  0.33297  0.94805  1.0000
  C   C4726     1.0  0.87188  0.46059  0.76144  1.0000
  C   C4727     1.0  0.66710  0.32876  0.92226  1.0000
  S   S640      1.0  0.82838  0.38006  0.96533  1.0000
  C   C4728     1.0  0.79404  0.43389  0.80721  1.0000
  C   C4729     1.0  0.97135  0.37456  0.87442  1.0000
  C   C4730     1.0  0.68941  0.28034  0.87712  1.0000
  H   H3766     1.0  0.68916  0.38579  0.80878  1.0000
  H   H3767     1.0  0.71377  0.46198  0.88664  1.0000
  H   H3768     1.0  0.90616  0.43292  0.93082  1.0000
  C   C4731     1.0  0.91061  0.43875  0.91652  1.0000
  C   C4732     1.0  0.95696  0.42017  0.92440  1.0000
  C   C4733     1.0  0.78898  0.45044  0.81324  1.0000
  C   C4734     1.0  0.82525  0.43155  0.83252  1.0000
  C   C4735     1.0  0.83204  0.44637  0.82069  1.0000
  C   C4736     1.0  0.65813  0.21176  0.86284  1.0000
  C   C4737     1.0  0.82452  0.46239  0.84569  1.0000
  C   C4738     1.0  0.81855  0.44712  0.85782  1.0000
  C   C4739     1.0  0.81810  0.43209  0.85094  1.0000
  P   P157      1.0  0.81303  0.44581  0.88223  1.0000
  C   C4740     1.0  0.78857  0.45085  0.89068  1.0000
  C   C4741     1.0  0.82318  0.42257  0.89195  1.0000
  C   C4742     1.0  0.81370  0.41221  0.90748  1.0000
  C   C4743     1.0  0.82164  0.39416  0.91444  1.0000
  C   C4744     1.0  0.83879  0.38609  0.90565  1.0000
  C   C4745     1.0  0.84800  0.39595  0.88978  1.0000
  C   C4746     1.0  0.84042  0.41417  0.88313  1.0000
  H   H3769     1.0  0.94560  0.38139  0.86581  1.0000
  S   S641      1.0  0.67247  0.36141  0.87390  1.0000
  C   C4747     1.0  0.66421  0.35117  0.86014  1.0000
  C   C4748     1.0  0.66030  0.31893  0.91355  1.0000
  C   C4749     1.0  0.77641  0.45430  0.87888  1.0000
  C   C4750     1.0  0.73812  0.48273  0.76645  1.0000
  H   H3770     1.0  0.74806  0.46020  0.87674  1.0000
  H   H3771     1.0  0.86646  0.47006  0.88169  1.0000
  C   C4751     1.0  0.85422  0.32415  0.75629  1.0000
  H   H3772     1.0  0.95772  0.47696  0.84503  1.0000
  H   H3773     1.0  0.67152  0.44365  0.80548  1.0000
  H   H3774     1.0  0.82585  0.41954  0.82740  1.0000
  H   H3775     1.0  0.83795  0.44562  0.80654  1.0000
  H   H3776     1.0  0.98774  0.41312  0.86522  1.0000
  H   H3777     1.0  0.78527  0.32109  0.78156  1.0000
  H   H3778     1.0  0.81305  0.42040  0.86000  1.0000
  H   H3779     1.0  0.80021  0.41776  0.91436  1.0000
  H   H3780     1.0  0.81452  0.38641  0.92671  1.0000
  H   H3781     1.0  0.84515  0.37237  0.91144  1.0000
  H   H3782     1.0  0.86131  0.38963  0.88288  1.0000
  H   H3783     1.0  0.84803  0.42154  0.87092  1.0000
  H   H3784     1.0  0.70758  0.44077  0.87099  1.0000
  H   H3785     1.0  0.66128  0.25522  0.91705  1.0000
  C   C4752     1.0  0.72869  0.43296  0.96044  1.0000
  C   C4753     1.0  0.74007  0.46649  0.76058  1.0000
  H   H3786     1.0  0.78140  0.45420  0.86447  1.0000
  H   H3787     1.0  0.86870  0.47265  0.80458  1.0000
  C   C4754     1.0  0.85853  0.36286  0.76585  1.0000
  C   C4755     1.0  0.86624  0.30035  0.78024  1.0000
  H   H3788     1.0  0.93580  0.36606  0.97549  1.0000
  H   H3789     1.0  0.85156  0.44813  0.87628  1.0000
  C   C4756     1.0  0.77985  0.40590  0.88509  1.0000
  C   C4757     1.0  0.77113  0.41395  0.87039  1.0000
  C   C4758     1.0  0.77670  0.40672  0.85455  1.0000
  C   C4759     1.0  0.79063  0.39114  0.85359  1.0000
  C   C4760     1.0  0.79860  0.38221  0.86882  1.0000
  C   C4761     1.0  0.79348  0.39005  0.88439  1.0000
  P   P158      1.0  0.81554  0.36120  0.86783  1.0000
  C   C4762     1.0  0.82257  0.35127  0.88943  1.0000
  C   C4763     1.0  0.80668  0.34361  0.86331  1.0000
  C   C4764     1.0  0.78883  0.34696  0.86030  1.0000
  C   C4765     1.0  0.78221  0.33302  0.85721  1.0000
  C   C4766     1.0  0.79315  0.31551  0.85747  1.0000
  C   C4767     1.0  0.81073  0.31189  0.86094  1.0000
  C   C4768     1.0  0.81744  0.32584  0.86394  1.0000
  C   C4769     1.0  0.80938  0.34727  0.90532  1.0000
  C   C4770     1.0  0.81457  0.33947  0.92214  1.0000
  C   C4771     1.0  0.83301  0.33505  0.92314  1.0000
  C   C4772     1.0  0.84632  0.33828  0.90726  1.0000
  C   C4773     1.0  0.84115  0.34646  0.89047  1.0000
  C   C4774     1.0  0.83508  0.36708  0.85074  1.0000
  C   C4775     1.0  0.84427  0.35643  0.83756  1.0000
  C   C4776     1.0  0.86028  0.36054  0.82551  1.0000
  C   C4777     1.0  0.86695  0.37549  0.82625  1.0000
  C   C4778     1.0  0.85766  0.38632  0.83909  1.0000
  C   C4779     1.0  0.84183  0.38211  0.85130  1.0000
  H   H3790     1.0  0.77564  0.41163  0.89730  1.0000
  H   H3791     1.0  0.75977  0.42552  0.87144  1.0000
  H   H3792     1.0  0.76967  0.41277  0.84331  1.0000
  H   H3793     1.0  0.79456  0.38554  0.84130  1.0000
  H   H3794     1.0  0.79968  0.38392  0.89616  1.0000
  H   H3795     1.0  0.77973  0.36015  0.86055  1.0000
  H   H3796     1.0  0.76846  0.33589  0.85472  1.0000
  H   H3797     1.0  0.78789  0.30471  0.85522  1.0000
  H   H3798     1.0  0.81911  0.29823  0.86148  1.0000
  H   H3799     1.0  0.83099  0.32276  0.86690  1.0000
  H   H3800     1.0  0.79504  0.35050  0.90473  1.0000
  H   H3801     1.0  0.80424  0.33711  0.93450  1.0000
  H   H3802     1.0  0.83694  0.32924  0.93626  1.0000
  H   H3803     1.0  0.86063  0.33486  0.90805  1.0000
  H   H3804     1.0  0.85173  0.34903  0.87844  1.0000
  H   H3805     1.0  0.83927  0.34495  0.83657  1.0000
  H   H3806     1.0  0.86749  0.35222  0.81547  1.0000
  H   H3807     1.0  0.87927  0.37881  0.81682  1.0000
  H   H3808     1.0  0.86286  0.39793  0.83961  1.0000
  H   H3809     1.0  0.83498  0.39041  0.86140  1.0000
  H   H3810     1.0  0.85427  0.46804  0.97166  1.0000
  H   H3811     1.0  0.73329  0.43987  0.76741  1.0000
  C   C4780     1.0  0.68863  0.43539  0.78088  1.0000
  C   C4781     1.0  0.84153  0.36082  0.76417  1.0000
  C   C4782     1.0  0.85414  0.46783  0.76987  1.0000
  H   H3812     1.0  0.79064  0.44894  0.91861  1.0000
  C   C4783     1.0  0.95185  0.42473  0.94175  1.0000
  C   C4784     1.0  0.79622  0.46560  0.80267  1.0000
  C   C4785     1.0  0.78698  0.35648  0.74480  1.0000
  C   C4786     1.0  0.89966  0.45459  0.90835  1.0000
  C   C4787     1.0  0.80949  0.33156  0.76711  1.0000
  C   C4788     1.0  0.71670  0.44411  0.94936  1.0000
  C   C4789     1.0  0.81373  0.47655  0.89511  1.0000
  H   H3813     1.0  0.81409  0.38527  0.79572  1.0000
  S   S642      1.0  0.78731  0.36969  0.95209  1.0000
  C   C4790     1.0  0.80850  0.46429  0.78589  1.0000
  H   H3814     1.0  0.70961  0.43791  0.94286  1.0000
  C   C4791     1.0  0.66187  0.21715  0.84380  1.0000
  C   C4792     1.0  0.97989  0.43557  0.93632  1.0000
  H   H3815     1.0  0.81790  0.32201  0.77607  1.0000
  H   H3816     1.0  0.77944  0.45148  0.82609  1.0000
  C   C4793     1.0  0.67905  0.41432  0.80878  1.0000
  C   C4794     1.0  0.74719  0.48387  0.83568  1.0000
  C   C4795     1.0  0.97325  0.42421  0.91275  1.0000
  H   H3817     1.0  0.81399  0.47505  0.94096  1.0000
  H   H3818     1.0  0.70379  0.27694  0.87758  1.0000
  H   H3819     1.0  0.73541  0.47426  0.81874  1.0000
  C   C4796     1.0  0.98070  0.37646  0.88688  1.0000
  H   H3820     1.0  0.66286  0.35487  0.74937  1.0000
  C   C4797     1.0  0.66546  0.28578  0.86034  1.0000
  H   H3821     1.0  0.97836  0.36663  0.86400  1.0000
  C   C4798     1.0  0.94601  0.47476  0.90267  1.0000
  C   C4799     1.0  0.80184  0.47684  0.95160  1.0000
  C   C4800     1.0  0.92905  0.37432  0.96453  1.0000
  C   C4801     1.0  0.66640  0.34083  0.83217  1.0000
  C   C4802     1.0  0.80544  0.35709  0.74163  1.0000
  H   H3822     1.0  0.82639  0.45662  0.97503  1.0000
  C   C4803     1.0  0.91100  0.37372  0.96511  1.0000
  H   H3823     1.0  0.97916  0.38811  0.90973  1.0000
  C   C4804     1.0  0.67949  0.38534  0.76235  1.0000
  H   H3824     1.0  0.76537  0.34309  0.76161  1.0000
  H   H3825     1.0  0.82466  0.47429  0.85059  1.0000
  C   C4805     1.0  0.67628  0.28391  0.89270  1.0000
  C   C4806     1.0  0.98691  0.47575  0.83985  1.0000
  C   C4807     1.0  0.67030  0.22316  0.73569  1.0000
  H   H3826     1.0  0.74400  0.46582  0.97079  1.0000
  P   P159      1.0  0.81722  0.48372  0.77093  1.0000
  C   C4808     1.0  0.98369  0.41417  0.82198  1.0000
  C   C4809     1.0  0.66730  0.37816  0.75693  1.0000
  H   H3827     1.0  0.69362  0.33618  0.75254  1.0000
  H   H3828     1.0  0.65670  0.21461  0.81857  1.0000
  H   H3829     1.0  0.88938  0.48444  0.77636  1.0000
  H   H3830     1.0  0.98889  0.44131  0.94095  1.0000
  H   H3831     1.0  0.81067  0.36749  0.73059  1.0000
  Fe  Fe321     1.0  0.83766  0.54700  0.11486  1.0000
  S   S643      1.0  0.86091  0.55586  0.09300  1.0000
  S   S644      1.0  0.83325  0.51880  0.12832  1.0000
  Fe  Fe322     1.0  0.81776  0.58537  0.11790  1.0000
  S   S645      1.0  0.83916  0.59782  0.09615  1.0000
  S   S646      1.0  0.79382  0.60215  0.13403  1.0000
  Fe  Fe323     1.0  0.83866  0.57665  0.08091  1.0000
  S   S647      1.0  0.83899  0.58363  0.05047  1.0000
  Fe  Fe324     1.0  0.85945  0.57596  0.11020  1.0000
  S   S648      1.0  0.88450  0.58253  0.11529  1.0000
  S   S649      1.0  0.81552  0.56617  0.10159  1.0000
  S   S650      1.0  0.83805  0.56523  0.13297  1.0000
  Fe  Fe325     1.0  0.92188  0.56702  0.20692  1.0000
  C   C4810     1.0  0.96078  0.60113  0.08494  1.0000
  S   S651      1.0  0.89699  0.56671  0.19658  1.0000
  Fe  Fe326     1.0  0.96012  0.57214  0.20645  1.0000
  C   C4811     1.0  0.65629  0.76890  0.22946  1.0000
  H   H3832     1.0  0.72339  0.51116  0.13873  1.0000
  C   C4812     1.0  0.79039  0.50017  0.06385  1.0000
  H   H3833     1.0  0.75463  0.68263  0.98697  1.0000
  H   H3834     1.0  0.96408  0.61797  0.05778  1.0000
  H   H3835     1.0  0.74364  0.51638  0.22096  1.0000
  S   S652      1.0  0.95005  0.54998  0.20009  1.0000
  S   S653      1.0  0.93199  0.59056  0.21061  1.0000
  Fe  Fe327     1.0  0.72005  0.56582  0.21005  1.0000
  C   C4813     1.0  0.80826  0.63367  0.00879  1.0000
  S   S654      1.0  0.73096  0.56066  0.18142  1.0000
  C   C4814     1.0  0.89597  0.52186  0.20998  1.0000
  C   C4815     1.0  0.76578  0.62478  0.19711  1.0000
  C   C4816     1.0  0.78555  0.51692  0.21611  1.0000
  C   C4817     1.0  0.77431  0.51734  0.13558  1.0000
  H   H3836     1.0  0.93402  0.61634  0.05304  1.0000
  C   C4818     1.0  0.94898  0.59593  0.13556  1.0000
  H   H3837     1.0  0.73491  0.67820  0.04490  1.0000
  C   C4819     1.0  0.76280  0.61048  0.06244  1.0000
  H   H3838     1.0  0.67527  0.54832  0.15945  1.0000
  C   C4820     1.0  0.67667  0.58415  0.18956  1.0000
  H   H3839     1.0  0.88328  0.56597  0.99441  1.0000
  H   H3840     1.0  0.75261  0.63397  0.19755  1.0000
  H   H3841     1.0  0.76179  0.56214  0.02917  1.0000
  C   C4821     1.0  0.97903  0.52581  0.16241  1.0000
  C   C4822     1.0  0.68925  0.52940  0.17969  1.0000
  H   H3842     1.0  0.74711  0.52477  0.15079  1.0000
  C   C4823     1.0  0.94014  0.55522  0.14981  1.0000
  H   H3843     1.0  0.95690  0.60236  0.17473  1.0000
  H   H3844     1.0  0.82260  0.49382  0.16459  1.0000
  H   H3845     1.0  0.98457  0.58301  0.22604  1.0000
  C   C4824     1.0  0.94345  0.54920  0.11975  1.0000
  H   H3846     1.0  0.79241  0.60379  0.99417  1.0000
  C   C4825     1.0  0.75683  0.49527  0.15597  1.0000
  H   H3847     1.0  0.96613  0.49255  0.18420  1.0000
  H   H3848     1.0  0.83744  0.51076  0.00446  1.0000
  H   H3849     1.0  0.78802  0.49299  0.17687  1.0000
  C   C4826     1.0  0.72251  0.50245  0.00026  1.0000
  H   H3850     1.0  0.97382  0.60221  0.08686  1.0000
  P   P160      1.0  0.95623  0.57985  0.12037  1.0000
  C   C4827     1.0  0.66582  0.71247  0.21794  1.0000
  C   C4828     1.0  0.80936  0.55269  0.02767  1.0000
  H   H3851     1.0  0.86809  0.52087  0.21150  1.0000
  C   C4829     1.0  0.81631  0.56781  0.01661  1.0000
  C   C4830     1.0  0.92828  0.53033  0.14655  1.0000
  C   C4831     1.0  0.93240  0.59028  0.09601  1.0000
  C   C4832     1.0  0.76431  0.60530  0.08082  1.0000
  H   H3852     1.0  0.85436  0.49767  0.15791  1.0000
  C   C4833     1.0  0.77642  0.59047  0.14707  1.0000
  C   C4834     1.0  0.76448  0.59711  0.16204  1.0000
  C   C4835     1.0  0.75075  0.58781  0.17292  1.0000
  C   C4836     1.0  0.74854  0.57213  0.16851  1.0000
  C   C4837     1.0  0.76028  0.56565  0.15338  1.0000
  C   C4838     1.0  0.77434  0.57465  0.14281  1.0000
  H   H3853     1.0  0.76601  0.60940  0.16527  1.0000
  H   H3854     1.0  0.74165  0.59298  0.18447  1.0000
  H   H3855     1.0  0.75853  0.55361  0.14987  1.0000
  H   H3856     1.0  0.78342  0.56946  0.13127  1.0000
  C   C4839     1.0  0.88783  0.57812  0.13799  1.0000
  C   C4840     1.0  0.90007  0.58653  0.14193  1.0000
  C   C4841     1.0  0.90319  0.58312  0.15979  1.0000
  C   C4842     1.0  0.89412  0.57115  0.17382  1.0000
  C   C4843     1.0  0.88170  0.56293  0.16995  1.0000
  C   C4844     1.0  0.87853  0.56641  0.15216  1.0000
  H   H3857     1.0  0.90676  0.59611  0.13124  1.0000
  H   H3858     1.0  0.91239  0.58989  0.16277  1.0000
  H   H3859     1.0  0.87453  0.55379  0.18075  1.0000
  H   H3860     1.0  0.86886  0.56005  0.14948  1.0000
  C   C4845     1.0  0.82735  0.57163  0.04206  1.0000
  C   C4846     1.0  0.82043  0.55647  0.05310  1.0000
  C   C4847     1.0  0.81148  0.54703  0.04591  1.0000
  H   H3861     1.0  0.82221  0.55183  0.06709  1.0000
  H   H3862     1.0  0.80636  0.53520  0.05448  1.0000
  C   C4848     1.0  0.74349  0.50401  0.21695  1.0000
  H   H3863     1.0  0.83060  0.58894  0.01525  1.0000
  C   C4849     1.0  0.96144  0.48872  0.19882  1.0000
  C   C4850     1.0  0.75825  0.51348  0.14768  1.0000
  H   H3864     1.0  0.86230  0.51850  0.09554  1.0000
  H   H3865     1.0  0.80908  0.60621  0.07546  1.0000
  H   H3866     1.0  0.68519  0.49486  0.22188  1.0000
  C   C4851     1.0  0.71684  0.50870  0.16810  1.0000
  H   H3867     1.0  0.78210  0.60014  0.09979  1.0000
  H   H3868     1.0  0.75263  0.60231  0.09145  1.0000
  C   C4852     1.0  0.87891  0.51786  0.21899  1.0000
  H   H3869     1.0  0.93207  0.52668  0.11903  1.0000
  C   C4853     1.0  0.88983  0.52463  0.12765  1.0000
  H   H3870     1.0  0.92099  0.51929  0.15262  1.0000
  C   C4854     1.0  0.93770  0.62081  0.15920  1.0000
  C   C4855     1.0  0.66990  0.73499  0.18305  1.0000
  C   C4856     1.0  0.85040  0.52920  0.01065  1.0000
  C   C4857     1.0  0.78756  0.49968  0.18775  1.0000
  C   C4858     1.0  0.75228  0.65385  0.03642  1.0000
  H   H3871     1.0  0.96661  0.58020  0.15444  1.0000
  H   H3872     1.0  0.67970  0.53435  0.19119  1.0000
  C   C4859     1.0  0.74030  0.48882  0.19440  1.0000
  C   C4860     1.0  0.89684  0.52304  0.10946  1.0000
  C   C4861     1.0  0.82436  0.63448  0.99550  1.0000
  H   H3873     1.0  0.73922  0.57435  0.00896  1.0000
  C   C4862     1.0  0.96181  0.49995  0.21034  1.0000
  H   H3874     1.0  0.91364  0.59877  0.07769  1.0000
  H   H3875     1.0  0.72989  0.52464  0.00710  1.0000
  C   C4863     1.0  0.79262  0.49358  0.08194  1.0000
  C   C4864     1.0  0.90119  0.50588  0.10479  1.0000
  C   C4865     1.0  0.79395  0.48953  0.20350  1.0000
  C   C4866     1.0  0.65954  0.61448  0.19295  1.0000
  C   C4867     1.0  0.86210  0.51901  0.03858  1.0000
  H   H3876     1.0  0.84711  0.53994  0.99914  1.0000
  H   H3877     1.0  0.66026  0.87336  0.17872  1.0000
  C   C4868     1.0  0.78171  0.63174  0.19007  1.0000
  C   C4869     1.0  0.95527  0.61017  0.06845  1.0000
  H   H3878     1.0  0.92628  0.53744  0.17232  1.0000
  C   C4870     1.0  0.91000  0.51793  0.21959  1.0000
  H   H3879     1.0  0.69708  0.53651  0.13329  1.0000
  H   H3880     1.0  0.81492  0.57212  0.00248  1.0000
  H   H3881     1.0  0.94429  0.49789  0.98146  1.0000
  C   C4871     1.0  0.74560  0.58360  0.01249  1.0000
  C   C4872     1.0  0.69668  0.65652  0.21621  1.0000
  H   H3882     1.0  0.88180  0.51059  0.15526  1.0000
  H   H3883     1.0  0.89865  0.53519  0.09895  1.0000
  H   H3884     1.0  0.92981  0.61512  0.11998  1.0000
  C   C4873     1.0  0.95093  0.60498  0.16282  1.0000
  C   C4874     1.0  0.76897  0.49594  0.01899  1.0000
  C   C4875     1.0  0.85787  0.50565  0.09942  1.0000
  C   C4876     1.0  0.68676  0.53718  0.16184  1.0000
  H   H3885     1.0  0.67180  0.74298  0.16922  1.0000
  H   H3886     1.0  0.87750  0.49412  0.07770  1.0000
  Fe  Fe328     1.0  0.79422  0.55067  0.98985  1.0000
  H   H3887     1.0  0.77533  0.52633  0.17394  1.0000
  H   H3888     1.0  0.92324  0.58279  0.10649  1.0000
  H   H3889     1.0  0.91985  0.63660  0.14096  1.0000
  H   H3890     1.0  0.80482  0.64191  0.01911  1.0000
  H   H3891     1.0  0.77834  0.51020  0.06085  1.0000
  H   H3892     1.0  0.78086  0.64633  0.18507  1.0000
  H   H3893     1.0  0.68930  0.57523  0.18449  1.0000
  C   C4877     1.0  0.70416  0.51518  0.18282  1.0000
  C   C4878     1.0  0.82526  0.57724  0.02381  1.0000
  C   C4879     1.0  0.75390  0.67457  0.00077  1.0000
  H   H3894     1.0  0.81092  0.62561  0.18391  1.0000
  C   C4880     1.0  0.79608  0.60759  0.07186  1.0000
  C   C4881     1.0  0.74868  0.50861  0.04425  1.0000
  H   H3895     1.0  0.78450  0.57954  0.20839  1.0000
  C   C4882     1.0  0.76215  0.51038  0.02829  1.0000
  H   H3896     1.0  0.77734  0.58290  0.03613  1.0000
  C   C4883     1.0  0.85699  0.50221  0.04149  1.0000
  C   C4884     1.0  0.78091  0.60403  0.08554  1.0000
  H   H3897     1.0  0.77542  0.53139  0.12925  1.0000
  H   H3898     1.0  0.82137  0.51525  0.22004  1.0000
  S   S655      1.0  0.79804  0.54056  0.01907  1.0000
  C   C4885     1.0  0.71398  0.51623  0.15023  1.0000
  H   H3899     1.0  0.80682  0.61482  0.04327  1.0000
  C   C4886     1.0  0.74229  0.49226  0.05113  1.0000
  H   H3900     1.0  0.74697  0.62871  0.00324  1.0000
  H   H3901     1.0  0.74980  0.61151  0.05901  1.0000
  H   H3902     1.0  0.93329  0.63029  0.16845  1.0000
  C   C4887     1.0  0.74137  0.50472  0.19937  1.0000
  H   H3903     1.0  0.89833  0.52811  0.19556  1.0000
  C   C4888     1.0  0.72796  0.51920  0.99627  1.0000
  H   H3904     1.0  0.71958  0.64016  0.20116  1.0000
  H   H3905     1.0  0.86199  0.54581  0.02139  1.0000
  P   P161      1.0  0.82211  0.58554  0.19455  1.0000
  C   C4889     1.0  0.80003  0.60090  0.19566  1.0000
  C   C4890     1.0  0.83794  0.59728  0.17688  1.0000
  C   C4891     1.0  0.83670  0.59997  0.15853  1.0000
  C   C4892     1.0  0.84827  0.60966  0.14463  1.0000
  C   C4893     1.0  0.86106  0.61689  0.14895  1.0000
  C   C4894     1.0  0.86218  0.61459  0.16721  1.0000
  C   C4895     1.0  0.85054  0.60499  0.18116  1.0000
  C   C4896     1.0  0.78394  0.59406  0.20304  1.0000
  C   C4897     1.0  0.91407  0.48541  0.18859  1.0000
  C   C4898     1.0  0.86646  0.49186  0.08932  1.0000
  C   C4899     1.0  0.66093  0.63038  0.22781  1.0000
  C   C4900     1.0  0.79878  0.61988  0.18938  1.0000
  C   C4901     1.0  0.82168  0.56502  0.18752  1.0000
  C   C4902     1.0  0.83489  0.54895  0.19104  1.0000
  C   C4903     1.0  0.83548  0.53359  0.18426  1.0000
  C   C4904     1.0  0.82277  0.53410  0.17408  1.0000
  C   C4905     1.0  0.80952  0.54993  0.17062  1.0000
  C   C4906     1.0  0.80909  0.56540  0.17710  1.0000
  C   C4907     1.0  0.98208  0.52142  0.14529  1.0000
  H   H3906     1.0  0.74004  0.51782  0.18985  1.0000
  C   C4908     1.0  0.88732  0.50903  0.14125  1.0000
  H   H3907     1.0  0.73204  0.60751  0.99600  1.0000
  H   H3908     1.0  0.80153  0.50624  0.12244  1.0000
  H   H3909     1.0  0.82666  0.59476  0.15490  1.0000
  H   H3910     1.0  0.84753  0.61126  0.13046  1.0000
  H   H3911     1.0  0.87033  0.62396  0.13810  1.0000
  H   H3912     1.0  0.87225  0.61999  0.17056  1.0000
  H   H3913     1.0  0.85147  0.60374  0.19518  1.0000
  C   C4909     1.0  0.67569  0.60300  0.18619  1.0000
  C   C4910     1.0  0.84398  0.50244  0.11480  1.0000
  C   C4911     1.0  0.93587  0.61205  0.13187  1.0000
  H   H3914     1.0  0.90622  0.50469  0.09062  1.0000
  H   H3915     1.0  0.83338  0.64302  0.99583  1.0000
  H   H3916     1.0  0.84508  0.54838  0.19852  1.0000
  H   H3917     1.0  0.84602  0.52142  0.18656  1.0000
  H   H3918     1.0  0.82347  0.52250  0.16833  1.0000
  H   H3919     1.0  0.80006  0.55049  0.16221  1.0000
  H   H3920     1.0  0.79935  0.57782  0.17333  1.0000
  H   H3921     1.0  0.68753  0.60866  0.17853  1.0000
  H   H3922     1.0  0.69199  0.66495  0.20408  1.0000
  H   H3923     1.0  0.70574  0.50935  0.19677  1.0000
  H   H3924     1.0  0.77310  0.54151  0.19922  1.0000
  P   P162      1.0  0.77525  0.62236  0.02507  1.0000
  C   C4912     1.0  0.81708  0.61346  0.98128  1.0000
  C   C4913     1.0  0.84658  0.57200  0.21836  1.0000
  H   H3925     1.0  0.76729  0.52295  0.02308  1.0000
  C   C4914     1.0  0.85876  0.53252  0.02318  1.0000
  H   H3926     1.0  0.88624  0.53803  0.13111  1.0000
  C   C4915     1.0  0.74279  0.67206  0.03339  1.0000
  C   C4916     1.0  0.82843  0.57996  0.21665  1.0000
  C   C4917     1.0  0.76707  0.58857  0.02779  1.0000
  C   C4918     1.0  0.95646  0.59250  0.15119  1.0000
  C   C4919     1.0  0.76261  0.64580  0.02160  1.0000
  H   H3927     1.0  0.65931  0.85784  0.21121  1.0000
  H   H3928     1.0  0.98112  0.54932  0.10518  1.0000
  C   C4920     1.0  0.76690  0.60596  0.20356  1.0000
  H   H3929     1.0  0.72020  0.49490  0.01422  1.0000
  C   C4921     1.0  0.78038  0.51846  0.18609  1.0000
  C   C4922     1.0  0.80422  0.49467  0.04947  1.0000
  C   C4923     1.0  0.94942  0.59099  0.09881  1.0000
  C   C4924     1.0  0.94605  0.55992  0.13075  1.0000
  C   C4925     1.0  0.69906  0.53053  0.14712  1.0000
  C   C4926     1.0  0.98085  0.57280  0.11577  1.0000
  H   H3930     1.0  0.96524  0.52956  0.16992  1.0000
  C   C4927     1.0  0.77788  0.61460  0.04863  1.0000
  C   C4928     1.0  0.78912  0.50312  0.13182  1.0000
  H   H3931     1.0  0.69878  0.72754  0.18282  1.0000
  C   C4929     1.0  0.93450  0.53456  0.12762  1.0000
  H   H3932     1.0  0.97060  0.52181  0.13950  1.0000
  H   H3933     1.0  0.73629  0.69655  0.01330  1.0000
  H   H3934     1.0  0.75457  0.60053  0.20901  1.0000
  C   C4930     1.0  0.93017  0.62435  0.14373  1.0000
  C   C4931     1.0  0.68526  0.72606  0.19064  1.0000
  H   H3935     1.0  0.74327  0.51994  0.05131  1.0000
  C   C4932     1.0  0.92690  0.59937  0.07958  1.0000
  C   C4933     1.0  0.79349  0.49816  0.21760  1.0000
  C   C4934     1.0  0.76289  0.60749  0.02073  1.0000
  C   C4935     1.0  0.84505  0.51251  0.01364  1.0000
  H   H3936     1.0  0.80273  0.50069  0.03549  1.0000
  C   C4936     1.0  0.77917  0.52703  0.20035  1.0000
  C   C4937     1.0  0.75015  0.61430  0.00926  1.0000
  C   C4938     1.0  0.74156  0.60236  0.00517  1.0000
  H   H3937     1.0  0.67467  0.62488  0.22123  1.0000
  H   H3938     1.0  0.94180  0.56307  0.15879  1.0000
  C   C4939     1.0  0.93126  0.54054  0.15764  1.0000
  H   H3939     1.0  0.94789  0.55242  0.10503  1.0000
  C   C4940     1.0  0.76340  0.65637  0.00374  1.0000
  H   H3940     1.0  0.96690  0.51240  0.20467  1.0000
  C   C4941     1.0  0.82875  0.62439  0.98174  1.0000
  C   C4942     1.0  0.87786  0.56303  0.98408  1.0000
  H   H3941     1.0  0.75158  0.64630  0.05036  1.0000
  H   H3942     1.0  0.85708  0.56937  0.20648  1.0000
  C   C4943     1.0  0.79671  0.62231  0.00873  1.0000
  C   C4944     1.0  0.79466  0.61269  0.05348  1.0000
  C   C4945     1.0  0.93834  0.60928  0.06577  1.0000
  C   C4946     1.0  0.74359  0.68241  0.01559  1.0000
  C   C4947     1.0  0.80118  0.61236  0.99476  1.0000
  C   C4948     1.0  0.75831  0.57673  0.02383  1.0000
  H   H3943     1.0  0.92319  0.52119  0.21266  1.0000
  H   H3944     1.0  0.86804  0.52178  0.04860  1.0000
  S   S656      1.0  0.98712  0.57851  0.18910  1.0000
  C   C4949     1.0  0.71226  0.64261  0.21456  1.0000
  C   C4950     1.0  0.68321  0.71488  0.20812  1.0000
  H   H3945     1.0  0.98583  0.59596  0.12357  1.0000
  C   C4951     1.0  0.83841  0.48573  0.11973  1.0000
  H   H3946     1.0  0.78217  0.49827  0.09304  1.0000
  H   H3947     1.0  0.77138  0.65053  0.99208  1.0000
  C   C4952     1.0  0.72029  0.49536  0.98619  1.0000
  H   H3948     1.0  0.85378  0.58439  0.98705  1.0000
  C   C4953     1.0  0.84850  0.49882  0.02901  1.0000
  H   H3949     1.0  0.66727  0.77140  0.20061  1.0000
  S   S657      1.0  0.77392  0.53978  0.98162  1.0000
  H   H3950     1.0  0.65882  0.62909  0.19054  1.0000
  H   H3951     1.0  0.69511  0.70778  0.21391  1.0000
  S   S658      1.0  0.71233  0.59234  0.21991  1.0000
  H   H3952     1.0  0.92548  0.49171  0.18724  1.0000
  H   H3953     1.0  0.73177  0.49121  0.06345  1.0000
  C   C4954     1.0  0.89875  0.49024  0.11834  1.0000
  S   S659      1.0  0.69485  0.55578  0.22670  1.0000
  H   H3954     1.0  0.78417  0.52378  0.22714  1.0000
  C   C4955     1.0  0.89191  0.49163  0.13674  1.0000
  P   P163      1.0  0.73624  0.49040  0.17201  1.0000
  C   C4956     1.0  0.66155  0.57676  0.19982  1.0000
  H   H3955     1.0  0.66073  0.65791  0.21198  1.0000
  H   H3956     1.0  0.91772  0.48756  0.15969  1.0000
  H   H3957     1.0  0.85909  0.49207  0.05380  1.0000
  H   H3958     1.0  0.66261  0.56211  0.20235  1.0000
  H   H3959     1.0  0.77929  0.49741  0.00648  1.0000
  C   C4957     1.0  0.65672  0.77714  0.21105  1.0000
  C   C4958     1.0  0.95601  0.49480  0.22926  1.0000
  C   C4959     1.0  0.74474  0.48748  0.22961  1.0000
  C   C4960     1.0  0.78805  0.48503  0.14048  1.0000
  H   H3960     1.0  0.73034  0.62091  0.22905  1.0000
  Fe  Fe329     1.0  0.96671  0.78379  0.43589  1.0000
  S   S660      1.0  0.94414  0.80499  0.44756  1.0000
  Fe  Fe330     1.0  0.94097  0.76905  0.42206  1.0000
  S   S661      1.0  0.91601  0.78858  0.43285  1.0000
  S   S662      1.0  0.94333  0.74711  0.40664  1.0000
  Fe  Fe331     1.0  0.93366  0.80964  0.42191  1.0000
  S   S663      1.0  0.92359  0.83881  0.40776  1.0000
  Fe  Fe332     1.0  0.92823  0.78267  0.45775  1.0000
  H   H3961     1.0  0.94545  0.61966  0.28550  1.0000
  S   S664      1.0  0.95800  0.79048  0.40906  1.0000
  S   S665      1.0  0.95144  0.76097  0.44810  1.0000
  Fe  Fe333     1.0  0.82344  0.89797  0.42917  1.0000
  S   S666      1.0  0.81622  0.91349  0.40222  1.0000
  S   S667      1.0  0.83941  0.86895  0.43578  1.0000
  Fe  Fe334     1.0  0.79566  0.92471  0.45060  1.0000
  S   S668      1.0  0.78569  0.94212  0.42569  1.0000
  H   H3962     1.0  0.68461  0.63431  0.30978  1.0000
  Fe  Fe335     1.0  0.78716  0.91578  0.41760  1.0000
  S   S669      1.0  0.76503  0.91270  0.40504  1.0000
  Fe  Fe336     1.0  0.81540  0.93875  0.41236  1.0000
  S   S670      1.0  0.79428  0.89868  0.44389  1.0000
  S   S671      1.0  0.82540  0.92299  0.43797  1.0000
  C   C4961     1.0  0.69589  0.64105  0.30287  1.0000
  S   S672      1.0  0.70353  0.56671  0.26163  1.0000
  C   C4962     1.0  0.66424  0.74797  0.35614  1.0000
  C   C4963     1.0  0.72320  0.76139  0.36289  1.0000
  Fe  Fe337     1.0  0.81563  0.60306  0.30797  1.0000
  S   S673      1.0  0.79258  0.62575  0.31596  1.0000
  S   S674      1.0  0.83134  0.60549  0.27887  1.0000
  Fe  Fe338     1.0  0.80711  0.57733  0.34443  1.0000
  S   S675      1.0  0.78340  0.59824  0.35572  1.0000
  S   S676      1.0  0.81472  0.54821  0.36036  1.0000
  Fe  Fe339     1.0  0.77617  0.60393  0.32809  1.0000
  S   S677      1.0  0.74785  0.60577  0.32389  1.0000
  Fe  Fe340     1.0  0.80181  0.61855  0.34287  1.0000
  S   S678      1.0  0.80104  0.64438  0.35274  1.0000
  S   S679      1.0  0.79837  0.58189  0.31789  1.0000
  S   S680      1.0  0.82624  0.59715  0.33380  1.0000
  Fe  Fe341     1.0  0.85624  0.72372  0.39601  1.0000
  S   S681      1.0  0.83471  0.74308  0.41084  1.0000
  S   S682      1.0  0.88068  0.73277  0.37623  1.0000
  Fe  Fe342     1.0  0.83558  0.69249  0.41111  1.0000
  S   S683      1.0  0.81248  0.70935  0.42817  1.0000
  S   S684      1.0  0.83666  0.66288  0.41019  1.0000
  Fe  Fe343     1.0  0.81472  0.73161  0.40301  1.0000
  S   S685      1.0  0.79171  0.75069  0.39060  1.0000
  Fe  Fe344     1.0  0.83433  0.71946  0.43489  1.0000
  S   S686      1.0  0.83562  0.72905  0.45980  1.0000
  S   S687      1.0  0.83640  0.71431  0.38563  1.0000
  S   S688      1.0  0.85738  0.70055  0.42032  1.0000
  Fe  Fe345     1.0  0.71635  0.82887  0.43114  1.0000
  S   S689      1.0  0.70791  0.80897  0.45677  1.0000
  S   S690      1.0  0.74333  0.83495  0.43137  1.0000
  Fe  Fe346     1.0  0.68476  0.82655  0.41507  1.0000
  S   S691      1.0  0.67398  0.80664  0.43987  1.0000
  C   C4964     1.0  0.90897  0.72815  0.46225  1.0000
  Fe  Fe347     1.0  0.67958  0.82464  0.45580  1.0000
  H   H3963     1.0  0.73944  0.72075  0.41688  1.0000
  Fe  Fe348     1.0  0.70340  0.79287  0.43870  1.0000
  S   S692      1.0  0.71429  0.76241  0.44322  1.0000
  S   S693      1.0  0.68801  0.84596  0.43114  1.0000
  S   S694      1.0  0.71393  0.81147  0.41304  1.0000
  C   C4965     1.0  0.76988  0.75208  0.40487  1.0000
  C   C4966     1.0  0.75512  0.76446  0.39840  1.0000
  C   C4967     1.0  0.73784  0.76709  0.40993  1.0000
  C   C4968     1.0  0.73532  0.75761  0.42813  1.0000
  C   C4969     1.0  0.74988  0.74463  0.43443  1.0000
  C   C4970     1.0  0.76714  0.74185  0.42279  1.0000
  H   H3964     1.0  0.75719  0.77237  0.38457  1.0000
  H   H3965     1.0  0.72648  0.77651  0.40474  1.0000
  H   H3966     1.0  0.74799  0.73727  0.44850  1.0000
  H   H3967     1.0  0.77841  0.73237  0.42798  1.0000
  C   C4971     1.0  0.98041  0.84714  0.45262  1.0000
  H   H3968     1.0  0.79527  0.76177  0.47271  1.0000
  H   H3969     1.0  0.88378  0.90321  0.41657  1.0000
  H   H3970     1.0  0.93585  0.65023  0.29388  1.0000
  H   H3971     1.0  0.89450  0.64829  0.43091  1.0000
  C   C4972     1.0  0.81163  0.64875  0.36862  1.0000
  C   C4973     1.0  0.81278  0.66689  0.36754  1.0000
  C   C4974     1.0  0.82075  0.67125  0.37993  1.0000
  C   C4975     1.0  0.82730  0.65760  0.39386  1.0000
  C   C4976     1.0  0.82615  0.63941  0.39501  1.0000
  C   C4977     1.0  0.81832  0.63499  0.38247  1.0000
  H   H3972     1.0  0.80757  0.67767  0.35697  1.0000
  H   H3973     1.0  0.82185  0.68519  0.37866  1.0000
  H   H3974     1.0  0.83116  0.62871  0.40575  1.0000
  H   H3975     1.0  0.81714  0.62105  0.38373  1.0000
  C   C4978     1.0  0.74858  0.59279  0.26892  1.0000
  C   C4979     1.0  0.73256  0.59372  0.28238  1.0000
  C   C4980     1.0  0.73231  0.59803  0.29912  1.0000
  C   C4981     1.0  0.74810  0.60118  0.30254  1.0000
  C   C4982     1.0  0.76395  0.60066  0.28886  1.0000
  C   C4983     1.0  0.76413  0.59661  0.27209  1.0000
  H   H3976     1.0  0.72041  0.59120  0.27985  1.0000
  H   H3977     1.0  0.71993  0.59875  0.30951  1.0000
  H   H3978     1.0  0.77607  0.60354  0.29109  1.0000
  H   H3979     1.0  0.77646  0.59625  0.26160  1.0000
  C   C4984     1.0  0.93400  0.78279  0.36566  1.0000
  C   C4985     1.0  0.88658  0.92561  0.42701  1.0000
  C   C4986     1.0  0.93362  0.88108  0.40870  1.0000
  C   C4987     1.0  0.91561  0.94719  0.41306  1.0000
  H   H3980     1.0  0.87986  0.53645  0.26124  1.0000
  C   C4988     1.0  0.76907  0.77577  0.46559  1.0000
  C   C4989     1.0  0.87105  0.65739  0.35798  1.0000
  H   H3981     1.0  0.94809  0.86776  0.38630  1.0000
  C   C4990     1.0  0.66054  0.60422  0.28727  1.0000
  C   C4991     1.0  0.91776  0.49556  0.28164  1.0000
  C   C4992     1.0  0.76981  0.53705  0.37107  1.0000
  C   C4993     1.0  0.81533  0.58380  0.23230  1.0000
  C   C4994     1.0  0.75747  0.55348  0.34427  1.0000
  H   H3982     1.0  0.70713  0.81167  0.36952  1.0000
  Fe  Fe349     1.0  0.71150  0.54243  0.24809  1.0000
  C   C4995     1.0  0.86394  0.80947  0.32772  1.0000
  C   C4996     1.0  0.80900  0.50346  0.33395  1.0000
  C   C4997     1.0  0.81129  0.52073  0.32342  1.0000
  C   C4998     1.0  0.81389  0.53405  0.33131  1.0000
  C   C4999     1.0  0.81375  0.53055  0.34997  1.0000
  C   C5000     1.0  0.81235  0.51294  0.36046  1.0000
  C   C5001     1.0  0.66019  0.78307  0.33414  1.0000
  H   H3983     1.0  0.81092  0.52397  0.30905  1.0000
  H   H3984     1.0  0.81625  0.54695  0.32280  1.0000
  H   H3985     1.0  0.81252  0.50999  0.37488  1.0000
  C   C5002     1.0  0.67741  0.95325  0.26912  1.0000
  C   C5003     1.0  0.75883  0.89119  0.41216  1.0000
  C   C5004     1.0  0.76908  0.87667  0.42263  1.0000
  C   C5005     1.0  0.76388  0.85968  0.42861  1.0000
  C   C5006     1.0  0.74848  0.85694  0.42415  1.0000
  C   C5007     1.0  0.73805  0.87147  0.41378  1.0000
  C   C5008     1.0  0.74335  0.88855  0.40762  1.0000
  H   H3986     1.0  0.78115  0.87841  0.42599  1.0000
  H   H3987     1.0  0.77179  0.84868  0.43689  1.0000
  H   H3988     1.0  0.72609  0.86947  0.41034  1.0000
  H   H3989     1.0  0.73532  0.89978  0.39956  1.0000
  C   C5009     1.0  0.70756  0.72488  0.35805  1.0000
  C   C5010     1.0  0.87968  0.91017  0.42793  1.0000
  H   H3990     1.0  0.94178  0.89575  0.36251  1.0000
  C   C5011     1.0  0.92509  0.74449  0.39844  1.0000
  C   C5012     1.0  0.92943  0.73550  0.38384  1.0000
  C   C5013     1.0  0.91563  0.73250  0.37697  1.0000
  C   C5014     1.0  0.89729  0.73756  0.38524  1.0000
  C   C5015     1.0  0.89275  0.74656  0.39997  1.0000
  C   C5016     1.0  0.90669  0.75039  0.40632  1.0000
  H   H3991     1.0  0.94359  0.73092  0.37769  1.0000
  H   H3992     1.0  0.91923  0.72570  0.36552  1.0000
  H   H3993     1.0  0.87858  0.75073  0.40631  1.0000
  H   H3994     1.0  0.90330  0.75748  0.41752  1.0000
  C   C5017     1.0  0.89998  0.84720  0.41463  1.0000
  C   C5018     1.0  0.88926  0.83632  0.42815  1.0000
  C   C5019     1.0  0.87058  0.84301  0.43383  1.0000
  C   C5020     1.0  0.86251  0.86093  0.42657  1.0000
  C   C5021     1.0  0.87308  0.87194  0.41291  1.0000
  C   C5022     1.0  0.89182  0.86502  0.40687  1.0000
  H   H3995     1.0  0.89543  0.82292  0.43473  1.0000
  H   H3996     1.0  0.86253  0.83449  0.44451  1.0000
  H   H3997     1.0  0.86682  0.88570  0.40705  1.0000
  H   H3998     1.0  0.90003  0.87352  0.39635  1.0000
  H   H3999     1.0  0.92289  0.92436  0.37134  1.0000
  H   H4000     1.0  0.79817  0.96353  0.45729  1.0000
  H   H4001     1.0  0.91796  0.50737  0.24544  1.0000
  H   H4002     1.0  0.86879  0.97363  0.34795  1.0000
  C   C5023     1.0  0.92309  0.89727  0.41385  1.0000
  C   C5024     1.0  0.86419  0.59550  0.29009  1.0000
  C   C5025     1.0  0.85528  0.59965  0.27546  1.0000
  H   H4003     1.0  0.85638  0.59561  0.30381  1.0000
  C   C5026     1.0  0.88992  0.50595  0.24742  1.0000
  C   C5027     1.0  0.76749  0.63871  0.39400  1.0000
  C   C5028     1.0  0.76682  0.62422  0.40913  1.0000
  C   C5029     1.0  0.76390  0.62758  0.42670  1.0000
  C   C5030     1.0  0.76165  0.64544  0.42912  1.0000
  C   C5031     1.0  0.76239  0.66012  0.41396  1.0000
  C   C5032     1.0  0.76542  0.65658  0.39633  1.0000
  P   P164      1.0  0.75961  0.68309  0.41742  1.0000
  C   C5033     1.0  0.73592  0.69261  0.42584  1.0000
  C   C5034     1.0  0.77283  0.68183  0.43407  1.0000
  C   C5035     1.0  0.76622  0.69264  0.44745  1.0000
  H   H4004     1.0  0.92109  0.72159  0.46782  1.0000
  H   H4005     1.0  0.74750  0.84804  0.46972  1.0000
  C   C5036     1.0  0.79931  0.66730  0.44783  1.0000
  C   C5037     1.0  0.78959  0.66934  0.43422  1.0000
  C   C5038     1.0  0.72344  0.68125  0.43517  1.0000
  C   C5039     1.0  0.87644  0.94185  0.38631  1.0000
  H   H4006     1.0  0.67450  0.66979  0.23443  1.0000
  C   C5040     1.0  0.69812  0.57554  0.33946  1.0000
  H   H4007     1.0  0.66372  0.59119  0.28308  1.0000
  C   C5041     1.0  0.76721  0.69792  0.39606  1.0000
  C   C5042     1.0  0.78404  0.70324  0.39220  1.0000
  C   C5043     1.0  0.78972  0.71447  0.37539  1.0000
  C   C5044     1.0  0.77866  0.72056  0.36242  1.0000
  C   C5045     1.0  0.76185  0.71539  0.36620  1.0000
  C   C5046     1.0  0.75611  0.70420  0.38299  1.0000
  H   H4008     1.0  0.77006  0.63603  0.38036  1.0000
  H   H4009     1.0  0.76882  0.61037  0.40715  1.0000
  H   H4010     1.0  0.76359  0.61630  0.43841  1.0000
  H   H4011     1.0  0.75956  0.64780  0.44281  1.0000
  H   H4012     1.0  0.76669  0.66736  0.38426  1.0000
  H   H4013     1.0  0.75352  0.70261  0.44755  1.0000
  H   H4014     1.0  0.66406  0.91122  0.24397  1.0000
  C   C5047     1.0  0.93230  0.62334  0.29433  1.0000
  H   H4015     1.0  0.81235  0.65776  0.44767  1.0000
  H   H4016     1.0  0.79522  0.66117  0.42379  1.0000
  H   H4017     1.0  0.72758  0.66652  0.43701  1.0000
  C   C5048     1.0  0.85157  0.56814  0.23531  1.0000
  H   H4018     1.0  0.76674  0.50252  0.31660  1.0000
  H   H4019     1.0  0.91790  0.89732  0.42827  1.0000
  H   H4020     1.0  0.68583  0.71386  0.44648  1.0000
  H   H4021     1.0  0.79287  0.69871  0.40203  1.0000
  H   H4022     1.0  0.80267  0.71864  0.37247  1.0000
  H   H4023     1.0  0.78318  0.72930  0.34947  1.0000
  H   H4024     1.0  0.75334  0.71993  0.35608  1.0000
  H   H4025     1.0  0.74310  0.70024  0.38576  1.0000
  H   H4026     1.0  0.85962  0.81911  0.31594  1.0000
  C   C5049     1.0  0.86524  0.79074  0.32933  1.0000
  P   P165      1.0  0.87495  0.63922  0.32962  1.0000
  C   C5050     1.0  0.77604  0.69064  0.46099  1.0000
  C   C5051     1.0  0.72284  0.55481  0.32364  1.0000
  H   H4027     1.0  0.81622  0.50662  0.28683  1.0000
  C   C5052     1.0  0.91154  0.84734  0.46085  1.0000
  C   C5053     1.0  0.90960  0.64547  0.30995  1.0000
  H   H4028     1.0  0.68968  0.57457  0.29874  1.0000
  C   C5054     1.0  0.88474  0.59519  0.25455  1.0000
  C   C5055     1.0  0.94031  0.88051  0.39021  1.0000
  C   C5056     1.0  0.80247  0.97636  0.45073  1.0000
  P   P166      1.0  0.68023  0.65170  0.27186  1.0000
  C   C5057     1.0  0.87027  0.68984  0.35329  1.0000
  C   C5058     1.0  0.86294  0.63855  0.29847  1.0000
  H   H4029     1.0  0.86735  0.56055  0.27922  1.0000
  C   C5059     1.0  0.85386  0.61447  0.35265  1.0000
  P   P167      1.0  0.74390  0.53768  0.32326  1.0000
  H   H4030     1.0  0.90569  0.65891  0.31322  1.0000
  C   C5060     1.0  0.75894  0.52080  0.35435  1.0000
  P   P168      1.0  0.68786  0.75393  0.37491  1.0000
  C   C5061     1.0  0.76663  0.52078  0.36889  1.0000
  C   C5062     1.0  0.82006  0.51332  0.23465  1.0000
  H   H4031     1.0  0.80432  0.48623  0.27519  1.0000
  C   C5063     1.0  0.83974  0.79893  0.47702  1.0000
  H   H4032     1.0  0.69486  0.51738  0.23334  1.0000
  C   C5064     1.0  0.90412  0.68567  0.43954  1.0000
  H   H4033     1.0  0.83300  0.53579  0.23219  1.0000
  S   S695      1.0  0.91814  0.55362  0.23674  1.0000
  H   H4034     1.0  0.68134  0.68735  0.27898  1.0000
  H   H4035     1.0  0.80125  0.59009  0.23157  1.0000
  C   C5065     1.0  0.81046  0.49701  0.26556  1.0000
  C   C5066     1.0  0.90652  0.69613  0.42165  1.0000
  C   C5067     1.0  0.90445  0.68942  0.40726  1.0000
  C   C5068     1.0  0.90003  0.67223  0.41061  1.0000
  C   C5069     1.0  0.89794  0.66161  0.42833  1.0000
  H   H4036     1.0  0.87288  0.95676  0.47829  1.0000
  C   C5070     1.0  0.71821  0.63168  0.23023  1.0000
  H   H4037     1.0  0.89892  0.65961  0.45630  1.0000
  C   C5071     1.0  0.66072  0.88574  0.26248  1.0000
  H   H4038     1.0  0.91005  0.70943  0.41878  1.0000
  H   H4039     1.0  0.90602  0.69765  0.39351  1.0000
  H   H4040     1.0  0.89810  0.66724  0.39948  1.0000
  H   H4041     1.0  0.66630  0.75669  0.23326  1.0000
  H   H4042     1.0  0.74587  0.79072  0.45336  1.0000
  H   H4043     1.0  0.75697  0.50795  0.35280  1.0000
  C   C5072     1.0  0.66621  0.94328  0.26584  1.0000
  C   C5073     1.0  0.69255  0.64817  0.24935  1.0000
  C   C5074     1.0  0.72605  0.65720  0.28540  1.0000
  C   C5075     1.0  0.90698  0.51005  0.23826  1.0000
  C   C5076     1.0  0.71231  0.65879  0.27601  1.0000
  C   C5077     1.0  0.67412  0.75601  0.39734  1.0000
  H   H4044     1.0  0.73424  0.88852  0.44536  1.0000
  H   H4045     1.0  0.66418  0.70346  0.23127  1.0000
  C   C5078     1.0  0.88573  0.75528  0.45617  1.0000
  H   H4046     1.0  0.77644  0.53693  0.38189  1.0000
  C   C5079     1.0  0.94070  0.95008  0.42503  1.0000
  H   H4047     1.0  0.74730  0.91820  0.47862  1.0000
  H   H4048     1.0  0.66543  0.73438  0.36469  1.0000
  H   H4049     1.0  0.86576  0.56263  0.23631  1.0000
  C   C5080     1.0  0.93226  0.68796  0.45619  1.0000
  C   C5081     1.0  0.75265  0.50089  0.32105  1.0000
  C   C5082     1.0  0.70840  0.63438  0.24755  1.0000
  H   H4050     1.0  0.69539  0.76221  0.40707  1.0000
  P   P169      1.0  0.90787  0.69387  0.45787  1.0000
  C   C5083     1.0  0.67117  0.76095  0.42791  1.0000
  H   H4051     1.0  0.94299  0.49564  0.28845  1.0000
  H   H4052     1.0  0.85876  0.60261  0.24633  1.0000
  C   C5084     1.0  0.66877  0.68867  0.27463  1.0000
  H   H4053     1.0  0.89263  0.59515  0.24078  1.0000
  C   C5085     1.0  0.85762  0.97991  0.41547  1.0000
  C   C5086     1.0  0.67131  0.97198  0.26893  1.0000
  H   H4054     1.0  0.67623  0.58961  0.32526  1.0000
  C   C5087     1.0  0.71652  0.49611  0.33271  1.0000
  C   C5088     1.0  0.86818  0.95163  0.37160  1.0000
  H   H4055     1.0  0.93617  0.86876  0.41899  1.0000
  C   C5089     1.0  0.89243  0.94589  0.38833  1.0000
  C   C5090     1.0  0.91733  0.97676  0.41753  1.0000
  H   H4056     1.0  0.67212  0.87771  0.25457  1.0000
  C   C5091     1.0  0.75423  0.53721  0.34195  1.0000
  C   C5092     1.0  0.86710  0.97125  0.47546  1.0000
  H   H4057     1.0  0.70799  0.73492  0.34531  1.0000
  C   C5093     1.0  0.92070  0.61086  0.30088  1.0000
  H   H4058     1.0  0.65829  0.79680  0.32588  1.0000
  H   H4059     1.0  0.77225  0.50561  0.26219  1.0000
  H   H4060     1.0  0.95109  0.87590  0.47109  1.0000
  C   C5094     1.0  0.87436  0.53260  0.27572  1.0000
  H   H4061     1.0  0.72117  0.55959  0.35061  1.0000
  H   H4062     1.0  0.84235  0.57000  0.26373  1.0000
  C   C5095     1.0  0.72472  0.64758  0.30349  1.0000
  P   P170      1.0  0.88550  0.49614  0.27162  1.0000
  H   H4063     1.0  0.75413  0.56626  0.33475  1.0000
  C   C5096     1.0  0.67122  0.77829  0.34713  1.0000
  P   P171      1.0  0.90331  0.93319  0.40723  1.0000
  H   H4064     1.0  0.68004  0.97972  0.27133  1.0000
  C   C5097     1.0  0.69899  0.78640  0.37172  1.0000
  H   H4065     1.0  0.87003  0.93146  0.39618  1.0000
  C   C5098     1.0  0.76525  0.55337  0.35874  1.0000
  C   C5099     1.0  0.83582  0.97731  0.39904  1.0000
  C   C5100     1.0  0.70458  0.76825  0.36920  1.0000
  C   C5101     1.0  0.97031  0.67892  0.45293  1.0000
  H   H4066     1.0  0.92415  0.85024  0.45182  1.0000
  H   H4067     1.0  0.89439  0.86866  0.44514  1.0000
  H   H4068     1.0  0.77070  0.50802  0.37811  1.0000
  C   C5102     1.0  0.86723  0.54639  0.28587  1.0000
  C   C5103     1.0  0.93349  0.96882  0.42394  1.0000
  C   C5104     1.0  0.90839  0.96599  0.41221  1.0000
  S   S696      1.0  0.65917  0.59500  0.24700  1.0000
  H   H4069     1.0  0.86441  0.93449  0.46900  1.0000
  C   C5105     1.0  0.73239  0.89209  0.45844  1.0000
  C   C5106     1.0  0.88095  0.93442  0.44193  1.0000
  H   H4070     1.0  0.73993  0.79959  0.35756  1.0000
  C   C5107     1.0  0.83207  0.65152  0.29378  1.0000
  C   C5108     1.0  0.84973  0.64205  0.28790  1.0000
  H   H4071     1.0  0.70778  0.73392  0.43003  1.0000
  C   C5109     1.0  0.86511  0.58884  0.37539  1.0000
  C   C5110     1.0  0.85109  0.59901  0.36635  1.0000
  H   H4072     1.0  0.94142  0.76968  0.36239  1.0000
  H   H4073     1.0  0.82171  0.65357  0.28588  1.0000
  C   C5111     1.0  0.74222  0.90411  0.46040  1.0000
  H   H4074     1.0  0.87137  0.70499  0.32559  1.0000
  H   H4075     1.0  0.87315  0.67798  0.31302  1.0000
  C   C5112     1.0  0.85860  0.64478  0.31496  1.0000
  H   H4076     1.0  0.86288  0.57686  0.38596  1.0000
  H   H4077     1.0  0.83801  0.59491  0.36995  1.0000
  H   H4078     1.0  0.83054  0.53146  0.26559  1.0000
  C   C5113     1.0  0.86834  0.81576  0.34119  1.0000
  C   C5114     1.0  0.87409  0.80333  0.35644  1.0000
  C   C5115     1.0  0.87494  0.78456  0.35809  1.0000
  P   P172      1.0  0.88075  0.81112  0.37357  1.0000
  C   C5116     1.0  0.90526  0.80444  0.37187  1.0000
  C   C5117     1.0  0.87441  0.83585  0.37056  1.0000
  C   C5118     1.0  0.88366  0.84692  0.35548  1.0000
  C   C5119     1.0  0.87915  0.86601  0.35331  1.0000
  C   C5120     1.0  0.86541  0.87419  0.36620  1.0000
  C   C5121     1.0  0.85618  0.86330  0.38125  1.0000
  C   C5122     1.0  0.86078  0.84423  0.38353  1.0000
  C   C5123     1.0  0.91472  0.81583  0.37576  1.0000
  C   C5124     1.0  0.93367  0.81092  0.37415  1.0000
  C   C5125     1.0  0.94331  0.79441  0.36911  1.0000
  C   C5126     1.0  0.91508  0.78773  0.36704  1.0000
  C   C5127     1.0  0.86979  0.80138  0.39630  1.0000
  C   C5128     1.0  0.85469  0.79331  0.39912  1.0000
  C   C5129     1.0  0.84554  0.78700  0.41684  1.0000
  C   C5130     1.0  0.85113  0.78907  0.43184  1.0000
  C   C5131     1.0  0.86589  0.79746  0.42918  1.0000
  C   C5132     1.0  0.87535  0.80336  0.41148  1.0000
  H   H4079     1.0  0.86722  0.83030  0.33955  1.0000
  H   H4080     1.0  0.87887  0.77466  0.36990  1.0000
  H   H4081     1.0  0.89454  0.84073  0.34555  1.0000
  H   H4082     1.0  0.88649  0.87445  0.34178  1.0000
  H   H4083     1.0  0.86203  0.88896  0.36469  1.0000
  H   H4084     1.0  0.84573  0.86962  0.39145  1.0000
  H   H4085     1.0  0.85390  0.83613  0.39565  1.0000
  H   H4086     1.0  0.90756  0.82843  0.38030  1.0000
  H   H4087     1.0  0.94084  0.81974  0.37727  1.0000
  H   H4088     1.0  0.95793  0.79035  0.36837  1.0000
  H   H4089     1.0  0.84990  0.79190  0.38773  1.0000
  H   H4090     1.0  0.83407  0.78052  0.41897  1.0000
  H   H4091     1.0  0.84413  0.78388  0.44548  1.0000
  H   H4092     1.0  0.87011  0.79940  0.44078  1.0000
  H   H4093     1.0  0.88676  0.80983  0.40959  1.0000
  C   C5133     1.0  0.86107  0.52361  0.31345  1.0000
  C   C5134     1.0  0.86025  0.54195  0.30464  1.0000
  C   C5135     1.0  0.82043  0.58015  0.24918  1.0000
  H   H4094     1.0  0.85582  0.52019  0.32806  1.0000
  H   H4095     1.0  0.85446  0.55272  0.31242  1.0000
  H   H4096     1.0  0.86554  0.86115  0.46485  1.0000
  H   H4097     1.0  0.95869  0.83786  0.42375  1.0000
  C   C5136     1.0  0.70538  0.68889  0.44247  1.0000
  C   C5137     1.0  0.76872  0.78128  0.43328  1.0000
  C   C5138     1.0  0.78702  0.77233  0.42978  1.0000
  C   C5139     1.0  0.79639  0.76517  0.44411  1.0000
  C   C5140     1.0  0.78755  0.76702  0.46193  1.0000
  C   C5141     1.0  0.75618  0.83590  0.47603  1.0000
  H   H4098     1.0  0.87047  0.64438  0.36740  1.0000
  C   C5142     1.0  0.73856  0.51574  0.32518  1.0000
  H   H4099     1.0  0.88712  0.97718  0.45071  1.0000
  C   C5143     1.0  0.73002  0.71169  0.42381  1.0000
  H   H4100     1.0  0.88024  0.76953  0.45660  1.0000
  S   S697      1.0  0.67439  0.83535  0.38844  1.0000
  H   H4101     1.0  0.73993  0.81795  0.47430  1.0000
  H   H4102     1.0  0.72207  0.70239  0.34472  1.0000
  S   S698      1.0  0.71223  0.51321  0.26400  1.0000
  H   H4103     1.0  0.76140  0.78696  0.42218  1.0000
  H   H4104     1.0  0.79391  0.77096  0.41596  1.0000
  H   H4105     1.0  0.81055  0.75823  0.44147  1.0000
  H   H4106     1.0  0.89743  0.98051  0.35086  1.0000
  H   H4107     1.0  0.86996  0.49556  0.31062  1.0000
  C   C5144     1.0  0.91879  0.91300  0.40049  1.0000
  H   H4108     1.0  0.71371  0.66603  0.26188  1.0000
  C   C5145     1.0  0.87061  0.77832  0.34459  1.0000
  C   C5146     1.0  0.71479  0.56295  0.33894  1.0000
  S   S699      1.0  0.95871  0.55947  0.23615  1.0000
  C   C5147     1.0  0.83848  0.57225  0.25071  1.0000
  C   C5148     1.0  0.74495  0.85666  0.37448  1.0000
  C   C5149     1.0  0.73816  0.84089  0.37698  1.0000
  C   C5150     1.0  0.74951  0.82367  0.38057  1.0000
  C   C5151     1.0  0.76748  0.82219  0.38193  1.0000
  C   C5152     1.0  0.77453  0.83798  0.37933  1.0000
  C   C5153     1.0  0.76306  0.85527  0.37557  1.0000
  P   P173      1.0  0.79827  0.83544  0.38018  1.0000
  C   C5154     1.0  0.80118  0.82993  0.40360  1.0000
  C   C5155     1.0  0.80976  0.81659  0.36884  1.0000
  C   C5156     1.0  0.81617  0.79923  0.37893  1.0000
  C   C5157     1.0  0.82281  0.78416  0.37046  1.0000
  C   C5158     1.0  0.82287  0.78622  0.35196  1.0000
  C   C5159     1.0  0.81639  0.80341  0.34183  1.0000
  C   C5160     1.0  0.80970  0.81852  0.35026  1.0000
  C   C5161     1.0  0.81439  0.83647  0.40828  1.0000
  C   C5162     1.0  0.81668  0.83239  0.42635  1.0000
  C   C5163     1.0  0.80579  0.82174  0.43991  1.0000
  C   C5164     1.0  0.79273  0.81505  0.43540  1.0000
  C   C5165     1.0  0.79040  0.81914  0.41732  1.0000
  C   C5166     1.0  0.80695  0.85610  0.36904  1.0000
  C   C5167     1.0  0.79961  0.87197  0.37635  1.0000
  C   C5168     1.0  0.80664  0.88783  0.36865  1.0000
  C   C5169     1.0  0.82141  0.88789  0.35380  1.0000
  C   C5170     1.0  0.82926  0.87199  0.34679  1.0000
  C   C5171     1.0  0.82218  0.85609  0.35445  1.0000
  H   H4109     1.0  0.73607  0.87002  0.37200  1.0000
  H   H4110     1.0  0.72403  0.84200  0.37643  1.0000
  H   H4111     1.0  0.74431  0.81137  0.38270  1.0000
  H   H4112     1.0  0.77584  0.80864  0.38505  1.0000
  H   H4113     1.0  0.76778  0.86776  0.37356  1.0000
  H   H4114     1.0  0.81551  0.79710  0.39345  1.0000
  H   H4115     1.0  0.82741  0.77070  0.37833  1.0000
  H   H4116     1.0  0.82768  0.77437  0.34562  1.0000
  H   H4117     1.0  0.81612  0.80492  0.32756  1.0000
  H   H4118     1.0  0.80393  0.83159  0.34248  1.0000
  H   H4119     1.0  0.82263  0.84512  0.39810  1.0000
  H   H4120     1.0  0.82662  0.83789  0.42988  1.0000
  H   H4121     1.0  0.85306  0.63696  0.27535  1.0000
  H   H4122     1.0  0.78374  0.80749  0.44602  1.0000
  H   H4123     1.0  0.77975  0.81440  0.41427  1.0000
  H   H4124     1.0  0.78855  0.87203  0.38822  1.0000
  H   H4125     1.0  0.80062  0.90004  0.37436  1.0000
  H   H4126     1.0  0.82688  0.90020  0.34791  1.0000
  H   H4127     1.0  0.84099  0.87193  0.33554  1.0000
  H   H4128     1.0  0.82887  0.84383  0.34918  1.0000
  C   C5172     1.0  0.93422  0.48721  0.28736  1.0000
  C   C5173     1.0  0.81726  0.50856  0.27226  1.0000
  C   C5174     1.0  0.82536  0.52252  0.26026  1.0000
  H   H4129     1.0  0.67695  0.76426  0.43778  1.0000
  H   H4130     1.0  0.86839  0.67146  0.37960  1.0000
  H   H4131     1.0  0.86203  0.89178  0.44404  1.0000
  C   C5175     1.0  0.89774  0.63308  0.31636  1.0000
  H   H4132     1.0  0.89021  0.58830  0.29820  1.0000
  H   H4133     1.0  0.70544  0.68833  0.40318  1.0000
  H   H4134     1.0  0.81388  0.66492  0.31485  1.0000
  H   H4135     1.0  0.69584  0.68008  0.44981  1.0000
  C   C5176     1.0  0.68910  0.57981  0.32493  1.0000
  C   C5177     1.0  0.88334  0.59157  0.28689  1.0000
  C   C5178     1.0  0.71167  0.79767  0.36750  1.0000
  H   H4136     1.0  0.90835  0.77819  0.36465  1.0000
  H   H4137     1.0  0.97963  0.49030  0.30090  1.0000
  H   H4138     1.0  0.73799  0.66301  0.27855  1.0000
  H   H4139     1.0  0.91277  0.96271  0.37606  1.0000
  H   H4140     1.0  0.89282  0.58627  0.37778  1.0000
  H   H4141     1.0  0.87672  0.71939  0.44455  1.0000
  H   H4142     1.0  0.76811  0.56588  0.36017  1.0000
  C   C5179     1.0  0.88196  0.59413  0.37075  1.0000
  H   H4143     1.0  0.81898  0.93585  0.47034  1.0000
  H   H4144     1.0  0.87148  0.76377  0.34602  1.0000
  C   C5180     1.0  0.81148  0.49954  0.24670  1.0000
  H   H4145     1.0  0.94039  0.97722  0.42805  1.0000
  C   C5181     1.0  0.84663  0.96960  0.41219  1.0000
  H   H4146     1.0  0.87633  0.63077  0.29372  1.0000
  C   C5182     1.0  0.87494  0.51412  0.28440  1.0000
  C   C5183     1.0  0.88406  0.72695  0.44921  1.0000
  C   C5184     1.0  0.86559  0.59941  0.25770  1.0000
  H   H4147     1.0  0.79201  0.55363  0.25433  1.0000
  H   H4148     1.0  0.76499  0.54096  0.25658  1.0000
  C   C5185     1.0  0.75184  0.81876  0.47879  1.0000
  C   C5186     1.0  0.67116  0.61734  0.27824  1.0000
  C   C5187     1.0  0.69831  0.71697  0.39104  1.0000
  C   C5188     1.0  0.90032  0.71826  0.45533  1.0000
  H   H4149     1.0  0.89588  0.97246  0.40734  1.0000
  C   C5189     1.0  0.79249  0.67784  0.46129  1.0000
  C   C5190     1.0  0.73010  0.79086  0.36084  1.0000
  C   C5191     1.0  0.86880  0.50972  0.30346  1.0000
  C   C5192     1.0  0.87589  0.50993  0.23764  1.0000
  H   H4150     1.0  0.84272  0.62222  0.34599  1.0000
  C   C5193     1.0  0.69715  0.65065  0.28465  1.0000
  H   H4151     1.0  0.67768  0.78855  0.34857  1.0000
  C   C5194     1.0  0.96813  0.84036  0.44681  1.0000
  C   C5195     1.0  0.87134  0.69168  0.33460  1.0000
  C   C5196     1.0  0.87238  0.67637  0.32754  1.0000
  H   H4152     1.0  0.86196  0.78583  0.31886  1.0000
  H   H4153     1.0  0.97803  0.49379  0.26857  1.0000
  C   C5197     1.0  0.70963  0.63957  0.31223  1.0000
  C   C5198     1.0  0.82674  0.52492  0.24145  1.0000
  C   C5199     1.0  0.71204  0.71924  0.43126  1.0000
  C   C5200     1.0  0.87683  0.74544  0.44958  1.0000
  C   C5201     1.0  0.90020  0.66819  0.44273  1.0000
  H   H4154     1.0  0.86422  0.75191  0.44492  1.0000
  C   C5202     1.0  0.89169  0.96958  0.36065  1.0000
  C   C5203     1.0  0.82769  0.65792  0.31005  1.0000
  C   C5204     1.0  0.88482  0.60951  0.35697  1.0000
  H   H4155     1.0  0.90860  0.75419  0.46774  1.0000
  H   H4156     1.0  0.83711  0.65924  0.33339  1.0000
  H   H4157     1.0  0.69225  0.58198  0.35115  1.0000
  C   C5205     1.0  0.90358  0.61564  0.31197  1.0000
  H   H4158     1.0  0.75025  0.76728  0.35397  1.0000
  C   C5206     1.0  0.89364  0.59159  0.26911  1.0000
  H   H4159     1.0  0.81054  0.58406  0.26101  1.0000
  C   C5207     1.0  0.69971  0.70788  0.44060  1.0000
  H   H4160     1.0  0.97069  0.70363  0.43204  1.0000
  C   C5208     1.0  0.78322  0.55009  0.26752  1.0000
  C   C5209     1.0  0.76798  0.54294  0.26880  1.0000
  C   C5210     1.0  0.73588  0.77269  0.35866  1.0000
  S   S700      1.0  0.74979  0.58722  0.24781  1.0000
  H   H4161     1.0  0.84675  0.95564  0.41959  1.0000
  C   C5211     1.0  0.68679  0.65926  0.23353  1.0000
  C   C5212     1.0  0.86755  0.90351  0.44356  1.0000
  H   H4162     1.0  0.75190  0.90968  0.44876  1.0000
  C   C5213     1.0  0.75982  0.78314  0.45108  1.0000
  H   H4163     1.0  0.69158  0.72071  0.40405  1.0000
  C   C5214     1.0  0.67351  0.76061  0.35812  1.0000
  C   C5215     1.0  0.96230  0.69472  0.44184  1.0000
  Fe  Fe350     1.0  0.72767  0.57648  0.24215  1.0000
  C   C5216     1.0  0.87083  0.61971  0.34771  1.0000
  H   H4164     1.0  0.89797  0.61343  0.35350  1.0000
  H   H4165     1.0  0.88592  0.94640  0.44162  1.0000
  C   C5217     1.0  0.87562  0.96567  0.35894  1.0000
  C   C5218     1.0  0.96790  0.84350  0.42821  1.0000
  H   H4166     1.0  0.67126  0.92883  0.26595  1.0000
  S   S701      1.0  0.91757  0.58743  0.26523  1.0000
  C   C5219     1.0  0.93176  0.93926  0.41970  1.0000
  C   C5220     1.0  0.86877  0.92771  0.45754  1.0000
  H   H4167     1.0  0.93744  0.71138  0.43446  1.0000
  C   C5221     1.0  0.89475  0.85777  0.45717  1.0000
  C   C5222     1.0  0.78692  0.55294  0.28322  1.0000
  H   H4168     1.0  0.79876  0.55837  0.28238  1.0000
  H   H4169     1.0  0.68246  0.61413  0.26717  1.0000
  C   C5223     1.0  0.72048  0.51317  0.33127  1.0000
  C   C5224     1.0  0.75626  0.53893  0.28571  1.0000
  H   H4170     1.0  0.74468  0.53316  0.28639  1.0000
  S   S702      1.0  0.80455  0.48796  0.32313  1.0000
  S   S703      1.0  0.78180  0.92986  0.47879  1.0000
  H   H4171     1.0  0.86964  0.70168  0.35874  1.0000
  H   H4172     1.0  0.95894  0.83239  0.45669  1.0000
  C   C5225     1.0  0.66475  0.67377  0.27020  1.0000
  C   C5226     1.0  0.84090  0.65462  0.32057  1.0000
  Fe  Fe351     1.0  0.93001  0.57576  0.23998  1.0000
  C   C5227     1.0  0.94337  0.69914  0.44332  1.0000
  C   C5228     1.0  0.69670  0.57140  0.30994  1.0000
  C   C5229     1.0  0.72017  0.88458  0.47340  1.0000
  C   C5230     1.0  0.87271  0.65901  0.33910  1.0000
  Fe  Fe352     1.0  0.94699  0.53865  0.23019  1.0000
  C   C5231     1.0  0.75945  0.54246  0.30148  1.0000
  C   C5232     1.0  0.77509  0.54922  0.30010  1.0000
  C   C5233     1.0  0.66682  0.63443  0.28326  1.0000
  C   C5234     1.0  0.71348  0.55901  0.30925  1.0000
  H   H4173     1.0  0.71900  0.55269  0.29750  1.0000
  H   H4174     1.0  0.66550  0.53115  0.25717  1.0000
  C   C5235     1.0  0.75471  0.48704  0.27740  1.0000
  C   C5236     1.0  0.70609  0.69855  0.39059  1.0000
  H   H4175     1.0  0.77838  0.55168  0.31190  1.0000
  C   C5237     1.0  0.70533  0.49747  0.25531  1.0000
  H   H4176     1.0  0.95322  0.94393  0.43002  1.0000
  C   C5238     1.0  0.93660  0.89624  0.37684  1.0000
  C   C5239     1.0  0.92586  0.91245  0.38193  1.0000
  H   H4177     1.0  0.71273  0.87513  0.47180  1.0000
  H   H4178     1.0  0.85561  0.94874  0.37036  1.0000
  H   H4179     1.0  0.93749  0.92477  0.42078  1.0000
  C   C5240     1.0  0.86985  0.67276  0.36500  1.0000
  H   H4180     1.0  0.70936  0.52426  0.33484  1.0000
  H   H4181     1.0  0.86265  0.50682  0.24446  1.0000
  H   H4182     1.0  0.82998  0.80024  0.46874  1.0000
  S   S704      1.0  0.73718  0.55090  0.23074  1.0000
  H   H4183     1.0  0.91403  0.51040  0.27854  1.0000
  H   H4184     1.0  0.70254  0.49423  0.33710  1.0000
  H   H4185     1.0  0.80702  0.81917  0.45398  1.0000
  C   C5241     1.0  0.71467  0.69330  0.37391  1.0000
  C   C5242     1.0  0.91204  0.83273  0.47589  1.0000
  H   H4186     1.0  0.71321  0.62567  0.25953  1.0000
  S   S705      1.0  0.95514  0.50930  0.24364  1.0000
  S   S706      1.0  0.82286  0.96456  0.39335  1.0000
  C   C5243     1.0  0.86213  0.91225  0.45839  1.0000
  H   H4187     1.0  0.85249  0.90728  0.47038  1.0000
  H   H4188     1.0  0.73566  0.64581  0.31060  1.0000
  C   C5244     1.0  0.69898  0.73028  0.37476  1.0000
  H   H4189     1.0  0.89467  0.60587  0.31676  1.0000
  C   C5245     1.0  0.90022  0.95958  0.37513  1.0000
  H   H4190     1.0  0.70905  0.63158  0.32606  1.0000
  Fe  Fe353     1.0  0.68863  0.58091  0.23870  1.0000
  H   H4191     1.0  0.72809  0.74734  0.36139  1.0000
  C   C5246     1.0  0.97983  0.85355  0.41528  1.0000
  H   H4192     1.0  0.82820  0.96806  0.45947  1.0000
  C   C5247     1.0  0.71547  0.70648  0.35766  1.0000
  C   C5248     1.0  0.92682  0.64058  0.29898  1.0000
  H   H4193     1.0  0.83641  0.82797  0.47396  1.0000
  H   H4194     1.0  0.72073  0.67902  0.37359  1.0000
  H   H4195     1.0  0.68478  0.79184  0.37698  1.0000
  P   P174      1.0  0.97986  0.84334  0.47683  1.0000
  H   H4196     1.0  0.92482  0.59759  0.29702  1.0000
  C   C5249     1.0  0.68156  0.75992  0.41036  1.0000
  H   H4197     1.0  0.87199  0.68375  0.46931  1.0000
  H   H4198     1.0  0.84934  0.49057  0.29555  1.0000
  C   C5250     1.0  0.87842  0.85348  0.46840  1.0000
  H   H4199     1.0  0.81806  0.69778  0.47522  1.0000
  C   C5251     1.0  0.76985  0.49193  0.26437  1.0000
  C   C5252     1.0  0.80993  0.49939  0.35248  1.0000
  C   C5253     1.0  0.69721  0.50313  0.24000  1.0000
  H   H4200     1.0  0.69089  0.94645  0.27170  1.0000
  C   C5254     1.0  0.73940  0.90904  0.47728  1.0000
  C   C5255     1.0  0.90180  0.74664  0.46245  1.0000
  H   H4201     1.0  0.73601  0.76081  0.47784  1.0000
  H   H4202     1.0  0.86593  0.97391  0.42564  1.0000
  C   C5256     1.0  0.81925  0.97896  0.45205  1.0000
  H   H4203     1.0  0.66028  0.83836  0.35648  1.0000
  C   C5257     1.0  0.87529  0.98275  0.46016  1.0000
  H   H4204     1.0  0.98500  0.67554  0.45177  1.0000
  H   H4205     1.0  0.77535  0.85063  0.47832  1.0000
  P   P175      1.0  0.80174  0.48530  0.23809  1.0000
  C   C5258     1.0  0.69194  0.49031  0.23337  1.0000
  H   H4206     1.0  0.97994  0.85562  0.40085  1.0000
  H   H4207     1.0  0.80017  0.67638  0.47168  1.0000
  H   H4208     1.0  0.74540  0.49697  0.28495  1.0000
  C   C5259     1.0  0.95937  0.66745  0.46542  1.0000
  H   H4209     1.0  0.93211  0.66276  0.47651  1.0000
  C   C5260     1.0  0.94039  0.67188  0.46698  1.0000
  H   H4210     1.0  0.69639  0.84047  0.47678  1.0000
  H   H4211     1.0  0.77097  0.69912  0.47118  1.0000
  C   C5261     1.0  0.65945  0.82354  0.38434  1.0000
  H   H4212     1.0  0.76210  0.97811  0.39849  1.0000
  H   H4213     1.0  0.92500  0.82439  0.47870  1.0000
  H   H4214     1.0  0.96561  0.65510  0.47387  1.0000
  H   H4215     1.0  0.65929  0.71688  0.27742  1.0000
  C   C5262     1.0  0.65606  0.90473  0.25650  1.0000
  H   H4216     1.0  0.74545  0.48725  0.24347  1.0000
  H   H4217     1.0  0.80834  0.48604  0.36070  1.0000
  C   C5263     1.0  0.65621  0.75293  0.40224  1.0000
  C   C5264     1.0  0.65631  0.70546  0.27375  1.0000
  C   C5265     1.0  0.89481  0.68528  0.47997  1.0000
  Fe  Fe354     1.0  0.91660  0.83323  0.58109  1.0000
  S   S707      1.0  0.91031  0.81530  0.60875  1.0000
  S   S708      1.0  0.90532  0.86321  0.57146  1.0000
  Fe  Fe355     1.0  0.93998  0.80142  0.56415  1.0000
  S   S709      1.0  0.93599  0.78071  0.59025  1.0000
  S   S710      1.0  0.95672  0.79347  0.53793  1.0000
  Fe  Fe356     1.0  0.90678  0.79558  0.59370  1.0000
  S   S711      1.0  0.88365  0.78056  0.60543  1.0000
  Fe  Fe357     1.0  0.94013  0.80188  0.60322  1.0000
  S   S712      1.0  0.95378  0.79341  0.62749  1.0000
  S   S713      1.0  0.91043  0.81469  0.56651  1.0000
  S   S714      1.0  0.94680  0.82145  0.57671  1.0000
  H   H4218     1.0  0.81221  0.64011  0.62221  1.0000
  Fe  Fe358     1.0  0.81411  0.94065  0.55659  1.0000
  S   S715      1.0  0.78627  0.95796  0.56303  1.0000
  S   S716      1.0  0.82975  0.94276  0.52760  1.0000
  Fe  Fe359     1.0  0.81251  0.92037  0.59548  1.0000
  S   S717      1.0  0.78410  0.93577  0.60520  1.0000
  S   S718      1.0  0.82746  0.89727  0.61414  1.0000
  Fe  Fe360     1.0  0.77825  0.93180  0.57957  1.0000
  S   S719      1.0  0.75238  0.92718  0.57453  1.0000
  Fe  Fe361     1.0  0.79457  0.96072  0.58780  1.0000
  C   C5266     1.0  0.89578  0.82853  0.48718  1.0000
  S   S720      1.0  0.80565  0.91422  0.57146  1.0000
  S   S721      1.0  0.82345  0.94554  0.57987  1.0000
  H   H4219     1.0  0.81145  0.58496  0.60375  1.0000
  H   H4220     1.0  0.72762  0.80142  0.51031  1.0000
  S   S722      1.0  0.80519  0.58661  0.70649  1.0000
  C   C5267     1.0  0.92286  0.75406  0.63109  1.0000
  H   H4221     1.0  0.94880  0.70344  0.63584  1.0000
  S   S723      1.0  0.84601  0.57980  0.71604  1.0000
  H   H4222     1.0  0.80341  0.56170  0.64851  1.0000
  Fe  Fe362     1.0  0.82200  0.60321  0.71270  1.0000
  S   S724      1.0  0.82145  0.63278  0.69850  1.0000
  Fe  Fe363     1.0  0.82807  0.56268  0.71234  1.0000
  C   C5268     1.0  0.81764  0.49583  0.68753  1.0000
  C   C5269     1.0  0.77564  0.98294  0.51793  1.0000
  Fe  Fe364     1.0  0.83827  0.67951  0.59722  1.0000
  S   S725      1.0  0.83712  0.70693  0.60278  1.0000
  S   S726      1.0  0.85060  0.65203  0.61290  1.0000
  Fe  Fe365     1.0  0.82194  0.69610  0.56317  1.0000
  S   S727      1.0  0.81925  0.72508  0.56579  1.0000
  S   S728      1.0  0.81343  0.68707  0.54153  1.0000
  Fe  Fe366     1.0  0.84724  0.71506  0.57253  1.0000
  S   S729      1.0  0.86937  0.73121  0.55883  1.0000
  Fe  Fe367     1.0  0.80929  0.71473  0.59573  1.0000
  S   S730      1.0  0.78668  0.73058  0.61415  1.0000
  S   S731      1.0  0.85072  0.68693  0.56737  1.0000
  S   S732      1.0  0.80955  0.68650  0.59273  1.0000
  Fe  Fe368     1.0  0.70924  0.84174  0.59766  1.0000
  S   S733      1.0  0.72984  0.85017  0.60844  1.0000
  Fe  Fe369     1.0  0.70599  0.80706  0.58747  1.0000
  H   H4223     1.0  0.70812  0.88315  0.50183  1.0000
  S   S734      1.0  0.71857  0.77885  0.58127  1.0000
  C   C5270     1.0  0.80835  0.88126  0.49793  1.0000
  H   H4224     1.0  0.91595  0.76834  0.62945  1.0000
  S   S735      1.0  0.72010  0.83005  0.57251  1.0000
  S   S736      1.0  0.69687  0.81738  0.61372  1.0000
  C   C5271     1.0  0.68810  0.84751  0.52035  1.0000
  S   S737      1.0  0.84206  0.54055  0.69599  1.0000
  C   C5272     1.0  0.82012  0.69841  0.51877  1.0000
  C   C5273     1.0  0.82896  0.71308  0.51478  1.0000
  H   H4225     1.0  0.83209  0.71737  0.52571  1.0000
  C   C5274     1.0  0.76735  0.74317  0.60521  1.0000
  C   C5275     1.0  0.75366  0.75444  0.61555  1.0000
  C   C5276     1.0  0.73886  0.76588  0.60817  1.0000
  C   C5277     1.0  0.73719  0.76527  0.59077  1.0000
  C   C5278     1.0  0.75021  0.75307  0.58093  1.0000
  C   C5279     1.0  0.76550  0.74232  0.58794  1.0000
  H   H4226     1.0  0.75472  0.75459  0.62920  1.0000
  H   H4227     1.0  0.72861  0.77494  0.61601  1.0000
  H   H4228     1.0  0.74853  0.75214  0.56774  1.0000
  H   H4229     1.0  0.77575  0.73330  0.58006  1.0000
  C   C5280     1.0  0.83051  0.63800  0.67489  1.0000
  C   C5281     1.0  0.82715  0.65623  0.66541  1.0000
  C   C5282     1.0  0.83334  0.66070  0.64637  1.0000
  C   C5283     1.0  0.84336  0.64699  0.63683  1.0000
  C   C5284     1.0  0.84744  0.62887  0.64645  1.0000
  C   C5285     1.0  0.84076  0.62432  0.66540  1.0000
  H   H4230     1.0  0.81946  0.66684  0.67281  1.0000
  H   H4231     1.0  0.83028  0.67468  0.63902  1.0000
  H   H4232     1.0  0.85559  0.61829  0.63921  1.0000
  H   H4233     1.0  0.84362  0.61030  0.67273  1.0000
  H   H4234     1.0  0.84607  0.96963  0.49982  1.0000
  C   C5286     1.0  0.80108  0.57450  0.65288  1.0000
  C   C5287     1.0  0.88163  0.68467  0.62018  1.0000
  C   C5288     1.0  0.74679  0.90542  0.58336  1.0000
  C   C5289     1.0  0.73100  0.90221  0.58005  1.0000
  C   C5290     1.0  0.72593  0.88514  0.58725  1.0000
  C   C5291     1.0  0.73644  0.87132  0.59817  1.0000
  C   C5292     1.0  0.75221  0.87456  0.60155  1.0000
  C   C5293     1.0  0.75752  0.89149  0.59396  1.0000
  H   H4235     1.0  0.72261  0.91302  0.57200  1.0000
  H   H4236     1.0  0.71371  0.88279  0.58466  1.0000
  H   H4237     1.0  0.76028  0.86398  0.61014  1.0000
  H   H4238     1.0  0.76973  0.89388  0.59652  1.0000
  H   H4239     1.0  0.93899  0.75634  0.64904  1.0000
  C   C5294     1.0  0.87236  0.70817  0.63820  1.0000
  C   C5295     1.0  0.89852  0.68986  0.61297  1.0000
  H   H4240     1.0  0.82205  0.63470  0.56629  1.0000
  C   C5296     1.0  0.78852  0.93259  0.51087  1.0000
  H   H4241     1.0  0.70264  0.73416  0.65832  1.0000
  C   C5297     1.0  0.71495  0.70963  0.67529  1.0000
  H   H4242     1.0  0.90140  0.78479  0.52382  1.0000
  H   H4243     1.0  0.77828  0.75614  0.54716  1.0000
  C   C5298     1.0  0.69928  0.90847  0.52689  1.0000
  C   C5299     1.0  0.79913  0.93517  0.52186  1.0000
  C   C5300     1.0  0.81675  0.93842  0.51420  1.0000
  H   H4244     1.0  0.80603  0.60861  0.57616  1.0000
  H   H4245     1.0  0.83733  0.54553  0.65605  1.0000
  H   H4246     1.0  0.79347  0.93503  0.53619  1.0000
  C   C5301     1.0  0.86511  0.79551  0.49828  1.0000
  C   C5302     1.0  0.88148  0.76590  0.59245  1.0000
  C   C5303     1.0  0.88730  0.76925  0.57346  1.0000
  C   C5304     1.0  0.88374  0.75836  0.56325  1.0000
  C   C5305     1.0  0.87464  0.74392  0.57204  1.0000
  C   C5306     1.0  0.86949  0.74017  0.59110  1.0000
  C   C5307     1.0  0.87286  0.75119  0.60126  1.0000
  H   H4247     1.0  0.89406  0.78051  0.56660  1.0000
  H   H4248     1.0  0.88794  0.76120  0.54850  1.0000
  H   H4249     1.0  0.86282  0.72889  0.59804  1.0000
  H   H4250     1.0  0.86833  0.74862  0.61597  1.0000
  C   C5308     1.0  0.88422  0.87298  0.58405  1.0000
  C   C5309     1.0  0.87367  0.88894  0.57548  1.0000
  C   C5310     1.0  0.85645  0.89666  0.58483  1.0000
  C   C5311     1.0  0.84977  0.88864  0.60294  1.0000
  C   C5312     1.0  0.86052  0.87294  0.61172  1.0000
  C   C5313     1.0  0.87767  0.86503  0.60225  1.0000
  H   H4251     1.0  0.87868  0.89519  0.56145  1.0000
  H   H4252     1.0  0.84826  0.90869  0.57789  1.0000
  H   H4253     1.0  0.85537  0.86662  0.62568  1.0000
  H   H4254     1.0  0.88576  0.85280  0.60900  1.0000
  H   H4255     1.0  0.72815  0.73177  0.63147  1.0000
  C   C5314     1.0  0.76764  0.76280  0.50539  1.0000
  C   C5315     1.0  0.66306  0.83703  0.51523  1.0000
  C   C5316     1.0  0.94516  0.86575  0.48189  1.0000
  C   C5317     1.0  0.70364  0.79340  0.50874  1.0000
  C   C5318     1.0  0.94308  0.78250  0.49527  1.0000
  H   H4256     1.0  0.67976  0.81481  0.67102  1.0000
  H   H4257     1.0  0.84055  0.73362  0.49358  1.0000
  C   C5319     1.0  0.97494  0.79807  0.62777  1.0000
  H   H4258     1.0  0.84723  0.50592  0.62273  1.0000
  S   S738      1.0  0.69750  0.85664  0.53377  1.0000
  H   H4259     1.0  0.76917  0.59998  0.68093  1.0000
  H   H4260     1.0  0.80874  0.54226  0.68415  1.0000
  H   H4261     1.0  0.91903  0.78964  0.54418  1.0000
  C   C5320     1.0  0.76936  0.76684  0.52149  1.0000
  C   C5321     1.0  0.77224  0.74449  0.50338  1.0000
  C   C5322     1.0  0.72635  0.90233  0.49215  1.0000
  C   C5323     1.0  0.85538  0.81267  0.53427  1.0000
  P   P176      1.0  0.92469  0.71034  0.60936  1.0000
  C   C5324     1.0  0.79407  0.60765  0.66438  1.0000
  C   C5325     1.0  0.83238  0.77120  0.60506  1.0000
  C   C5326     1.0  0.82572  0.75691  0.61807  1.0000
  C   C5327     1.0  0.82146  0.75761  0.63659  1.0000
  C   C5328     1.0  0.82387  0.77261  0.64209  1.0000
  C   C5329     1.0  0.83046  0.78712  0.62906  1.0000
  C   C5330     1.0  0.83487  0.78622  0.61047  1.0000
  P   P177      1.0  0.83373  0.80625  0.63650  1.0000
  C   C5331     1.0  0.81459  0.81173  0.65470  1.0000
  C   C5332     1.0  0.85495  0.80056  0.64448  1.0000
  C   C5333     1.0  0.86312  0.81462  0.64517  1.0000
  C   C5334     1.0  0.87975  0.81039  0.65085  1.0000
  C   C5335     1.0  0.88838  0.79213  0.65586  1.0000
  C   C5336     1.0  0.88027  0.77807  0.65540  1.0000
  C   C5337     1.0  0.86362  0.78223  0.64973  1.0000
  C   C5338     1.0  0.81702  0.81708  0.66984  1.0000
  C   C5339     1.0  0.80210  0.82107  0.68393  1.0000
  C   C5340     1.0  0.78468  0.81974  0.68302  1.0000
  C   C5341     1.0  0.78211  0.81463  0.66789  1.0000
  C   C5342     1.0  0.79698  0.81073  0.65374  1.0000
  C   C5343     1.0  0.83456  0.82609  0.61803  1.0000
  C   C5344     1.0  0.81969  0.84104  0.61736  1.0000
  C   C5345     1.0  0.82119  0.85694  0.60393  1.0000
  C   C5346     1.0  0.83722  0.85781  0.59069  1.0000
  C   C5347     1.0  0.85205  0.84305  0.59125  1.0000
  C   C5348     1.0  0.85078  0.82729  0.60489  1.0000
  H   H4262     1.0  0.83647  0.77012  0.59084  1.0000
  H   H4263     1.0  0.82396  0.74525  0.61376  1.0000
  H   H4264     1.0  0.81631  0.74650  0.64666  1.0000
  H   H4265     1.0  0.82072  0.77285  0.65654  1.0000
  H   H4266     1.0  0.84066  0.79679  0.60019  1.0000
  H   H4267     1.0  0.85681  0.82888  0.64103  1.0000
  H   H4268     1.0  0.88621  0.82130  0.65092  1.0000
  H   H4269     1.0  0.90153  0.78891  0.65977  1.0000
  H   H4270     1.0  0.88715  0.76392  0.65895  1.0000
  H   H4271     1.0  0.85796  0.77112  0.64888  1.0000
  H   H4272     1.0  0.83038  0.81816  0.67086  1.0000
  H   H4273     1.0  0.80409  0.82514  0.69560  1.0000
  H   H4274     1.0  0.77318  0.82273  0.69402  1.0000
  H   H4275     1.0  0.76860  0.81372  0.66709  1.0000
  H   H4276     1.0  0.79474  0.80693  0.64202  1.0000
  H   H4277     1.0  0.80713  0.84074  0.62740  1.0000
  H   H4278     1.0  0.81012  0.86886  0.60400  1.0000
  H   H4279     1.0  0.83848  0.87028  0.58052  1.0000
  H   H4280     1.0  0.86485  0.84424  0.58167  1.0000
  H   H4281     1.0  0.86266  0.81627  0.60551  1.0000
  H   H4282     1.0  0.96739  0.79649  0.65686  1.0000
  H   H4283     1.0  0.89647  0.81699  0.49860  1.0000
  H   H4284     1.0  0.79682  0.51798  0.67770  1.0000
  C   C5349     1.0  0.78734  0.65006  0.61185  1.0000
  H   H4285     1.0  0.85289  0.50142  0.70307  1.0000
  P   P178      1.0  0.76483  0.67595  0.66285  1.0000
  C   C5350     1.0  0.76103  0.65654  0.68118  1.0000
  C   C5351     1.0  0.77347  0.66618  0.64265  1.0000
  C   C5352     1.0  0.79124  0.65559  0.63994  1.0000
  H   H4286     1.0  0.79156  0.62037  0.66898  1.0000
  C   C5353     1.0  0.68931  0.84092  0.49072  1.0000
  C   C5354     1.0  0.77454  0.64737  0.69139  1.0000
  C   C5355     1.0  0.77205  0.63170  0.70486  1.0000
  C   C5356     1.0  0.75622  0.62485  0.70804  1.0000
  C   C5357     1.0  0.74284  0.63370  0.69773  1.0000
  C   C5358     1.0  0.74530  0.64939  0.68422  1.0000
  C   C5359     1.0  0.78102  0.68738  0.66612  1.0000
  C   C5360     1.0  0.78070  0.68982  0.68362  1.0000
  C   C5361     1.0  0.79283  0.69929  0.68602  1.0000
  C   C5362     1.0  0.80498  0.70683  0.67091  1.0000
  C   C5363     1.0  0.80496  0.70495  0.65340  1.0000
  C   C5364     1.0  0.79307  0.69521  0.65101  1.0000
  C   C5365     1.0  0.74118  0.96552  0.61924  1.0000
  H   H4287     1.0  0.83736  0.94136  0.48967  1.0000
  H   H4288     1.0  0.73065  0.62825  0.70010  1.0000
  C   C5366     1.0  0.86646  0.67707  0.49860  1.0000
  H   H4289     1.0  0.97527  0.88854  0.54318  1.0000
  H   H4290     1.0  0.78723  0.65200  0.68870  1.0000
  H   H4291     1.0  0.78260  0.62474  0.71267  1.0000
  P   P179      1.0  0.72225  0.90902  0.51385  1.0000
  C   C5367     1.0  0.84312  0.81461  0.48039  1.0000
  H   H4292     1.0  0.98872  0.82506  0.51218  1.0000
  H   H4293     1.0  0.77117  0.68433  0.69541  1.0000
  H   H4294     1.0  0.79286  0.70072  0.69960  1.0000
  H   H4295     1.0  0.81441  0.71410  0.67278  1.0000
  H   H4296     1.0  0.81412  0.71102  0.64159  1.0000
  H   H4297     1.0  0.79322  0.69398  0.63731  1.0000
  H   H4298     1.0  0.78627  0.97182  0.49353  1.0000
  C   C5368     1.0  0.76865  0.88822  0.53412  1.0000
  H   H4299     1.0  0.77533  0.57058  0.67068  1.0000
  C   C5369     1.0  0.84033  0.50504  0.69806  1.0000
  C   C5370     1.0  0.72137  0.94552  0.49563  1.0000
  H   H4300     1.0  0.90852  0.68252  0.60330  1.0000
  H   H4301     1.0  0.85558  0.68964  0.63847  1.0000
  H   H4302     1.0  0.87861  0.67355  0.61599  1.0000
  C   C5371     1.0  0.92858  0.72435  0.62299  1.0000
  C   C5372     1.0  0.82089  0.84882  0.49993  1.0000
  C   C5373     1.0  0.95292  0.78550  0.50677  1.0000
  C   C5374     1.0  0.76313  0.80284  0.48658  1.0000
  C   C5375     1.0  0.83861  0.85184  0.49754  1.0000
  H   H4303     1.0  0.75444  0.61260  0.71843  1.0000
  Fe  Fe370     1.0  0.67198  0.83354  0.60255  1.0000
  H   H4304     1.0  0.72183  0.87477  0.54185  1.0000
  H   H4305     1.0  0.98671  0.80007  0.59899  1.0000
  C   C5376     1.0  0.67112  0.84241  0.52690  1.0000
  H   H4306     1.0  0.77471  0.93069  0.51684  1.0000
  C   C5377     1.0  0.82981  0.71678  0.48229  1.0000
  C   C5378     1.0  0.88951  0.67994  0.51316  1.0000
  H   H4307     1.0  0.66658  0.91562  0.69644  1.0000
  H   H4308     1.0  0.91348  0.68822  0.49519  1.0000
  C   C5379     1.0  0.68478  0.91089  0.51810  1.0000
  C   C5380     1.0  0.91885  0.85700  0.50418  1.0000
  C   C5381     1.0  0.92938  0.83968  0.50954  1.0000
  C   C5382     1.0  0.94782  0.83544  0.50118  1.0000
  C   C5383     1.0  0.85498  0.81294  0.49205  1.0000
  C   C5384     1.0  0.95301  0.65843  0.62561  1.0000
  H   H4309     1.0  0.87532  0.79389  0.50621  1.0000
  H   H4310     1.0  0.90847  0.70964  0.57875  1.0000
  H   H4311     1.0  0.71056  0.84999  0.49732  1.0000
  C   C5385     1.0  0.66394  0.90644  0.54747  1.0000
  H   H4312     1.0  0.77616  0.51433  0.71486  1.0000
  C   C5386     1.0  0.83137  0.52345  0.69450  1.0000
  H   H4313     1.0  0.73506  0.65581  0.67597  1.0000
  H   H4314     1.0  0.76107  0.66208  0.60478  1.0000
  H   H4315     1.0  0.78727  0.72401  0.54294  1.0000
  C   C5387     1.0  0.86214  0.77990  0.49441  1.0000
  C   C5388     1.0  0.94494  0.72895  0.64394  1.0000
  C   C5389     1.0  0.92443  0.78247  0.50127  1.0000
  H   H4316     1.0  0.68356  0.78473  0.60683  1.0000
  C   C5390     1.0  0.73020  0.96784  0.50698  1.0000
  C   C5391     1.0  0.72862  0.72146  0.64398  1.0000
  C   C5392     1.0  0.80588  0.86352  0.49984  1.0000
  H   H4317     1.0  0.90462  0.86030  0.51081  1.0000
  H   H4318     1.0  0.92333  0.82948  0.52023  1.0000
  H   H4319     1.0  0.95565  0.82196  0.50551  1.0000
  C   C5393     1.0  0.79822  0.64771  0.62451  1.0000
  C   C5394     1.0  0.74386  0.70711  0.64507  1.0000
  C   C5395     1.0  0.88923  0.71340  0.63101  1.0000
  H   H4320     1.0  0.94537  0.73859  0.58776  1.0000
  H   H4321     1.0  0.79676  0.89268  0.49771  1.0000
  C   C5396     1.0  0.87354  0.83409  0.54471  1.0000
  C   C5397     1.0  0.86819  0.81873  0.55705  1.0000
  C   C5398     1.0  0.85903  0.80812  0.55188  1.0000
  H   H4322     1.0  0.88061  0.84239  0.54878  1.0000
  H   H4323     1.0  0.87131  0.81483  0.57059  1.0000
  H   H4324     1.0  0.85516  0.79616  0.56150  1.0000
  C   C5399     1.0  0.81887  0.59601  0.59932  1.0000
  C   C5400     1.0  0.75427  0.83653  0.52550  1.0000
  C   C5401     1.0  0.74210  0.82511  0.52787  1.0000
  C   C5402     1.0  0.74350  0.80855  0.54060  1.0000
  C   C5403     1.0  0.75685  0.80356  0.55122  1.0000
  C   C5404     1.0  0.76905  0.81504  0.54902  1.0000
  C   C5405     1.0  0.76792  0.83139  0.53580  1.0000
  P   P180      1.0  0.78684  0.80783  0.56211  1.0000
  C   C5406     1.0  0.77715  0.79899  0.58569  1.0000
  C   C5407     1.0  0.80485  0.79103  0.55199  1.0000
  C   C5408     1.0  0.82159  0.78583  0.55760  1.0000
  C   C5409     1.0  0.83562  0.77272  0.55009  1.0000
  C   C5410     1.0  0.83318  0.76487  0.53672  1.0000
  C   C5411     1.0  0.81669  0.77028  0.53069  1.0000
  C   C5412     1.0  0.80260  0.78340  0.53821  1.0000
  C   C5413     1.0  0.76029  0.80840  0.59410  1.0000
  C   C5414     1.0  0.75377  0.80348  0.61292  1.0000
  C   C5415     1.0  0.76401  0.78910  0.62352  1.0000
  C   C5416     1.0  0.78048  0.77924  0.61518  1.0000
  C   C5417     1.0  0.78698  0.78402  0.59631  1.0000
  C   C5418     1.0  0.79646  0.82697  0.56201  1.0000
  C   C5419     1.0  0.79072  0.83619  0.57669  1.0000
  C   C5420     1.0  0.79805  0.85110  0.57624  1.0000
  C   C5421     1.0  0.81123  0.85695  0.56125  1.0000
  C   C5422     1.0  0.81728  0.84768  0.54679  1.0000
  C   C5423     1.0  0.80995  0.83276  0.54714  1.0000
  H   H4325     1.0  0.75285  0.84953  0.51588  1.0000
  H   H4326     1.0  0.73126  0.82934  0.52020  1.0000
  H   H4327     1.0  0.73371  0.79991  0.54286  1.0000
  H   H4328     1.0  0.75745  0.79086  0.56134  1.0000
  H   H4329     1.0  0.77724  0.84040  0.53368  1.0000
  H   H4330     1.0  0.82370  0.79193  0.56784  1.0000
  H   H4331     1.0  0.84845  0.76856  0.55461  1.0000
  H   H4332     1.0  0.84405  0.75445  0.53121  1.0000
  H   H4333     1.0  0.81478  0.76407  0.52039  1.0000
  H   H4334     1.0  0.79003  0.78740  0.53328  1.0000
  H   H4335     1.0  0.75260  0.82015  0.58628  1.0000
  H   H4336     1.0  0.74080  0.81092  0.61927  1.0000
  H   H4337     1.0  0.75885  0.78515  0.63806  1.0000
  H   H4338     1.0  0.78782  0.76739  0.62324  1.0000
  H   H4339     1.0  0.79957  0.77592  0.59020  1.0000
  H   H4340     1.0  0.78030  0.83239  0.58838  1.0000
  H   H4341     1.0  0.79294  0.85855  0.58725  1.0000
  H   H4342     1.0  0.81662  0.86877  0.56076  1.0000
  H   H4343     1.0  0.82762  0.85221  0.53532  1.0000
  H   H4344     1.0  0.81474  0.82574  0.53581  1.0000
  C   C5424     1.0  0.84211  0.52429  0.64107  1.0000
  H   H4345     1.0  0.77249  0.86736  0.55795  1.0000
  C   C5425     1.0  0.84478  0.53412  0.60830  1.0000
  C   C5426     1.0  0.84167  0.55240  0.60989  1.0000
  C   C5427     1.0  0.83824  0.55675  0.62720  1.0000
  C   C5428     1.0  0.83902  0.54252  0.64269  1.0000
  P   P181      1.0  0.83457  0.58008  0.62987  1.0000
  C   C5429     1.0  0.81389  0.58590  0.64629  1.0000
  C   C5430     1.0  0.85419  0.58068  0.63807  1.0000
  C   C5431     1.0  0.85343  0.57773  0.65693  1.0000
  C   C5432     1.0  0.86894  0.57713  0.66337  1.0000
  C   C5433     1.0  0.88530  0.57948  0.65106  1.0000
  C   C5434     1.0  0.88627  0.58203  0.63228  1.0000
  C   C5435     1.0  0.87085  0.58235  0.62580  1.0000
  C   C5436     1.0  0.81018  0.60256  0.65201  1.0000
  C   C5437     1.0  0.83144  0.59693  0.60918  1.0000
  C   C5438     1.0  0.84000  0.61203  0.60378  1.0000
  C   C5439     1.0  0.73708  0.95558  0.60855  1.0000
  C   C5440     1.0  0.78344  0.50864  0.72596  1.0000
  H   H4346     1.0  0.84730  0.53079  0.59495  1.0000
  H   H4347     1.0  0.84222  0.56297  0.59760  1.0000
  H   H4348     1.0  0.84098  0.57561  0.66677  1.0000
  H   H4349     1.0  0.86826  0.57471  0.67797  1.0000
  H   H4350     1.0  0.89724  0.57912  0.65612  1.0000
  H   H4351     1.0  0.89902  0.58363  0.62275  1.0000
  H   H4352     1.0  0.87194  0.58388  0.61126  1.0000
  H   H4353     1.0  0.81981  0.61159  0.64694  1.0000
  H   H4354     1.0  0.84333  0.63712  0.58428  1.0000
  H   H4355     1.0  0.84891  0.61381  0.61165  1.0000
  C   C5441     1.0  0.69378  0.88559  0.62484  1.0000
  C   C5442     1.0  0.68126  0.90006  0.61704  1.0000
  C   C5443     1.0  0.68115  0.91803  0.61765  1.0000
  C   C5444     1.0  0.69354  0.92151  0.62611  1.0000
  C   C5445     1.0  0.70643  0.90704  0.63370  1.0000
  C   C5446     1.0  0.70638  0.88903  0.63305  1.0000
  P   P182      1.0  0.72120  0.91150  0.64613  1.0000
  C   C5447     1.0  0.74194  0.89406  0.64610  1.0000
  C   C5448     1.0  0.72759  0.93343  0.63587  1.0000
  C   C5449     1.0  0.73036  0.93959  0.61682  1.0000
  C   C5450     1.0  0.87742  0.68196  0.48141  1.0000
  C   C5451     1.0  0.72244  0.79278  0.50467  1.0000
  C   C5452     1.0  0.82386  0.93863  0.49559  1.0000
  C   C5453     1.0  0.73152  0.94363  0.64654  1.0000
  C   C5454     1.0  0.75872  0.89785  0.63538  1.0000
  C   C5455     1.0  0.77491  0.88482  0.63668  1.0000
  C   C5456     1.0  0.77446  0.86782  0.64853  1.0000
  C   C5457     1.0  0.75779  0.86380  0.65897  1.0000
  C   C5458     1.0  0.74161  0.87687  0.65783  1.0000
  C   C5459     1.0  0.70944  0.91119  0.66966  1.0000
  C   C5460     1.0  0.69029  0.91399  0.67450  1.0000
  C   C5461     1.0  0.78167  0.73483  0.53255  1.0000
  C   C5462     1.0  0.68135  0.91353  0.69277  1.0000
  C   C5463     1.0  0.72488  0.93221  0.51122  1.0000
  C   C5464     1.0  0.71947  0.90797  0.68338  1.0000
  H   H4356     1.0  0.69398  0.87164  0.62422  1.0000
  H   H4357     1.0  0.79564  0.82259  0.49198  1.0000
  C   C5465     1.0  0.66625  0.81167  0.67538  1.0000
  H   H4358     1.0  0.69296  0.93549  0.62684  1.0000
  H   H4359     1.0  0.71611  0.87754  0.63864  1.0000
  H   H4360     1.0  0.72795  0.93167  0.60827  1.0000
  H   H4361     1.0  0.73981  0.95981  0.59377  1.0000
  H   H4362     1.0  0.69450  0.80261  0.51722  1.0000
  H   H4363     1.0  0.74849  0.67573  0.63212  1.0000
  H   H4364     1.0  0.72988  0.93910  0.66120  1.0000
  H   H4365     1.0  0.75944  0.91087  0.62609  1.0000
  H   H4366     1.0  0.78706  0.85788  0.64975  1.0000
  H   H4367     1.0  0.75738  0.85065  0.66812  1.0000
  H   H4368     1.0  0.72885  0.87365  0.66626  1.0000
  H   H4369     1.0  0.68217  0.91646  0.66427  1.0000
  C   C5466     1.0  0.76244  0.66813  0.63010  1.0000
  H   H4370     1.0  0.73425  0.90583  0.67998  1.0000
  H   H4371     1.0  0.96727  0.78562  0.50199  1.0000
  C   C5467     1.0  0.83671  0.62547  0.58829  1.0000
  H   H4372     1.0  0.90970  0.50261  0.70579  1.0000
  C   C5468     1.0  0.73828  0.95961  0.63823  1.0000
  C   C5469     1.0  0.81564  0.60945  0.58379  1.0000
  C   C5470     1.0  0.77666  0.75294  0.53487  1.0000
  C   C5471     1.0  0.78149  0.59615  0.67110  1.0000
  H   H4373     1.0  0.78281  0.71649  0.51532  1.0000
  H   H4374     1.0  0.78157  0.89220  0.53233  1.0000
  S   S739      1.0  0.91180  0.77981  0.48652  1.0000
  C   C5472     1.0  0.70833  0.77057  0.49064  1.0000
  C   C5473     1.0  0.98016  0.84855  0.58583  1.0000
  C   C5474     1.0  0.83334  0.49124  0.69491  1.0000
  C   C5475     1.0  0.82464  0.62414  0.57821  1.0000
  H   H4375     1.0  0.76498  0.78069  0.52372  1.0000
  H   H4376     1.0  0.92767  0.67550  0.63576  1.0000
  C   C5476     1.0  0.80881  0.51431  0.68366  1.0000
  C   C5477     1.0  0.95597  0.84856  0.48760  1.0000
  C   C5478     1.0  0.79563  0.93275  0.49225  1.0000
  H   H4377     1.0  0.70390  0.71086  0.68709  1.0000
  C   C5479     1.0  0.71048  0.90758  0.70163  1.0000
  H   H4378     1.0  0.68699  0.91347  0.50334  1.0000
  H   H4379     1.0  0.75528  0.70680  0.63347  1.0000
  C   C5480     1.0  0.78500  0.57958  0.66537  1.0000
  C   C5481     1.0  0.86859  0.69378  0.63284  1.0000
  C   C5482     1.0  0.94423  0.78853  0.52430  1.0000
  H   H4380     1.0  0.91290  0.72530  0.54652  1.0000
  C   C5483     1.0  0.91759  0.71915  0.57397  1.0000
  Fe  Fe371     1.0  0.69372  0.84459  0.56408  1.0000
  C   C5484     1.0  0.66209  0.79846  0.66850  1.0000
  C   C5485     1.0  0.75655  0.89784  0.52263  1.0000
  H   H4381     1.0  0.82745  0.89798  0.49570  1.0000
  C   C5486     1.0  0.76367  0.87410  0.54849  1.0000
  C   C5487     1.0  0.95767  0.68799  0.59624  1.0000
  C   C5488     1.0  0.77924  0.73059  0.51692  1.0000
  C   C5489     1.0  0.92568  0.78801  0.53048  1.0000
  C   C5490     1.0  0.88304  0.51654  0.71753  1.0000
  H   H4382     1.0  0.93321  0.74773  0.53466  1.0000
  H   H4383     1.0  0.86221  0.71527  0.64795  1.0000
  S   S740      1.0  0.68371  0.85870  0.58814  1.0000
  C   C5491     1.0  0.93965  0.67458  0.62481  1.0000
  S   S741      1.0  0.68010  0.82099  0.57759  1.0000
  H   H4384     1.0  0.94484  0.89445  0.53583  1.0000
  H   H4385     1.0  0.89387  0.67978  0.52548  1.0000
  C   C5492     1.0  0.83371  0.72228  0.49659  1.0000
  C   C5493     1.0  0.81548  0.52805  0.68739  1.0000
  C   C5494     1.0  0.73028  0.93715  0.52504  1.0000
  C   C5495     1.0  0.87018  0.83849  0.52700  1.0000
  H   H4386     1.0  0.86359  0.67300  0.52775  1.0000
  C   C5496     1.0  0.97062  0.87738  0.54096  1.0000
  C   C5497     1.0  0.69727  0.84646  0.50233  1.0000
  H   H4387     1.0  0.94903  0.75461  0.55549  1.0000
  C   C5498     1.0  0.93579  0.74727  0.64216  1.0000
  H   H4388     1.0  0.98177  0.83119  0.54348  1.0000
  H   H4389     1.0  0.79972  0.65343  0.64976  1.0000
  H   H4390     1.0  0.95981  0.69932  0.58483  1.0000
  H   H4391     1.0  0.76346  0.97724  0.52169  1.0000
  H   H4392     1.0  0.87466  0.85025  0.51752  1.0000
  H   H4393     1.0  0.80935  0.68154  0.50750  1.0000
  H   H4394     1.0  0.81852  0.83515  0.50217  1.0000
  C   C5499     1.0  0.90246  0.70434  0.61826  1.0000
  C   C5500     1.0  0.93147  0.74072  0.54889  1.0000
  C   C5501     1.0  0.95335  0.88083  0.53673  1.0000
  C   C5502     1.0  0.66441  0.78128  0.63254  1.0000
  C   C5503     1.0  0.94036  0.74458  0.56064  1.0000
  C   C5504     1.0  0.84484  0.52009  0.62390  1.0000
  C   C5505     1.0  0.91937  0.74270  0.62145  1.0000
  C   C5506     1.0  0.71421  0.72277  0.65909  1.0000
  C   C5507     1.0  0.92016  0.72796  0.55554  1.0000
  H   H4395     1.0  0.96310  0.84427  0.61278  1.0000
  C   C5508     1.0  0.76944  0.66020  0.61468  1.0000
  C   C5509     1.0  0.91577  0.78502  0.51899  1.0000
  C   C5510     1.0  0.97635  0.84664  0.60484  1.0000
  H   H4396     1.0  0.74332  0.85791  0.56202  1.0000
  C   C5511     1.0  0.94185  0.68944  0.61006  1.0000
  H   H4397     1.0  0.84247  0.51341  0.65317  1.0000
  H   H4398     1.0  0.84811  0.80439  0.53059  1.0000
  C   C5512     1.0  0.93804  0.73562  0.57902  1.0000
  H   H4399     1.0  0.90979  0.74829  0.61243  1.0000
  C   C5513     1.0  0.94661  0.86652  0.53456  1.0000
  H   H4400     1.0  0.93291  0.86902  0.53212  1.0000
  C   C5514     1.0  0.94133  0.71748  0.63444  1.0000
  C   C5515     1.0  0.67203  0.83644  0.49706  1.0000
  H   H4401     1.0  0.74178  0.96717  0.64644  1.0000
  C   C5516     1.0  0.86140  0.82758  0.52152  1.0000
  C   C5517     1.0  0.92644  0.72296  0.58593  1.0000
  C   C5518     1.0  0.87244  0.67615  0.51447  1.0000
  C   C5519     1.0  0.97795  0.79858  0.64471  1.0000
  C   C5520     1.0  0.97435  0.84526  0.54091  1.0000
  C   C5521     1.0  0.90065  0.68456  0.49598  1.0000
  C   C5522     1.0  0.73010  0.69514  0.67638  1.0000
  H   H4402     1.0  0.96953  0.84803  0.57932  1.0000
  H   H4403     1.0  0.67281  0.79120  0.65934  1.0000
  C   C5523     1.0  0.74447  0.69352  0.66111  1.0000
  H   H4404     1.0  0.89178  0.72454  0.63545  1.0000
  C   C5524     1.0  0.81621  0.69288  0.50445  1.0000
  C   C5525     1.0  0.95720  0.84879  0.53648  1.0000
  H   H4405     1.0  0.79288  0.64424  0.59974  1.0000
  H   H4406     1.0  0.69533  0.75156  0.60834  1.0000
  P   P183      1.0  0.85810  0.83288  0.49826  1.0000
  H   H4407     1.0  0.95507  0.72376  0.65244  1.0000
  H   H4408     1.0  0.95173  0.83753  0.53558  1.0000
  C   C5526     1.0  0.98132  0.85955  0.54299  1.0000
  H   H4409     1.0  0.78786  0.88805  0.62864  1.0000
  H   H4410     1.0  0.73070  0.68546  0.68922  1.0000
  H   H4411     1.0  0.87007  0.76654  0.49934  1.0000
  H   H4412     1.0  0.95124  0.64701  0.63703  1.0000
  C   C5527     1.0  0.73430  0.78131  0.49324  1.0000
  C   C5528     1.0  0.66724  0.90961  0.52838  1.0000
  C   C5529     1.0  0.72420  0.96323  0.49345  1.0000
  C   C5530     1.0  0.65706  0.76884  0.64764  1.0000
  H   H4413     1.0  0.67554  0.90258  0.57106  1.0000
  C   C5531     1.0  0.68467  0.75626  0.61934  1.0000
  H   H4414     1.0  0.76037  0.90903  0.51173  1.0000
  C   C5532     1.0  0.74704  0.86898  0.55090  1.0000
  H   H4415     1.0  0.70641  0.90499  0.55309  1.0000
  H   H4416     1.0  0.84670  0.76937  0.48137  1.0000
  H   H4417     1.0  0.71830  0.90514  0.71214  1.0000
  H   H4418     1.0  0.73259  0.98148  0.50517  1.0000
  C   C5533     1.0  0.73309  0.95483  0.52284  1.0000
  H   H4419     1.0  0.73263  0.92729  0.53745  1.0000
  C   C5534     1.0  0.69563  0.90620  0.54603  1.0000
  H   H4420     1.0  0.68192  0.78338  0.50432  1.0000
  H   H4421     1.0  0.73770  0.95827  0.53343  1.0000
  C   C5535     1.0  0.66358  0.74995  0.64831  1.0000
  C   C5536     1.0  0.98440  0.87149  0.49115  1.0000
  H   H4422     1.0  0.85305  0.67460  0.49963  1.0000
  H   H4423     1.0  0.68229  0.72917  0.63470  1.0000
  H   H4424     1.0  0.79227  0.86123  0.50134  1.0000
  C   C5537     1.0  0.69656  0.78244  0.50159  1.0000
  H   H4425     1.0  0.68448  0.91001  0.72048  1.0000
  C   C5538     1.0  0.82111  0.70201  0.48621  1.0000
  C   C5539     1.0  0.73916  0.89380  0.52596  1.0000
  H   H4426     1.0  0.70284  0.76225  0.48488  1.0000
  C   C5540     1.0  0.71742  0.88938  0.49030  1.0000
  C   C5541     1.0  0.69144  0.91034  0.70633  1.0000
  H   H4427     1.0  0.74709  0.97751  0.61281  1.0000
  C   C5542     1.0  0.73484  0.87868  0.53954  1.0000
  C   C5543     1.0  0.84082  0.86966  0.49634  1.0000
  C   C5544     1.0  0.77911  0.80431  0.49109  1.0000
  H   H4428     1.0  0.78849  0.79217  0.49626  1.0000
  H   H4429     1.0  0.85415  0.87229  0.49543  1.0000
  C   C5545     1.0  0.67808  0.90499  0.55627  1.0000
  C   C5546     1.0  0.67812  0.77501  0.61850  1.0000
  H   H4430     1.0  0.82392  0.98064  0.59262  1.0000
  C   C5547     1.0  0.96868  0.65705  0.61174  1.0000
  H   H4431     1.0  0.84614  0.97427  0.56048  1.0000
  C   C5548     1.0  0.67734  0.74372  0.63420  1.0000
  P   P184      1.0  0.75853  0.78069  0.48794  1.0000
  H   H4432     1.0  0.91844  0.88333  0.48596  1.0000
  C   C5549     1.0  0.82574  0.88427  0.49653  1.0000
  C   C5550     1.0  0.98885  0.80059  0.61213  1.0000
  H   H4433     1.0  0.65627  0.91073  0.52155  1.0000
  C   C5551     1.0  0.97101  0.67183  0.59708  1.0000
  C   C5552     1.0  0.78335  0.82152  0.48843  1.0000
  C   C5553     1.0  0.72716  0.76992  0.48654  1.0000
  H   H4434     1.0  0.65945  0.79590  0.63155  1.0000
  C   C5554     1.0  0.92669  0.86998  0.49024  1.0000
  C   C5555     1.0  0.90146  0.50849  0.71732  1.0000
  H   H4435     1.0  0.96983  0.87407  0.49641  1.0000
  H   H4436     1.0  0.87702  0.51705  0.70614  1.0000
  H   H4437     1.0  0.98705  0.84495  0.62851  1.0000
  C   C5556     1.0  0.85191  0.97860  0.48767  1.0000
  H   H4438     1.0  0.79450  0.53263  0.72219  1.0000
  H   H4439     1.0  0.77041  0.74091  0.49138  1.0000
  C   C5557     1.0  0.87885  0.83890  0.48358  1.0000
  H   H4440     1.0  0.98810  0.89318  0.50187  1.0000
  C   C5558     1.0  0.78856  0.97976  0.50214  1.0000
  H   H4441     1.0  0.67167  0.89729  0.61054  1.0000
  H   H4442     1.0  0.82849  0.97970  0.53649  1.0000
  H   H4443     1.0  0.97905  0.64455  0.61240  1.0000
  H   H4444     1.0  0.66392  0.84321  0.54075  1.0000
  S   S742      1.0  0.66128  0.83037  0.48246  1.0000
  H   H4445     1.0  0.98320  0.67079  0.58638  1.0000
  H   H4446     1.0  0.72189  0.97331  0.48118  1.0000
  H   H4447     1.0  0.65807  0.74000  0.65962  1.0000
  C   C5559     1.0  0.79382  0.51891  0.73002  1.0000
  C   C5560     1.0  0.84913  0.78155  0.48415  1.0000
  C   C5561     1.0  0.77194  0.83730  0.48079  1.0000
  H   H4448     1.0  0.81464  0.98365  0.48566  1.0000
  H   H4449     1.0  0.71668  0.94218  0.48506  1.0000
  H   H4450     1.0  0.95003  0.78007  0.48180  1.0000
  C   C5562     1.0  0.81340  0.93559  0.48466  1.0000
  H   H4451     1.0  0.67139  0.92926  0.61166  1.0000
  H   H4452     1.0  0.65600  0.83138  0.69288  1.0000
  H   H4453     1.0  0.74920  0.65828  0.72970  1.0000
  Fe  Fe372     1.0  0.90067  0.55984  0.85831  1.0000
  S   S743      1.0  0.90162  0.58971  0.84957  1.0000
  S   S744      1.0  0.88106  0.54522  0.88058  1.0000
  Fe  Fe373     1.0  0.93256  0.54936  0.82793  1.0000
  S   S745      1.0  0.93656  0.57822  0.81644  1.0000
  H   H4454     1.0  0.81295  0.54192  0.80594  1.0000
  Fe  Fe374     1.0  0.93225  0.57988  0.84602  1.0000
  S   S746      1.0  0.94877  0.58971  0.86058  1.0000
  Fe  Fe375     1.0  0.90572  0.58549  0.82079  1.0000
  S   S747      1.0  0.89045  0.60369  0.79888  1.0000
  S   S748      1.0  0.93069  0.55030  0.85695  1.0000
  S   S749      1.0  0.90245  0.55649  0.83001  1.0000
  H   H4455     1.0  0.73639  0.53206  0.80508  1.0000
  Fe  Fe376     1.0  0.80444  0.57321  0.95180  1.0000
  H   H4456     1.0  0.68573  0.63299  0.97441  1.0000
  S   S750      1.0  0.82301  0.59175  0.93418  1.0000
  Fe  Fe377     1.0  0.79504  0.53674  0.95601  1.0000
  H   H4457     1.0  0.72950  0.62381  0.83041  1.0000
  H   H4458     1.0  0.84308  0.52588  0.79147  1.0000
  Fe  Fe378     1.0  0.76549  0.56837  0.96649  1.0000
  S   S751      1.0  0.73573  0.58133  0.96855  1.0000
  H   H4459     1.0  0.66019  0.62378  0.96744  1.0000
  H   H4460     1.0  0.68761  0.62787  0.91124  1.0000
  S   S752      1.0  0.78498  0.56463  0.94023  1.0000
  S   S753      1.0  0.81628  0.54490  0.96559  1.0000
  Fe  Fe379     1.0  0.69796  0.56499  0.88772  1.0000
  S   S754      1.0  0.69006  0.57558  0.91389  1.0000
  Fe  Fe380     1.0  0.72423  0.56241  0.85146  1.0000
  S   S755      1.0  0.70738  0.54824  0.84230  1.0000
  S   S756      1.0  0.75183  0.56732  0.83560  1.0000
  Fe  Fe381     1.0  0.70395  0.53169  0.87092  1.0000
  S   S757      1.0  0.70086  0.58442  0.86047  1.0000
  S   S758      1.0  0.72280  0.54440  0.87936  1.0000
  C   C5563     1.0  0.75500  0.57060  0.81171  1.0000
  C   C5564     1.0  0.74028  0.57398  0.80306  1.0000
  C   C5565     1.0  0.77571  0.57345  0.78203  1.0000
  C   C5566     1.0  0.77267  0.57011  0.80117  1.0000
  H   H4461     1.0  0.72659  0.57436  0.81114  1.0000
  H   H4462     1.0  0.78945  0.57321  0.77408  1.0000
  H   H4463     1.0  0.78407  0.56724  0.80787  1.0000
  C   C5567     1.0  0.72387  0.57732  0.95375  1.0000
  C   C5568     1.0  0.73266  0.56869  0.93892  1.0000
  C   C5569     1.0  0.72248  0.56706  0.92679  1.0000
  C   C5570     1.0  0.70356  0.57400  0.92968  1.0000
  C   C5571     1.0  0.69487  0.58164  0.94503  1.0000
  C   C5572     1.0  0.70495  0.58345  0.95687  1.0000
  H   H4464     1.0  0.74725  0.56352  0.93667  1.0000
  H   H4465     1.0  0.72928  0.56090  0.91508  1.0000
  H   H4466     1.0  0.68024  0.58664  0.94754  1.0000
  C   C5573     1.0  0.68332  0.49893  0.95716  1.0000
  C   C5574     1.0  0.81379  0.53048  0.79982  1.0000
  H   H4467     1.0  0.73193  0.58010  0.77713  1.0000
  C   C5575     1.0  0.76469  0.50706  0.89724  1.0000
  C   C5576     1.0  0.79032  0.60518  0.79659  1.0000
  H   H4468     1.0  0.72948  0.61511  0.77122  1.0000
  C   C5577     1.0  0.87648  0.59336  0.79137  1.0000
  C   C5578     1.0  0.68641  0.51010  0.79188  1.0000
  H   H4469     1.0  0.92859  0.52644  0.78658  1.0000
  C   C5579     1.0  0.86526  0.55852  0.89529  1.0000
  C   C5580     1.0  0.84929  0.55246  0.90512  1.0000
  C   C5581     1.0  0.83637  0.56270  0.91698  1.0000
  C   C5582     1.0  0.83931  0.57912  0.91910  1.0000
  C   C5583     1.0  0.85540  0.58514  0.90944  1.0000
  C   C5584     1.0  0.86837  0.57484  0.89748  1.0000
  H   H4470     1.0  0.84676  0.53990  0.90341  1.0000
  H   H4471     1.0  0.82408  0.55786  0.92435  1.0000
  H   H4472     1.0  0.85784  0.59772  0.91117  1.0000
  H   H4473     1.0  0.88079  0.57949  0.89002  1.0000
  Fe  Fe382     1.0  0.83218  0.57438  0.74563  1.0000
  C   C5585     1.0  0.78306  0.49077  0.73575  1.0000
  C   C5586     1.0  0.81378  0.58507  0.81213  1.0000
  S   S759      1.0  0.84567  0.56263  0.76990  1.0000
  C   C5587     1.0  0.72689  0.48540  0.78338  1.0000
  H   H4474     1.0  0.76980  0.54226  0.75302  1.0000
  C   C5588     1.0  0.90502  0.50879  0.96504  1.0000
  H   H4475     1.0  0.74437  0.59753  0.85581  1.0000
  C   C5589     1.0  0.77997  0.60932  0.81326  1.0000
  C   C5590     1.0  0.75489  0.50347  0.93010  1.0000
  H   H4476     1.0  0.93270  0.55657  0.78803  1.0000
  C   C5591     1.0  0.93184  0.50877  0.82541  1.0000
  H   H4477     1.0  0.69870  0.65822  0.88228  1.0000
  H   H4478     1.0  0.70314  0.53122  0.81575  1.0000
  S   S760      1.0  0.66231  0.58336  0.83633  1.0000
  C   C5592     1.0  0.73502  0.50341  0.80957  1.0000
  H   H4479     1.0  0.69404  0.56011  0.77697  1.0000
  H   H4480     1.0  0.78659  0.50753  0.79011  1.0000
  C   C5593     1.0  0.86099  0.59213  0.76791  1.0000
  S   S761      1.0  0.70906  0.50080  0.87952  1.0000
  H   H4481     1.0  0.89121  0.52856  0.80041  1.0000
  H   H4482     1.0  0.71628  0.60412  0.90996  1.0000
  H   H4483     1.0  0.92752  0.50944  0.92871  1.0000
  C   C5594     1.0  0.66550  0.50731  0.95489  1.0000
  H   H4484     1.0  0.73676  0.61200  0.93752  1.0000
  H   H4485     1.0  0.78468  0.53242  0.80554  1.0000
  C   C5595     1.0  0.74330  0.57732  0.78385  1.0000
  C   C5596     1.0  0.79791  0.52521  0.79947  1.0000
  C   C5597     1.0  0.69345  0.52710  0.81062  1.0000
  C   C5598     1.0  0.88008  0.52366  0.74704  1.0000
  C   C5599     1.0  0.91759  0.51137  0.84046  1.0000
  H   H4486     1.0  0.77030  0.50995  0.97051  1.0000
  C   C5600     1.0  0.69465  0.58810  0.76304  1.0000
  H   H4487     1.0  0.84560  0.50525  0.85609  1.0000
  H   H4488     1.0  0.65782  0.89486  0.94948  1.0000
  P   P185      1.0  0.90816  0.51497  0.76615  1.0000
  H   H4489     1.0  0.85699  0.59799  0.75487  1.0000
  H   H4490     1.0  0.83585  0.50487  0.95806  1.0000
  H   H4491     1.0  0.72495  0.62541  0.79982  1.0000
  C   C5601     1.0  0.75377  0.64862  0.91002  1.0000
  H   H4492     1.0  0.75075  0.66040  0.89929  1.0000
  C   C5602     1.0  0.97845  0.59518  0.83219  1.0000
  C   C5603     1.0  0.90326  0.55325  0.75559  1.0000
  H   H4493     1.0  0.94994  0.52185  0.90243  1.0000
  C   C5604     1.0  0.80317  0.49356  0.75403  1.0000
  C   C5605     1.0  0.83080  0.52143  0.79163  1.0000
  C   C5606     1.0  0.93015  0.49935  0.76568  1.0000
  H   H4494     1.0  0.69059  0.50106  0.78226  1.0000
  H   H4495     1.0  0.71203  0.64000  0.94992  1.0000
  C   C5607     1.0  0.94600  0.50538  0.75506  1.0000
  H   H4496     1.0  0.84531  0.50126  0.77593  1.0000
  C   C5608     1.0  0.70115  0.63574  0.94667  1.0000
  C   C5609     1.0  0.89859  0.51564  0.74692  1.0000
  S   S762      1.0  0.78396  0.57979  0.97684  1.0000
  C   C5610     1.0  0.90591  0.57032  0.75628  1.0000
  C   C5611     1.0  0.86066  0.51453  0.95429  1.0000
  C   C5612     1.0  0.69409  0.60577  0.76504  1.0000
  H   H4497     1.0  0.71870  0.67878  0.73544  1.0000
  H   H4498     1.0  0.85707  0.51783  0.96774  1.0000
  C   C5613     1.0  0.70076  0.62933  0.84247  1.0000
  H   H4499     1.0  0.67468  0.66931  0.79018  1.0000
  C   C5614     1.0  0.89758  0.49347  0.97502  1.0000
  C   C5615     1.0  0.69303  0.57701  0.79554  1.0000
  C   C5616     1.0  0.96320  0.49387  0.75538  1.0000
  C   C5617     1.0  0.87374  0.51037  0.81635  1.0000
  H   H4500     1.0  0.89933  0.58268  0.74814  1.0000
  S   S763      1.0  0.67860  0.55109  0.88155  1.0000
  C   C5618     1.0  0.73208  0.52357  0.77187  1.0000
  H   H4501     1.0  0.81448  0.50040  0.90447  1.0000
  C   C5619     1.0  0.69290  0.60914  0.78239  1.0000
  C   C5620     1.0  0.88498  0.49184  0.78742  1.0000
  H   H4502     1.0  0.69298  0.50786  0.84738  1.0000
  H   H4503     1.0  0.72676  0.58551  0.88621  1.0000
  C   C5621     1.0  0.74793  0.51612  0.82804  1.0000
  C   C5622     1.0  0.97174  0.59171  0.85110  1.0000
  H   H4504     1.0  0.76643  0.60517  0.94658  1.0000
  H   H4505     1.0  0.97072  0.52281  0.86956  1.0000
  C   C5623     1.0  0.69536  0.63112  0.80740  1.0000
  C   C5624     1.0  0.66328  0.62390  0.89249  1.0000
  H   H4506     1.0  0.89396  0.50214  0.85830  1.0000
  H   H4507     1.0  0.72192  0.49806  0.91120  1.0000
  C   C5625     1.0  0.68036  0.63312  0.82207  1.0000
  C   C5626     1.0  0.77754  0.49646  0.96857  1.0000
  C   C5627     1.0  0.66238  0.52359  0.94203  1.0000
  C   C5628     1.0  0.66461  0.66367  0.78712  1.0000
  C   C5629     1.0  0.70197  0.63405  0.92878  1.0000
  C   C5630     1.0  0.68615  0.63200  0.96056  1.0000
  H   H4508     1.0  0.87459  0.61384  0.76663  1.0000
  C   C5631     1.0  0.74110  0.63548  0.75025  1.0000
  C   C5632     1.0  0.72939  0.59923  0.88315  1.0000
  C   C5633     1.0  0.85700  0.57520  0.77783  1.0000
  C   C5634     1.0  0.72859  0.52200  0.96418  1.0000
  H   H4509     1.0  0.81518  0.58965  0.78317  1.0000
  C   C5635     1.0  0.72757  0.54700  0.74468  1.0000
  C   C5636     1.0  0.73958  0.51843  0.81331  1.0000
  C   C5637     1.0  0.79906  0.51097  0.79082  1.0000
  C   C5638     1.0  0.98342  0.59018  0.86290  1.0000
  H   H4510     1.0  0.66390  0.65257  0.88401  1.0000
  H   H4511     1.0  0.85811  0.53050  0.73245  1.0000
  H   H4512     1.0  0.94915  0.51013  0.85669  1.0000
  C   C5639     1.0  0.86204  0.56785  0.79478  1.0000
  C   C5640     1.0  0.80720  0.59303  0.79605  1.0000
  S   S764      1.0  0.94679  0.52408  0.81693  1.0000
  C   C5641     1.0  0.72099  0.66492  0.74336  1.0000
  C   C5642     1.0  0.69261  0.59459  0.79756  1.0000
  C   C5643     1.0  0.72691  0.62910  0.76364  1.0000
  C   C5644     1.0  0.66227  0.68231  0.93012  1.0000
  C   C5645     1.0  0.87087  0.60112  0.77462  1.0000
  H   H4513     1.0  0.68364  0.69032  0.87210  1.0000
  H   H4514     1.0  0.78514  0.61100  0.78412  1.0000
  C   C5646     1.0  0.72660  0.62763  0.89274  1.0000
  P   P186      1.0  0.72027  0.64080  0.91044  1.0000
  H   H4515     1.0  0.73978  0.64790  0.87243  1.0000
  Fe  Fe383     1.0  0.68353  0.56894  0.85354  1.0000
  H   H4516     1.0  0.91630  0.52220  0.84743  1.0000
  C   C5647     1.0  0.73655  0.63444  0.87547  1.0000
  C   C5648     1.0  0.82241  0.48896  0.89824  1.0000
  H   H4517     1.0  0.75438  0.62642  0.74775  1.0000
  C   C5649     1.0  0.75000  0.52614  0.76898  1.0000
  H   H4518     1.0  0.72047  0.67516  0.92001  1.0000
  C   C5650     1.0  0.74288  0.62367  0.86216  1.0000
  C   C5651     1.0  0.77072  0.64456  0.91513  1.0000
  H   H4519     1.0  0.75105  0.52786  0.83102  1.0000
  C   C5652     1.0  0.91647  0.57154  0.76798  1.0000
  C   C5653     1.0  0.70677  0.65859  0.75687  1.0000
  C   C5654     1.0  0.73932  0.60604  0.86600  1.0000
  C   C5655     1.0  0.70969  0.64066  0.76727  1.0000
  H   H4520     1.0  0.78858  0.62549  0.93201  1.0000
  S   S765      1.0  0.76461  0.58294  0.74927  1.0000
  H   H4521     1.0  0.87375  0.57195  0.81528  1.0000
  H   H4522     1.0  0.97832  0.58758  0.87753  1.0000
  C   C5656     1.0  0.77527  0.62894  0.92836  1.0000
  C   C5657     1.0  0.76283  0.61744  0.93655  1.0000
  H   H4523     1.0  0.67639  0.61951  0.88396  1.0000
  H   H4524     1.0  0.91796  0.58483  0.76901  1.0000
  C   C5658     1.0  0.87116  0.57718  0.80173  1.0000
  C   C5659     1.0  0.84867  0.50709  0.94893  1.0000
  H   H4525     1.0  0.75075  0.62891  0.84894  1.0000
  P   P187      1.0  0.72100  0.49586  0.94968  1.0000
  C   C5660     1.0  0.85293  0.50285  0.93162  1.0000
  C   C5661     1.0  0.71149  0.66445  0.90123  1.0000
  H   H4526     1.0  0.67030  0.54295  0.82610  1.0000
  C   C5662     1.0  0.67481  0.53379  0.81649  1.0000
  C   C5663     1.0  0.69944  0.51505  0.79845  1.0000
  C   C5664     1.0  0.74593  0.62145  0.93148  1.0000
  C   C5665     1.0  0.72326  0.60989  0.89654  1.0000
  C   C5666     1.0  0.71297  0.67836  0.90913  1.0000
  C   C5667     1.0  0.74117  0.63717  0.91834  1.0000
  H   H4527     1.0  0.76671  0.61840  0.81371  1.0000
  H   H4528     1.0  0.78101  0.50927  0.91515  1.0000
  H   H4529     1.0  0.85859  0.55501  0.80277  1.0000
  C   C5668     1.0  0.70439  0.69652  0.90330  1.0000
  C   C5669     1.0  0.78675  0.60171  0.82932  1.0000
  C   C5670     1.0  0.80377  0.58959  0.82884  1.0000
  C   C5671     1.0  0.76100  0.57738  0.77330  1.0000
  P   P188      1.0  0.81369  0.58129  0.84899  1.0000
  C   C5672     1.0  0.79587  0.58376  0.86911  1.0000
  C   C5673     1.0  0.82429  0.55734  0.85055  1.0000
  C   C5674     1.0  0.81636  0.54571  0.84502  1.0000
  C   C5675     1.0  0.82400  0.52697  0.84703  1.0000
  C   C5676     1.0  0.83956  0.51973  0.85461  1.0000
  C   C5677     1.0  0.84766  0.53123  0.85993  1.0000
  C   C5678     1.0  0.84007  0.54996  0.85793  1.0000
  C   C5679     1.0  0.78686  0.56937  0.87864  1.0000
  C   C5680     1.0  0.77310  0.57149  0.89418  1.0000
  C   C5681     1.0  0.76820  0.58798  0.90026  1.0000
  C   C5682     1.0  0.77693  0.60242  0.89075  1.0000
  C   C5683     1.0  0.79063  0.60038  0.87519  1.0000
  C   C5684     1.0  0.83033  0.59456  0.84776  1.0000
  C   C5685     1.0  0.83812  0.60461  0.83093  1.0000
  C   C5686     1.0  0.85057  0.61521  0.83019  1.0000
  C   C5687     1.0  0.85554  0.61576  0.84613  1.0000
  C   C5688     1.0  0.84792  0.60582  0.86292  1.0000
  C   C5689     1.0  0.83546  0.59515  0.86377  1.0000
  H   H4530     1.0  0.77872  0.60527  0.84203  1.0000
  H   H4531     1.0  0.82688  0.57572  0.81148  1.0000
  H   H4532     1.0  0.80411  0.55111  0.83938  1.0000
  H   H4533     1.0  0.81787  0.51807  0.84272  1.0000
  S   S766      1.0  0.80238  0.51319  0.94167  1.0000
  H   H4534     1.0  0.85995  0.52573  0.86551  1.0000
  H   H4535     1.0  0.84663  0.55852  0.86222  1.0000
  H   H4536     1.0  0.79044  0.55647  0.87421  1.0000
  H   H4537     1.0  0.76635  0.56027  0.90160  1.0000
  H   H4538     1.0  0.75768  0.58956  0.91239  1.0000
  H   H4539     1.0  0.77319  0.61514  0.89551  1.0000
  H   H4540     1.0  0.79721  0.61175  0.86796  1.0000
  H   H4541     1.0  0.83493  0.60423  0.81823  1.0000
  H   H4542     1.0  0.85672  0.62270  0.81712  1.0000
  H   H4543     1.0  0.86558  0.62362  0.84540  1.0000
  H   H4544     1.0  0.85188  0.60624  0.87522  1.0000
  H   H4545     1.0  0.82998  0.58725  0.87692  1.0000
  C   C5690     1.0  0.91840  0.56117  0.90653  1.0000
  C   C5691     1.0  0.93453  0.54956  0.89997  1.0000
  C   C5692     1.0  0.93767  0.53090  0.90793  1.0000
  C   C5693     1.0  0.92494  0.52395  0.92283  1.0000
  C   C5694     1.0  0.90906  0.53569  0.93004  1.0000
  C   C5695     1.0  0.90563  0.55427  0.92146  1.0000
  P   P189      1.0  0.89286  0.52672  0.94960  1.0000
  C   C5696     1.0  0.87710  0.51776  0.94231  1.0000
  H   H4546     1.0  0.75799  0.50289  0.94309  1.0000
  C   C5697     1.0  0.74509  0.55012  0.74248  1.0000
  C   C5698     1.0  0.81614  0.50152  0.78285  1.0000
  H   H4547     1.0  0.84150  0.57787  0.96325  1.0000
  P   P190      1.0  0.72361  0.50659  0.79084  1.0000
  C   C5699     1.0  0.65678  0.89266  0.92253  1.0000
  C   C5700     1.0  0.70413  0.48637  0.86783  1.0000
  C   C5701     1.0  0.68306  0.63235  0.83948  1.0000
  H   H4548     1.0  0.67547  0.67598  0.93361  1.0000
  C   C5702     1.0  0.86917  0.50619  0.91954  1.0000
  C   C5703     1.0  0.88117  0.51370  0.92482  1.0000
  C   C5704     1.0  0.88047  0.54493  0.96160  1.0000
  C   C5705     1.0  0.86395  0.55574  0.95726  1.0000
  H   H4549     1.0  0.69188  0.59673  0.81106  1.0000
  H   H4550     1.0  0.65899  0.83794  0.84783  1.0000
  C   C5706     1.0  0.87236  0.52412  0.73238  1.0000
  C   C5707     1.0  0.73816  0.65339  0.74011  1.0000
  H   H4551     1.0  0.91580  0.57551  0.89987  1.0000
  H   H4552     1.0  0.94441  0.55504  0.88846  1.0000
  C   C5708     1.0  0.92197  0.51023  0.96745  1.0000
  H   H4553     1.0  0.66317  0.66204  0.91527  1.0000
  H   H4554     1.0  0.89314  0.56349  0.92617  1.0000
  C   C5709     1.0  0.92468  0.55567  0.77877  1.0000
  H   H4555     1.0  0.91971  0.51062  0.87895  1.0000
  H   H4556     1.0  0.87003  0.51726  0.82771  1.0000
  H   H4557     1.0  0.87163  0.52970  0.75843  1.0000
  C   C5710     1.0  0.79326  0.49430  0.95486  1.0000
  C   C5711     1.0  0.66918  0.64594  0.78342  1.0000
  C   C5712     1.0  0.69818  0.50655  0.94623  1.0000
  H   H4558     1.0  0.69360  0.66773  0.75904  1.0000
  H   H4559     1.0  0.75908  0.51789  0.77791  1.0000
  H   H4560     1.0  0.89335  0.51670  0.91500  1.0000
  C   C5713     1.0  0.75628  0.53968  0.75463  1.0000
  H   H4561     1.0  0.94490  0.49205  0.80545  1.0000
  H   H4562     1.0  0.97690  0.55369  0.85664  1.0000
  C   C5714     1.0  0.83200  0.50720  0.78297  1.0000
  C   C5715     1.0  0.72108  0.53372  0.75930  1.0000
  C   C5716     1.0  0.73793  0.50077  0.92916  1.0000
  C   C5717     1.0  0.68739  0.62900  0.92495  1.0000
  C   C5718     1.0  0.92228  0.53858  0.77794  1.0000
  C   C5719     1.0  0.88611  0.51663  0.80079  1.0000
  H   H4563     1.0  0.66878  0.89841  0.91584  1.0000
  C   C5720     1.0  0.66774  0.51675  0.79782  1.0000
  S   S767      1.0  0.81593  0.55565  0.74221  1.0000
  H   H4564     1.0  0.89460  0.55276  0.74682  1.0000
  C   C5721     1.0  0.94845  0.50036  0.86962  1.0000
  H   H4565     1.0  0.96954  0.59650  0.82298  1.0000
  H   H4566     1.0  0.70748  0.53147  0.76083  1.0000
  C   C5722     1.0  0.91148  0.53723  0.76642  1.0000
  C   C5723     1.0  0.84139  0.48665  0.89338  1.0000
  C   C5724     1.0  0.66195  0.52856  0.81015  1.0000
  C   C5725     1.0  0.89195  0.50730  0.78627  1.0000
  C   C5726     1.0  0.85432  0.56979  0.96654  1.0000
  H   H4567     1.0  0.67451  0.54435  0.92189  1.0000
  C   C5727     1.0  0.71310  0.62771  0.81060  1.0000
  C   C5728     1.0  0.69393  0.70083  0.88988  1.0000
  S   S768      1.0  0.80966  0.59920  0.74280  1.0000
  C   C5729     1.0  0.72386  0.50482  0.96797  1.0000
  Fe  Fe384     1.0  0.79458  0.58100  0.73687  1.0000
  H   H4568     1.0  0.85850  0.55344  0.94661  1.0000
  C   C5730     1.0  0.69488  0.52322  0.93377  1.0000
  P   P191      1.0  0.69170  0.63204  0.78495  1.0000
  H   H4569     1.0  0.69235  0.56603  0.80748  1.0000
  H   H4570     1.0  0.84807  0.49648  0.89541  1.0000
  C   C5731     1.0  0.73472  0.50066  0.91215  1.0000
  H   H4571     1.0  0.97539  0.49875  0.74748  1.0000
  H   H4572     1.0  0.70601  0.52982  0.92571  1.0000
  C   C5732     1.0  0.98394  0.54264  0.84953  1.0000
  C   C5733     1.0  0.80387  0.51129  0.74379  1.0000
  C   C5734     1.0  0.74807  0.50374  0.89626  1.0000
  C   C5735     1.0  0.69205  0.68699  0.88225  1.0000
  H   H4573     1.0  0.73065  0.52992  0.95032  1.0000
  H   H4574     1.0  0.65774  0.70464  0.94390  1.0000
  H   H4575     1.0  0.74538  0.50366  0.88320  1.0000
  H   H4576     1.0  0.65835  0.62476  0.77837  1.0000
  C   C5736     1.0  0.67703  0.53159  0.93162  1.0000
  H   H4577     1.0  0.70560  0.70724  0.90939  1.0000
  C   C5737     1.0  0.71576  0.62683  0.82806  1.0000
  H   H4578     1.0  0.92353  0.50175  0.73155  1.0000
  C   C5738     1.0  0.70071  0.66885  0.88797  1.0000
  H   H4579     1.0  0.65774  0.51263  0.79299  1.0000
  C   C5739     1.0  0.90509  0.49977  0.84684  1.0000
  H   H4580     1.0  0.69803  0.58984  0.96842  1.0000
  C   C5740     1.0  0.76811  0.50688  0.91420  1.0000
  H   H4581     1.0  0.68709  0.71488  0.88556  1.0000
  H   H4582     1.0  0.84337  0.49735  0.92754  1.0000
  C   C5741     1.0  0.93175  0.50056  0.88212  1.0000
  H   H4583     1.0  0.69446  0.61684  0.75313  1.0000
  C   C5742     1.0  0.67174  0.62685  0.95664  1.0000
  C   C5743     1.0  0.67234  0.62542  0.93882  1.0000
  H   H4584     1.0  0.77492  0.50969  0.88489  1.0000
  H   H4585     1.0  0.78053  0.65328  0.90857  1.0000
  H   H4586     1.0  0.70288  0.62829  0.85605  1.0000
  H   H4587     1.0  0.81250  0.51906  0.74623  1.0000
  H   H4588     1.0  0.69549  0.58556  0.74967  1.0000
  C   C5744     1.0  0.93389  0.49409  0.81709  1.0000
  H   H4589     1.0  0.87229  0.50354  0.90584  1.0000
  H   H4590     1.0  0.92795  0.52196  0.96002  1.0000
  C   C5745     1.0  0.69396  0.57374  0.77834  1.0000
  H   H4591     1.0  0.66653  0.63493  0.82024  1.0000
  C   C5746     1.0  0.69638  0.49324  0.85231  1.0000
  H   H4592     1.0  0.94509  0.51913  0.74684  1.0000
  C   C5747     1.0  0.86719  0.49469  0.81762  1.0000
  H   H4593     1.0  0.84115  0.62511  0.97136  1.0000
  H   H4594     1.0  0.82029  0.60586  0.97044  1.0000
  H   H4595     1.0  0.66129  0.62120  0.93581  1.0000
  C   C5748     1.0  0.75163  0.49885  0.83929  1.0000
  C   C5749     1.0  0.90926  0.50806  0.73195  1.0000
  C   C5750     1.0  0.96417  0.48761  0.87373  1.0000
  H   H4596     1.0  0.67135  0.63366  0.85069  1.0000
  H   H4597     1.0  0.71899  0.55498  0.73513  1.0000
  H   H4598     1.0  0.74550  0.49303  0.75779  1.0000
  H   H4599     1.0  0.75005  0.56070  0.73146  1.0000
  H   H4600     1.0  0.90025  0.54096  0.97846  1.0000
  P   P192      1.0  0.98582  0.48758  0.85764  1.0000
  C   C5751     1.0  0.98031  0.52508  0.85671  1.0000
  H   H4601     1.0  0.73481  0.54212  0.97519  1.0000
  H   H4602     1.0  0.75755  0.49718  0.85104  1.0000
  C   C5752     1.0  0.73081  0.52904  0.97826  1.0000
  H   H4603     1.0  0.88463  0.49188  0.97348  1.0000
  H   H4604     1.0  0.65845  0.59645  0.90260  1.0000
  C   C5753     1.0  0.93053  0.48775  0.89861  1.0000
  H   H4605     1.0  0.85844  0.48926  0.83013  1.0000
  C   C5754     1.0  0.88743  0.54879  0.97501  1.0000
  H   H4606     1.0  0.91752  0.48773  0.90810  1.0000
  C   C5755     1.0  0.90725  0.48497  0.83866  1.0000
  H   H4607     1.0  0.68549  0.48645  0.96734  1.0000
  C   C5756     1.0  0.87296  0.48533  0.80322  1.0000
  H   H4608     1.0  0.68656  0.48648  0.83157  1.0000
  C   C5757     1.0  0.73899  0.48608  0.82089  1.0000
  C   C5758     1.0  0.65620  0.64250  0.89266  1.0000
  C   C5759     1.0  0.86125  0.57346  0.97993  1.0000
  C   C5760     1.0  0.93125  0.49663  0.97964  1.0000
