data_image0
_chemical_formula_structural       HSFeS2FeS2FeSFeS3HC3H2CH3C6H4C6H4C6H3CHCPHC2H2CHC8HCHC2H2CH2CHCH2CHCHCH4C2HCHC2HPC18HCH4CHC2H4CH2C2HC3PC20H2CH5C3H11C6SCH3C5HC2HCHC3SCHPHFeCHC2HC3HCH4CH2PHCH3CH4C4HPHCHC2H5C2HPHC2HC2HCHC4HCH2C2FeHSFeS2HFeS3FeS2FeSFeSFeS3FeS2FeS2FeSFeCS2Fe2S2FeSFeS3FeS2FeS2FeSFeS3HCH2SC6H4CHC6H5SC6H4C6H6C7H4C4H2C4HCH2C2HC2H3CHSCHC6PC8H10CH4C2SHC2H2C4H3CH3C3H2CH6C2HC2HCH2CHC3HCH2C6PCHCH2C2PC18H15C4H2C7PC18H20C2H6PH2CHC2HC4H4C4H3CH2C3PC18HCH10CH2SCH2C3H4CH2CH3C7HC2H4C5H2C3HFeC5H2CH2C5H2C2H4C2HCPCHCHCHC2H2C3HC3HCHC2HSC3HCH2C3H2PC2Fe2S4FeS2FeS2FeSFeS4H3C6H4C6HCH2C3HC2HPH6C8H5C8H4CHCHC2PHC6HC13H10FeCHCH5C4PCHC3HC12HC2H2CHSHCH9C2HC2HCPCSHCHCHCH3CHCHC2HC4HC4HC2HC2H2C2HCH2C2HC4HC2HSC2H3FeHCHPHCHCSH2CH2CHC5PCHC2PC4HCH2SCH2C5H3CH2CHC2HC3H3CH2CH2CH2C10HC3HC6HC6H2C3HC2HFeH2CH2C4H4C2H4CSHCHCH3CHCH2PH3CHCH2SHCSFeS2FeS2FeSFeS3C4H3C6H4C6H4C2PC4HCSCH2CHCH3C3H3CH2C2H4CHC2HCHCHCH2CHC3HCFeCHC4HC3H2C2H3C4H5CHC2HCH4C5H3CH2CHCH3C2HPCH6CHC3H2CH2CHC10FeS2FeS2FeSFeS3FeS2FeS2FeSFeS3H2C2HSH2FeHCFeSHCSCHFeS2FeS2FeSFeS3FeS2FeS2FeCFeS3H2CHC6H4C5H3C6H2CHC7PH3CHC7H4C6PH3C2HCH3C9H4C6H4C4HCHC2HC6H4C5H8C14H3C2H5C3H2C2HCHCHCH5C2H2C2HC2H2C3H3C2H2C4HCPC6H2C2PCHCH6C2H5C5HC5HC2HC2HC2H5C2HC2HC3H6C3H3CHCH3C5PHC8H3CH2PCHCHC8HCHPC4HC2HC9HC2HC5HCH3C3H5CHCH3CHCHSH4CHC2HC5H3CSH2SCH2CHC2HCSCFeCH2CHC2H5CH6C6HCH3CH2CHC3HC3HCHCPHCHC3H2CHCHCH3PCHCH2PH2C3HCHCHC2PC2H3C2HC3SCH2C3HCHCHC4H3C3HC6H3C4HCH6CHCHC4HC3HC3H2CH2CHC2H3C2HC2H2C2HC2PHCFeS2FeS2FeS2FeSFeCS2CH2C7H4C6H4C6H4C2HCSC3H2CSCHPC2H3CH5CHCSHPSH5C2HCHCH3CSCH5CHC5HC2HC3HC5H3CFeCH2CHC2HCHCPC3H3C2SCFeHC2SHC2H2C2H2CHCH3CHCHC3HC2HC3H4CH4C3H2CFeH3FeSFeS2FeSFeS3FeS2FeS2FeSFeS3FeS2HFeCFeHSHFeCSCH2FeHCSC3HCSCH2C4PHCH2SCH2PHC6H4C3HC2H4C6H4C2H3CH2CHC6H8CH2C3H2C6PC4H3C5HSCHCH3CH2C2HC2H8C4SCSC2HC2HC4H2CHC2HCH2C2H2CFeCH2C3HSHC4H3C6HCHCHCHCH3C2HC2H4CHC2H2C3H7C3H4C4SHCHC2PC3HC14H3CSCHC3HC3H6CH4C4HSH2CHC2HFeHC3HC4H2C3H2CH6C2HCH2CH6C3HCH2C3HC2SC3HCHSC2H2CHCPCH2PC2FeS2FeS2FeSHS2FeS2FeS2CFeSPSFeH2C3H4C4HCHC8HC5H2CH3CH4CHCH2CHC3H2C4HCH3C4H2CH4CSCHCHCFeCHC2H2C6H3CH2CPC3HC2H2C5H5C3HC2H2C3HCHCH2CHC5FeS2FeSHFeSFeS3FeSCFeS2FeHFeS3FeS2FeS2FeSFeCS2FeCSFeHSHCHS2C6HC9H4C6H4C6H4C3HC2H4C2HCSHC3H2C6PC16H18C5HC7HCH2CH2CHCHC3HPCH3C2H4PHC3HC3HCHCH8C3HCH2C3PC19H2CH7CH11CHCH2CHCH3C3HCH8CHCH2C2HC3HCPH2C2HCSC4HC5HCSHCH4CHCH3C2HC2H2C2HC2HCHFeSH2CHCH3C3HC2FeS2FeS2FeSFeS3FeS2FeS2FeSFeS3HFeS2FeSFeSFeS3HSFeS2FeH2SH3C2H2C7H4C6H4CFeHCHCHC6H2CHC6H4C5H4C6H4CHC3HCH2CHCH3CHC2H2CHCH3CH2CHPC2SCH2C8H7C2HC13H2C5HCHCHCHSC2HCHC6PC10H4CH3C2H3C3H2CH2C2H3C3H5C3H3C4H2C2HC2H3C2H2C4PC17H15C4HC2H2CH2CHCHCHC3HC3HPCH2C4HCHC3HCH3C4PHCH3CHSH2C3HCPHPC5HC3H4CH3SH2CHCH2C4H2C2H2C5H2C2H2CH2CHCH3CH3C2HC2H3C6HFeCH2SHC2HCHC4PS2FeS2FeS2FeSFeS3FeSHFeS2FeS2C2H2C2HCHC6H4C2HC6H4C6H4C7H2P2C2HCHC6SH2C6H2CHC2HFeCH4C3SH2CHCH2C8H5CPCH2CH2C2HCH2CPC3H2C7H2C2HCH2CH8SCHCH2PC6H5C6H5C2HC2HC6H6CHCH2C6HCHC6H2CH2C2HCHCH3CH3C2H3CHCH2C4HC2HC2HCH2CHCH3CH2C3HCHCHPH2C3HCHCHC2H2C4HC5HCH2C2HC2H2C4HCFeS2FeS2FeSFeS3FeS2FeSCFeSFeS3FeS2FeS2FeSHSCFeS2FeHCFeCHS2C3H2C3H2CH2C2HC6H4C6H7C6H4C2HC3HPH2C3H2CHC2H2C3HCHC4HCH5C6HC6H2C2H3CHCH2PCH2C2H2CH5CFeH2C4HC5HCHC3HPCH3CHSH2C2HC2HCSHCHC3H3C13H9C4H2C3H4C2HC2HSCHCH4CH2C6H3CHC2H2CFeH5CHCH5C2HCPH4C4HC2HCHC2HSHC2HC2HCHC2PHC6HCHC6H2C2HC5HCH6CHC5H2CH2CHC2HC3H4CH2CH2C2H3CHCHC2HCHCH2CHCSCFeS2FeS2FeSFeS3FeS2FeS2FeSFeS3HFeS2C2FeSC2HC10HC6H4C3HC2HCH2C6H4C3H2C6H4C3HC2H3C7H6C2HCH6C7PC10HSC6H5CH11CHC2H2PC7PC18H2CH15CHCHCH3CH3FeH2CH2SC2HC2H2CH2CH2CHC5S2HC4HC3H2C2FeCPC7H2CHSHC2HC3H8C2HFeH4CH2C6H3C3H2C4HCH2C3H3CHC3HC7PCHCH2C2HSC2H7C2H2PH2CHC6PC14PC3H8CH6CH3C7P2HC3H2C5H3SCH2C4H4CH4CHCH2CH2C2H3C4HCHCHC7HC2FeH3CH2PC4HC2FeS2FeS2FeHFeHS2FeS2FeS2FeSFeCS2CH3C7H5CHC2H2C2PHC6HC2HC3H7CHC3HCH2SCHC2H4CPCHC4HC5HCH4CHC3HC6H7CHC2HC2H2CH4C3H3C8H2CHCHCHCSH2CHCHCFeSCFeS2FeSFeS4CFeS2FeS2FeSFeS3FeS2FeS2FeHFeS3CHC4H4C6H4CHCHC3H3CH2C8H5C7H4C3H2C3HC3HC5H4C2HC3HC2H2C2H2C3HCHC3H2C3H3CHCHPC19PCH5C2H10C6PC18H21C2HC4H3C2SHCH4C3H2PC3PC5HCHCH3CH2CHCH5CHC2H2C3HCH2C2HC2H2C2H2C2SCHC2H2CHCH2CHC2H2CHC2SHPCH3C6H3C2HCHC2H4C13H3FeCH2CH2CHCHCHCHCH3CHCH2CFeSCFeS2FeS2FeSFeS3CFeS2FeS2FeSFeS3CHCHFeS2FeSFeHFeS3C5HCH2C7H4CH3C6H4C5HCH3C9H5C3HC2HC4H2C6H5C2HCPC13HSC4H2CH5CHPCH3C4H4C4H2CH4PHCH2CHC4HC2H3C6H3C4HCH3C4HC2HC4H3C2H2C4PHCSC2HCH2SHCH2CH2C7PC18H20CH2C3H4CH4CHCHC2HC9H2CHCSHSCH7C2H2C5PH2CH3C2H3C2HCHCH2C3PCH2C2H2CPH2C3H3CH2C3H2C5HCHC3H2CHC2H2CH2CHCHCHCH2CHCH3CHC3H2C2HC3H5C2H3CHC3H4CHCFeS2FeSFeSFeS3FeS2FeS2FeSFeS3C2HC7H3C3H2CH2C8H5CPH2C2HCH2CH4CHC5HC2HC2HCPH2C2H2CH2CH2CHCHC3H3C3HC6HC2H2C2HC3H3C2HCH2C8H2CH2CH4PHC2SC2HPCHCHC2H2CH2C2HCHCPHPHCH2C5SHC4HC3HCHCH2CHC2H2C3HCHC2HC2H3CHCHC3HCHC3HCH4C3HCH3C5H2CHCHCHC2H2C3FeS2FeS2FeSFeS3CSCFeS2FeS2FeSFeCS2FeS2FeSFeSFeS3C4HC3H2C2H3C6H4C6H4C6H4CHC2HCHC2H5C4H3C8HC2H5C2HCHC6H3CH3CH3C2HCH2C3PC18HCH19CHC5HC4HCH3CH6C2HCH2CPH2C6PCPC3H6CHCH5CPC5HC3HC10HCHC2HC5HC2HC3HC2H2CHCHC3H2PC2H3C6HC2HC5SC2HC2HC2HPCH5C3H2C2H3C3HCH2PH3CH6CHCHC2HC4H2C2HC2HCH7C2HCH2C7H2C2SCSCFeSFeSC2SFeS2FeS2FeSFeS3C6H6C5H3C7H5CHC7HCH2CHC6PC4H2C12H6C2H11CHCH2CHCSCHC4HC4HCHCH2CH3CH5C5H2CH2C4SC2H3CSC2H2CHC7PH2CHCHC3HCHCHCPHC2HC3HC2HC4HC2H2CH2PCHCHC3HCH6CHC2PC2H3CH2C3H2SHCH2CHCH2CH2CH2C2H2CH2C3HC2HCHFeCHCH2C2H3FeHSFeCSHCHS2FeS2FeS2FeSFeS3FeS2FeS2FeSFeS3FeSCFeS2FeSFeS2FeS2FeS2FeSFeS3C3H4PC9H4C6H4C6H4C6H4CH4C2H3C2HC6H6CH2C2H5C3H3C3SHC6PC18H8CH11C2H2C5HPH3C2H4C17PC16H19CH3CHC2HC3H2CHC2HC2H2C3H3FeCH2CHC6HC2HC3HC2H3CH2SHC2HC2SH2CHCHC4H3C2HC2SCH2CH2C3HC2HC2HCHCHCH6CHCHC2HCH6CH4C8HCHCPCHC3HC2HCH2C6HC3HCH2C2HC2H2C5HC4HC4HCHCHCHCHCH3CH5CHC2HC3HCH5C4HCH2CHC4H3SHCSFeHFeSHFeS2PHSC2S2FeS2FeS2FeSFeS3HC7H3CHFeCHC6H4CSCH2C7H5CPC2FeCHC2HC3PC20H20CHC6PC18H2CH8CH8C6PC2HC4HC2H2CH2CHC2SC2H2CH3SC3HCHC3H2C3HPH2CHPCH6C2HFeCH3CH2SHCHC4FeH2C2HCH2C3HCH2C2HC2H2C2HCHCHC2H2C2HCHCH2CH3C2HCHCHC2H3C3H4SH2CH3CHC2HCH2CHC2HC6HCHC2Fe2CSFeS2FeS2FeS2FeHFeS3C2SHC2HC6H5C8H5C3HC3HC2HC3H2C2H2C2HCHC2SH3CH3CHC3HCH2CHC2H4CH3C4H2C2HC3HC2HC2HC2H2C6PC12PCH13CH2CHSC2H6CHC2HC2HCSC4HCH2CHCHC2SHC2HPHC2HSCPC6H4CHC2H2CHC2FeS2FeS2FeSFeS3FeSCFeS2FeSFeS3HSCHSHCSFeSFeS2FeS2FeSFeS3FeS2FeS2FeSFeS3C3H2CH2CHC6H5C2H2CHCHCHC2H2C2SCHCH4C2HC2HC9H2C8H4C6H4CHC4HCH2C6H4CH3C2HC7PC18H21C2H2CPC2FeCH2C3HCHC6H2C3HC2H2C3HCH4C2HCHC6PC15H7CH8CHC2H5C2HCHCHCH4C2HFeH2CHCH2C2HC3HSHC3H2C2H2C5HC2HC5HC2HFeH3C2H2CSCH2CFeH2C3HCH2CH2C2HCH3PCH3C5H2CH5CH2CHC2H2SCHC2HCHC3H2CH2CHCH3C3HC4H2C2HC4PC3HSH2CH2CPC4HC2H2CHSCHC3H4C2HC3H3C2PH3C4HCH2PCH2PC2HC3HC2HC2H2C3FeSHSFeSFeCS2HSHFeSFeCFeS2FeSCFeSFeHSHC6H4C6H5FeCHCHC4SHC2H2CHFeC3HC6H5CSC2HCHC3H5CPCSHC3HC2HCHC3HCH3C2S2H2C2H3C3HCHC4H5CHCH2CH3CHCHCHC2SC
_chemical_formula_sum              "H3456 S576 Fe288 C4320 P144"
_cell_length_a       73.7069
_cell_length_b       72.743
_cell_length_c       72.8895
_cell_angle_alpha    81.4195
_cell_angle_beta     81.5559
_cell_angle_gamma    81.453

_space_group_name_H-M_alt    "P 1"
_space_group_IT_number       1

loop_
  _space_group_symop_operation_xyz
  'x, y, z'

loop_
  _atom_site_type_symbol
  _atom_site_label
  _atom_site_symmetry_multiplicity
  _atom_site_fract_x
  _atom_site_fract_y
  _atom_site_fract_z
  _atom_site_occupancy
  H   H1        1.0  0.19603  0.36508  0.04832  1.0000
  S   S1        1.0  0.21070  0.35430  0.14187  1.0000
  Fe  Fe1       1.0  0.10333  0.37613  0.17131  1.0000
  S   S2        1.0  0.11528  0.38061  0.19657  1.0000
  S   S3        1.0  0.12286  0.36617  0.14642  1.0000
  Fe  Fe2       1.0  0.06494  0.39820  0.18384  1.0000
  S   S4        1.0  0.07563  0.40588  0.20868  1.0000
  S   S5        1.0  0.03491  0.41130  0.18241  1.0000
  Fe  Fe3       1.0  0.10207  0.41011  0.18994  1.0000
  S   S6        1.0  0.12104  0.43220  0.18329  1.0000
  Fe  Fe4       1.0  0.08757  0.37560  0.21269  1.0000
  S   S7        1.0  0.07969  0.36031  0.24148  1.0000
  S   S8        1.0  0.09027  0.40582  0.16470  1.0000
  S   S9        1.0  0.07657  0.36773  0.18804  1.0000
  H   H2        1.0  0.18575  0.37293  0.11450  1.0000
  C   C1        1.0  0.01648  0.40111  0.17646  1.0000
  C   C2        1.0  0.01958  0.38484  0.16777  1.0000
  C   C3        1.0  0.19414  0.24751  0.08919  1.0000
  H   H3        1.0  0.22426  0.26426  0.11157  1.0000
  H   H4        1.0  0.04315  0.38523  0.25339  1.0000
  C   C4        1.0  0.06969  0.32012  0.30786  1.0000
  H   H5        1.0  0.03352  0.37782  0.16502  1.0000
  H   H6        1.0  0.14929  0.47406  0.10820  1.0000
  H   H7        1.0  0.21781  0.23469  0.10277  1.0000
  C   C5        1.0  0.08782  0.36857  0.25981  1.0000
  C   C6        1.0  0.10532  0.37443  0.25730  1.0000
  C   C7        1.0  0.11267  0.37858  0.27266  1.0000
  C   C8        1.0  0.10242  0.37733  0.29050  1.0000
  C   C9        1.0  0.08457  0.37226  0.29289  1.0000
  C   C10       1.0  0.07736  0.36777  0.27756  1.0000
  H   H8        1.0  0.11349  0.37502  0.24367  1.0000
  H   H9        1.0  0.12649  0.38250  0.27077  1.0000
  H   H10       1.0  0.07655  0.37136  0.30659  1.0000
  H   H11       1.0  0.06373  0.36351  0.27945  1.0000
  C   C11       1.0  0.10069  0.48453  0.21086  1.0000
  C   C12       1.0  0.02951  0.46589  0.25156  1.0000
  C   C13       1.0  0.11863  0.46937  0.18549  1.0000
  C   C14       1.0  0.11268  0.45230  0.19370  1.0000
  C   C15       1.0  0.10071  0.45129  0.21045  1.0000
  C   C16       1.0  0.09504  0.46739  0.21927  1.0000
  H   H12       1.0  0.20192  0.34333  0.10554  1.0000
  H   H13       1.0  0.12800  0.47006  0.17258  1.0000
  H   H14       1.0  0.09621  0.43804  0.21672  1.0000
  H   H15       1.0  0.08605  0.46673  0.23239  1.0000
  C   C17       1.0  0.18632  0.36082  0.14320  1.0000
  C   C18       1.0  0.17534  0.35610  0.16024  1.0000
  C   C19       1.0  0.15588  0.35915  0.16168  1.0000
  C   C20       1.0  0.14708  0.36631  0.14589  1.0000
  C   C21       1.0  0.15803  0.37140  0.12888  1.0000
  C   C22       1.0  0.17754  0.36908  0.12764  1.0000
  H   H16       1.0  0.18193  0.34968  0.17235  1.0000
  H   H17       1.0  0.14770  0.35492  0.17478  1.0000
  H   H18       1.0  0.15139  0.37683  0.11655  1.0000
  C   C23       1.0  0.02078  0.44067  0.13264  1.0000
  H   H19       1.0  0.01380  0.46862  0.19374  1.0000
  C   C24       1.0  0.21290  0.26453  0.10362  1.0000
  P   P1        1.0  0.08997  0.30340  0.31086  1.0000
  H   H20       1.0  0.06298  0.48273  0.20694  1.0000
  C   C25       1.0  0.12972  0.28602  0.26938  1.0000
  C   C26       1.0  0.00820  0.44384  0.21270  1.0000
  H   H21       1.0  0.03290  0.29358  0.30683  1.0000
  H   H22       1.0  0.22181  0.31734  0.13439  1.0000
  C   C27       1.0  0.20331  0.31964  0.06829  1.0000
  H   H23       1.0  0.06618  0.47670  0.26973  1.0000
  C   C28       1.0  0.20916  0.24767  0.09883  1.0000
  C   C29       1.0  0.03571  0.39623  0.26122  1.0000
  C   C30       1.0  0.19194  0.29753  0.14313  1.0000
  C   C31       1.0  0.01042  0.48316  0.14482  1.0000
  C   C32       1.0  0.13076  0.47479  0.24825  1.0000
  C   C33       1.0  0.12936  0.30168  0.25565  1.0000
  C   C34       1.0  0.17199  0.31822  0.12311  1.0000
  C   C35       1.0  0.03595  0.44795  0.13721  1.0000
  H   H24       1.0  0.99880  0.42099  0.23202  1.0000
  C   C36       1.0  0.12303  0.46279  0.31151  1.0000
  H   H25       1.0  0.20550  0.47999  0.01928  1.0000
  C   C37       1.0  0.00847  0.25678  0.32280  1.0000
  C   C38       1.0  0.10509  0.31829  0.27541  1.0000
  H   H26       1.0  0.13952  0.27366  0.26715  1.0000
  H   H27       1.0  0.20569  0.30566  0.06430  1.0000
  C   C39       1.0  0.04404  0.33301  0.29033  1.0000
  H   H28       1.0  0.16315  0.42976  0.26373  1.0000
  H   H29       1.0  0.20467  0.28835  0.14509  1.0000
  C   C40       1.0  0.05652  0.46234  0.19107  1.0000
  H   H30       1.0  0.16737  0.48794  0.25970  1.0000
  C   C41       1.0  0.04960  0.45957  0.17495  1.0000
  H   H31       1.0  0.01869  0.38477  0.31103  1.0000
  H   H32       1.0  0.09948  0.42369  0.12401  1.0000
  C   C42       1.0  0.08023  0.28196  0.31963  1.0000
  H   H33       1.0  0.00755  0.44917  0.13174  1.0000
  C   C43       1.0  0.11763  0.28643  0.28608  1.0000
  H   H34       1.0  0.14566  0.32957  0.13680  1.0000
  C   C44       1.0  0.02648  0.48222  0.23896  1.0000
  H   H35       1.0  0.15170  0.31412  0.16828  1.0000
  H   H36       1.0  0.18121  0.29339  0.17239  1.0000
  H   H37       1.0  0.20050  0.33274  0.04009  1.0000
  H   H38       1.0  0.10724  0.44531  0.14419  1.0000
  C   C45       1.0  0.14806  0.45574  0.27163  1.0000
  C   C46       1.0  0.99468  0.43464  0.22454  1.0000
  H   H39       1.0  0.00728  0.36570  0.15484  1.0000
  C   C47       1.0  0.16196  0.31176  0.15631  1.0000
  H   H40       1.0  0.00960  0.38534  0.26455  1.0000
  C   C48       1.0  0.06406  0.48895  0.12173  1.0000
  C   C49       1.0  0.04376  0.46374  0.26289  1.0000
  H   H41       1.0  0.02341  0.35293  0.30325  1.0000
  P   P2        1.0  0.04736  0.44330  0.27999  1.0000
  C   C50       1.0  0.03566  0.42469  0.27506  1.0000
  C   C51       1.0  0.07198  0.43604  0.27876  1.0000
  C   C52       1.0  0.08271  0.43467  0.26131  1.0000
  C   C53       1.0  0.10179  0.42913  0.26021  1.0000
  C   C54       1.0  0.11029  0.42502  0.27651  1.0000
  C   C55       1.0  0.09977  0.42661  0.29388  1.0000
  C   C56       1.0  0.08070  0.43209  0.29506  1.0000
  C   C57       1.0  0.01667  0.42466  0.28122  1.0000
  C   C58       1.0  0.00735  0.41047  0.27754  1.0000
  C   C59       1.0  0.01684  0.39631  0.26746  1.0000
  C   C60       1.0  0.13116  0.47926  0.30522  1.0000
  C   C61       1.0  0.04513  0.41027  0.26508  1.0000
  C   C62       1.0  0.03835  0.44891  0.30323  1.0000
  C   C63       1.0  0.03557  0.46748  0.30736  1.0000
  C   C64       1.0  0.04660  0.48367  0.12113  1.0000
  C   C65       1.0  0.22930  0.30214  0.11040  1.0000
  C   C66       1.0  0.23584  0.36186  0.02688  1.0000
  C   C67       1.0  0.23700  0.47440  0.06001  1.0000
  H   H42       1.0  0.02085  0.45498  0.25224  1.0000
  C   C68       1.0  0.02301  0.25505  0.29084  1.0000
  H   H43       1.0  0.07626  0.43758  0.24858  1.0000
  H   H44       1.0  0.10997  0.42769  0.24675  1.0000
  H   H45       1.0  0.12494  0.42008  0.27576  1.0000
  H   H46       1.0  0.10634  0.42297  0.30653  1.0000
  C   C69       1.0  0.05759  0.48050  0.19455  1.0000
  H   H47       1.0  0.00908  0.43557  0.28894  1.0000
  C   C70       1.0  0.23237  0.48433  0.07554  1.0000
  C   C71       1.0  0.18269  0.26417  0.08455  1.0000
  H   H48       1.0  0.17084  0.26401  0.07739  1.0000
  H   H49       1.0  0.05977  0.40961  0.26025  1.0000
  H   H50       1.0  0.03851  0.47902  0.29669  1.0000
  H   H51       1.0  0.11836  0.27439  0.29678  1.0000
  C   C72       1.0  0.04370  0.47498  0.16224  1.0000
  H   H52       1.0  0.06648  0.31292  0.28080  1.0000
  H   H53       1.0  0.10386  0.33847  0.31289  1.0000
  C   C73       1.0  0.20318  0.32253  0.08694  1.0000
  C   C74       1.0  0.05316  0.43664  0.13697  1.0000
  H   H54       1.0  0.03860  0.27762  0.27833  1.0000
  C   C75       1.0  0.18855  0.46934  0.12905  1.0000
  C   C76       1.0  0.17395  0.46389  0.12155  1.0000
  C   C77       1.0  0.16044  0.47780  0.11446  1.0000
  P   P3        1.0  0.17353  0.43958  0.11902  1.0000
  C   C78       1.0  0.14990  0.43522  0.11986  1.0000
  C   C79       1.0  0.18647  0.43485  0.09676  1.0000
  C   C80       1.0  0.18814  0.44929  0.08172  1.0000
  C   C81       1.0  0.19819  0.44554  0.06455  1.0000
  C   C82       1.0  0.20678  0.42741  0.06230  1.0000
  C   C83       1.0  0.20509  0.41297  0.07712  1.0000
  C   C84       1.0  0.19484  0.41660  0.09425  1.0000
  C   C85       1.0  0.13593  0.44339  0.13258  1.0000
  C   C86       1.0  0.19856  0.35618  0.07749  1.0000
  C   C87       1.0  0.11345  0.42714  0.12264  1.0000
  C   C88       1.0  0.12730  0.41872  0.11016  1.0000
  C   C89       1.0  0.14547  0.42272  0.10875  1.0000
  C   C90       1.0  0.18361  0.42408  0.13776  1.0000
  C   C91       1.0  0.17244  0.41450  0.15229  1.0000
  C   C92       1.0  0.18049  0.40164  0.16598  1.0000
  C   C93       1.0  0.19971  0.39825  0.16536  1.0000
  C   C94       1.0  0.21092  0.40796  0.15121  1.0000
  C   C95       1.0  0.20292  0.42076  0.13742  1.0000
  C   C96       1.0  0.06064  0.32115  0.29199  1.0000
  C   C97       1.0  0.00341  0.46158  0.20307  1.0000
  H   H55       1.0  0.11691  0.33015  0.24826  1.0000
  H   H56       1.0  0.19932  0.45906  0.13437  1.0000
  C   C98       1.0  0.20131  0.34089  0.09134  1.0000
  H   H57       1.0  0.18181  0.46347  0.08321  1.0000
  H   H58       1.0  0.19963  0.45673  0.05307  1.0000
  H   H59       1.0  0.21505  0.42456  0.04918  1.0000
  H   H60       1.0  0.21209  0.39903  0.07539  1.0000
  H   H61       1.0  0.19366  0.40522  0.10560  1.0000
  C   C99       1.0  0.99827  0.41013  0.17982  1.0000
  C   C100      1.0  0.03626  0.34371  0.30460  1.0000
  C   C101      1.0  0.21748  0.47051  0.01467  1.0000
  H   H62       1.0  0.12403  0.40866  0.10199  1.0000
  H   H63       1.0  0.15606  0.41567  0.09936  1.0000
  H   H64       1.0  0.15751  0.41652  0.15309  1.0000
  H   H65       1.0  0.17175  0.39398  0.17682  1.0000
  H   H66       1.0  0.20593  0.38785  0.17565  1.0000
  H   H67       1.0  0.22585  0.40523  0.15068  1.0000
  H   H68       1.0  0.21184  0.42774  0.12628  1.0000
  H   H69       1.0  0.00008  0.45925  0.16252  1.0000
  H   H70       1.0  0.20014  0.49213  0.05776  1.0000
  H   H71       1.0  0.03745  0.33424  0.27776  1.0000
  H   H72       1.0  0.13874  0.30143  0.24274  1.0000
  C   C102      1.0  0.02252  0.42206  0.12918  1.0000
  C   C103      1.0  0.07017  0.25302  0.31446  1.0000
  C   C104      1.0  0.21556  0.45775  0.00270  1.0000
  C   C105      1.0  0.23293  0.31031  0.12553  1.0000
  C   C106      1.0  0.05495  0.47808  0.26132  1.0000
  C   C107      1.0  0.99674  0.47356  0.15607  1.0000
  S   S10       1.0  0.23594  0.39434  0.10941  1.0000
  C   C108      1.0  0.15858  0.32057  0.13854  1.0000
  H   H73       1.0  0.02235  0.43703  0.21075  1.0000
  H   H74       1.0  0.04076  0.39623  0.12724  1.0000
  H   H75       1.0  0.07293  0.43300  0.30873  1.0000
  C   C109      1.0  0.03909  0.48696  0.10415  1.0000
  C   C110      1.0  0.11709  0.31783  0.25872  1.0000
  C   C111      1.0  0.18891  0.30690  0.12534  1.0000
  C   C112      1.0  0.07859  0.26913  0.30754  1.0000
  C   C113      1.0  0.10486  0.30240  0.28897  1.0000
  H   H76       1.0  0.16906  0.32530  0.10952  1.0000
  C   C114      1.0  0.11240  0.48559  0.19394  1.0000
  C   C115      1.0  0.14857  0.44518  0.24159  1.0000
  H   H77       1.0  0.08365  0.27160  0.29279  1.0000
  C   C116      1.0  0.01624  0.27327  0.32276  1.0000
  H   H78       1.0  0.23547  0.44793  0.11063  1.0000
  C   C117      1.0  0.15409  0.44233  0.25941  1.0000
  C   C118      1.0  0.04514  0.34261  0.32049  1.0000
  C   C119      1.0  0.03955  0.41076  0.12952  1.0000
  S   S11       1.0  0.11276  0.38134  0.30952  1.0000
  C   C120      1.0  0.14066  0.48646  0.31733  1.0000
  H   H79       1.0  0.15308  0.45350  0.28512  1.0000
  P   P4        1.0  0.20591  0.30314  0.10530  1.0000
  H   H80       1.0  0.06805  0.40924  0.13349  1.0000
  Fe  Fe5       1.0  0.23521  0.36434  0.12188  1.0000
  C   C121      1.0  0.13601  0.47196  0.26629  1.0000
  H   H81       1.0  0.11530  0.45728  0.30252  1.0000
  C   C122      1.0  0.13714  0.46149  0.23596  1.0000
  C   C123      1.0  0.19796  0.35322  0.05911  1.0000
  H   H82       1.0  0.22942  0.34917  0.02998  1.0000
  C   C124      1.0  0.04475  0.49318  0.16593  1.0000
  C   C125      1.0  0.17860  0.30018  0.15860  1.0000
  C   C126      1.0  0.05491  0.41811  0.13318  1.0000
  H   H83       1.0  0.09612  0.33114  0.27770  1.0000
  C   C127      1.0  0.00468  0.37801  0.16201  1.0000
  H   H84       1.0  0.06120  0.45038  0.20077  1.0000
  H   H85       1.0  0.19696  0.37031  0.08102  1.0000
  H   H86       1.0  0.15323  0.43485  0.23203  1.0000
  H   H87       1.0  0.01056  0.41624  0.12657  1.0000
  C   C128      1.0  0.20046  0.33496  0.05448  1.0000
  H   H88       1.0  0.20059  0.49256  0.13560  1.0000
  H   H89       1.0  0.13334  0.46383  0.22195  1.0000
  P   P5        1.0  0.03408  0.47205  0.14164  1.0000
  H   H90       1.0  0.04874  0.44543  0.17264  1.0000
  C   C129      1.0  0.18639  0.28104  0.08934  1.0000
  H   H91       1.0  0.03720  0.41995  0.31479  1.0000
  H   H92       1.0  0.01565  0.48376  0.23007  1.0000
  H   H93       1.0  0.06908  0.24304  0.30515  1.0000
  C   C130      1.0  0.20186  0.28143  0.09838  1.0000
  H   H94       1.0  0.19122  0.23444  0.08553  1.0000
  H   H95       1.0  0.17714  0.29378  0.08604  1.0000
  H   H96       1.0  0.06517  0.44205  0.13999  1.0000
  H   H97       1.0  0.13916  0.45229  0.14201  1.0000
  C   C131      1.0  0.05171  0.49444  0.24890  1.0000
  C   C132      1.0  0.02693  0.28085  0.30674  1.0000
  C   C133      1.0  0.23564  0.45529  0.09656  1.0000
  C   C134      1.0  0.18938  0.48833  0.12972  1.0000
  H   H98       1.0  0.23716  0.36411  0.05585  1.0000
  P   P6        1.0  0.13012  0.49020  0.28138  1.0000
  H   H99       1.0  0.12198  0.48732  0.24351  1.0000
  C   C135      1.0  0.11778  0.43942  0.13388  1.0000
  H   H100      1.0  0.22848  0.48260  0.10561  1.0000
  C   C136      1.0  0.03478  0.43433  0.31765  1.0000
  C   C137      1.0  0.23170  0.47480  0.09372  1.0000
  H   H101      1.0  0.02579  0.48266  0.10337  1.0000
  H   H102      1.0  0.00160  0.32549  0.32330  1.0000
  H   H103      1.0  0.99279  0.41031  0.28269  1.0000
  H   H104      1.0  0.07042  0.48619  0.13451  1.0000
  H   H105      1.0  0.99572  0.42283  0.18634  1.0000
  C   C138      1.0  0.03022  0.27181  0.29073  1.0000
  C   C139      1.0  0.23937  0.36995  0.00824  1.0000
  H   H106      1.0  0.00735  0.23415  0.30690  1.0000
  P   P7        1.0  0.23727  0.48687  0.03652  1.0000
  H   H107      1.0  0.02589  0.24784  0.27854  1.0000
  C   C140      1.0  0.01233  0.24743  0.30689  1.0000
  C   C141      1.0  0.23472  0.47087  0.02059  1.0000
  H   H108      1.0  0.09455  0.49201  0.30669  1.0000
  C   C142      1.0  0.06174  0.33081  0.32218  1.0000
  C   C143      1.0  0.10823  0.32834  0.32440  1.0000
  H   H109      1.0  0.20225  0.45746  0.99820  1.0000
  C   C144      1.0  0.23081  0.44534  0.99651  1.0000
  H   H110      1.0  0.99220  0.32096  0.29166  1.0000
  C   C145      1.0  0.01429  0.38232  0.32591  1.0000
  C   C146      1.0  0.02907  0.47133  0.32560  1.0000
  C   C147      1.0  0.24037  0.37021  0.04148  1.0000
  C   C148      1.0  0.23515  0.11424  0.42308  1.0000
  H   H111      1.0  0.07588  0.29247  0.44127  1.0000
  C   C149      1.0  0.02850  0.33784  0.39390  1.0000
  H   H112      1.0  0.11214  0.01226  0.46525  1.0000
  H   H113      1.0  0.22955  0.10105  0.42478  1.0000
  C   C150      1.0  0.01049  0.33096  0.65018  1.0000
  C   C151      1.0  0.11003  0.29706  0.34158  1.0000
  Fe  Fe6       1.0  0.09484  0.40422  0.37051  1.0000
  H   H114      1.0  0.18201  0.14023  0.36644  1.0000
  S   S12       1.0  0.10386  0.42926  0.38038  1.0000
  Fe  Fe7       1.0  0.09473  0.36089  0.37768  1.0000
  S   S13       1.0  0.07801  0.36122  0.35424  1.0000
  S   S14       1.0  0.10449  0.33447  0.39645  1.0000
  H   H115      1.0  0.01996  0.45966  0.35380  1.0000
  Fe  Fe8       1.0  0.06169  0.38679  0.36534  1.0000
  S   S15       1.0  0.03115  0.39163  0.37355  1.0000
  S   S16       1.0  0.11448  0.37977  0.36095  1.0000
  S   S17       1.0  0.07711  0.38516  0.38986  1.0000
  Fe  Fe9       1.0  0.15946  0.06745  0.60056  1.0000
  S   S18       1.0  0.18960  0.07192  0.59498  1.0000
  S   S19       1.0  0.13367  0.08836  0.60759  1.0000
  Fe  Fe10      1.0  0.16803  0.02653  0.59087  1.0000
  S   S20       1.0  0.19830  0.02831  0.58516  1.0000
  Fe  Fe11      1.0  0.19469  0.04279  0.61065  1.0000
  S   S21       1.0  0.21558  0.03099  0.63067  1.0000
  Fe  Fe12      1.0  0.19063  0.05671  0.57000  1.0000
  S   S22       1.0  0.20603  0.06300  0.54112  1.0000
  S   S23       1.0  0.16450  0.03899  0.61786  1.0000
  S   S24       1.0  0.16033  0.05449  0.57423  1.0000
  Fe  Fe13      1.0  0.17879  0.02632  0.46001  1.0000
  S   S25       1.0  0.14996  0.02995  0.45279  1.0000
  S   S26       1.0  0.18342  0.01115  0.48825  1.0000
  Fe  Fe14      1.0  0.19369  0.04473  0.42238  1.0000
  S   S27       1.0  0.16582  0.04996  0.41202  1.0000
  S   S28       1.0  0.21896  0.05205  0.40277  1.0000
  Fe  Fe15      1.0  0.15527  0.05913  0.44025  1.0000
  S   S29       1.0  0.13276  0.08204  0.44982  1.0000
  Fe  Fe16      1.0  0.16306  0.02030  0.42555  1.0000
  C   C152      1.0  0.01767  0.42451  0.41004  1.0000
  S   S30       1.0  0.18345  0.05598  0.44959  1.0000
  S   S31       1.0  0.19157  0.01458  0.43379  1.0000
  Fe  Fe17      1.0  0.08717  0.23892  0.61894  1.0000
  Fe  Fe18      1.0  0.07401  0.23014  0.58367  1.0000
  S   S32       1.0  0.07218  0.19978  0.59454  1.0000
  S   S33       1.0  0.06322  0.24233  0.55629  1.0000
  Fe  Fe19      1.0  0.05932  0.21109  0.62114  1.0000
  S   S34       1.0  0.03548  0.19936  0.63983  1.0000
  Fe  Fe20      1.0  0.09941  0.19993  0.60497  1.0000
  S   S35       1.0  0.12490  0.17771  0.60240  1.0000
  S   S36       1.0  0.05900  0.24146  0.60975  1.0000
  S   S37       1.0  0.10235  0.22979  0.59186  1.0000
  Fe  Fe21      1.0  0.08183  0.23172  0.42035  1.0000
  S   S38       1.0  0.07382  0.20365  0.41753  1.0000
  S   S39       1.0  0.07294  0.25701  0.39969  1.0000
  Fe  Fe22      1.0  0.09596  0.21702  0.45769  1.0000
  S   S40       1.0  0.08860  0.18808  0.45826  1.0000
  S   S41       1.0  0.11099  0.22360  0.48019  1.0000
  Fe  Fe23      1.0  0.10075  0.19087  0.42808  1.0000
  S   S42       1.0  0.12115  0.16819  0.41499  1.0000
  Fe  Fe24      1.0  0.06234  0.20301  0.44783  1.0000
  S   S43       1.0  0.03405  0.19638  0.46122  1.0000
  S   S44       1.0  0.10993  0.21916  0.42805  1.0000
  S   S45       1.0  0.06872  0.23169  0.45007  1.0000
  H   H116      1.0  0.01414  0.28011  0.33525  1.0000
  C   C153      1.0  0.99248  0.16938  0.52951  1.0000
  H   H117      1.0  0.05924  0.33027  0.48555  1.0000
  H   H118      1.0  0.03553  0.19926  0.42087  1.0000
  S   S46       1.0  0.08633  0.20905  0.63255  1.0000
  C   C154      1.0  0.07647  0.23653  0.53534  1.0000
  C   C155      1.0  0.09543  0.23050  0.53458  1.0000
  C   C156      1.0  0.10594  0.22712  0.51744  1.0000
  C   C157      1.0  0.09746  0.22882  0.50119  1.0000
  C   C158      1.0  0.07850  0.23489  0.50192  1.0000
  C   C159      1.0  0.06807  0.23894  0.51893  1.0000
  H   H119      1.0  0.10208  0.22888  0.54712  1.0000
  H   H120      1.0  0.12065  0.22289  0.51682  1.0000
  H   H121      1.0  0.07193  0.23681  0.48935  1.0000
  H   H122      1.0  0.05346  0.24387  0.51936  1.0000
  C   C160      1.0  0.01453  0.19993  0.63073  1.0000
  H   H123      1.0  0.07036  0.00266  0.52880  1.0000
  C   C161      1.0  0.12982  0.10588  0.43976  1.0000
  C   C162      1.0  0.11704  0.11872  0.44922  1.0000
  C   C163      1.0  0.11415  0.13779  0.44179  1.0000
  C   C164      1.0  0.12411  0.14425  0.42479  1.0000
  C   C165      1.0  0.13698  0.13141  0.41536  1.0000
  C   C166      1.0  0.13981  0.11231  0.42277  1.0000
  H   H124      1.0  0.10924  0.11383  0.46231  1.0000
  H   H125      1.0  0.10417  0.14746  0.44917  1.0000
  H   H126      1.0  0.14469  0.13623  0.40215  1.0000
  H   H127      1.0  0.14959  0.10255  0.41529  1.0000
  H   H128      1.0  0.02308  0.34284  0.38078  1.0000
  S   S47       1.0  0.07814  0.40731  0.34666  1.0000
  C   C167      1.0  0.13135  0.11305  0.60794  1.0000
  C   C168      1.0  0.11358  0.12342  0.60876  1.0000
  C   C169      1.0  0.11117  0.14317  0.60784  1.0000
  C   C170      1.0  0.12655  0.15276  0.60627  1.0000
  C   C171      1.0  0.14416  0.14227  0.60665  1.0000
  C   C172      1.0  0.14662  0.12259  0.60724  1.0000
  H   H129      1.0  0.10162  0.11617  0.60966  1.0000
  H   H130      1.0  0.09749  0.15100  0.60784  1.0000
  H   H131      1.0  0.15601  0.14953  0.60623  1.0000
  H   H132      1.0  0.16032  0.11480  0.60721  1.0000
  C   C173      1.0  0.20036  0.04820  0.52641  1.0000
  C   C174      1.0  0.20866  0.04879  0.50780  1.0000
  C   C175      1.0  0.20322  0.03781  0.49575  1.0000
  C   C176      1.0  0.18980  0.02587  0.50251  1.0000
  C   C177      1.0  0.18195  0.02491  0.52120  1.0000
  C   C178      1.0  0.18727  0.03595  0.53312  1.0000
  H   H133      1.0  0.21936  0.05760  0.50275  1.0000
  H   H134      1.0  0.20964  0.03831  0.48138  1.0000
  H   H135      1.0  0.17185  0.01544  0.52659  1.0000
  H   H136      1.0  0.18136  0.03467  0.54758  1.0000
  H   H137      1.0  0.05640  0.20928  0.48892  1.0000
  H   H138      1.0  0.23828  0.00022  0.60592  1.0000
  C   C179      1.0  0.02697  0.17310  0.59413  1.0000
  C   C180      1.0  0.09556  0.31305  0.39711  1.0000
  C   C181      1.0  0.08129  0.31166  0.38686  1.0000
  C   C182      1.0  0.07435  0.29446  0.38796  1.0000
  C   C183      1.0  0.08180  0.27843  0.39903  1.0000
  C   C184      1.0  0.09613  0.27976  0.40920  1.0000
  C   C185      1.0  0.10292  0.29702  0.40828  1.0000
  H   H139      1.0  0.07560  0.32383  0.37812  1.0000
  H   H140      1.0  0.06314  0.29360  0.38023  1.0000
  H   H141      1.0  0.10199  0.26749  0.41775  1.0000
  H   H142      1.0  0.11401  0.29793  0.41620  1.0000
  C   C186      1.0  0.08340  0.45499  0.35705  1.0000
  C   C187      1.0  0.09570  0.45217  0.37038  1.0000
  C   C188      1.0  0.10170  0.46784  0.37572  1.0000
  C   C189      1.0  0.19829  0.14387  0.53798  1.0000
  H   H143      1.0  0.07847  0.44325  0.35295  1.0000
  H   H144      1.0  0.11123  0.46580  0.38602  1.0000
  C   C190      1.0  0.01844  0.23041  0.54625  1.0000
  C   C191      1.0  0.09129  0.28166  0.64083  1.0000
  C   C192      1.0  0.07961  0.29459  0.63025  1.0000
  C   C193      1.0  0.07569  0.31340  0.63396  1.0000
  H   H145      1.0  0.07393  0.29020  0.61900  1.0000
  C   C194      1.0  0.09889  0.28782  0.65509  1.0000
  H   H146      1.0  0.12860  0.24916  0.44605  1.0000
  H   H147      1.0  0.06822  0.32991  0.33475  1.0000
  C   C195      1.0  0.13487  0.46024  0.34116  1.0000
  C   C196      1.0  0.01372  0.16137  0.60205  1.0000
  H   H148      1.0  0.02068  0.30929  0.43504  1.0000
  C   C197      1.0  0.00797  0.26900  0.59758  1.0000
  C   C198      1.0  0.00111  0.32249  0.33835  1.0000
  H   H149      1.0  0.05687  0.23717  0.33880  1.0000
  H   H150      1.0  0.21105  0.14086  0.52888  1.0000
  H   H151      1.0  0.05088  0.27569  0.43614  1.0000
  C   C199      1.0  0.02028  0.44619  0.64562  1.0000
  H   H152      1.0  0.00322  0.23730  0.43074  1.0000
  S   S48       1.0  0.09740  0.25787  0.63667  1.0000
  C   C200      1.0  0.99177  0.26064  0.60274  1.0000
  H   H153      1.0  0.03289  0.22477  0.54356  1.0000
  C   C201      1.0  0.18453  0.13015  0.37862  1.0000
  C   C202      1.0  0.18353  0.11117  0.37826  1.0000
  C   C203      1.0  0.18713  0.09812  0.39382  1.0000
  C   C204      1.0  0.19127  0.10406  0.40992  1.0000
  C   C205      1.0  0.19172  0.12320  0.41063  1.0000
  C   C206      1.0  0.18896  0.13611  0.39461  1.0000
  P   P8        1.0  0.19876  0.13060  0.43077  1.0000
  C   C207      1.0  0.18656  0.15274  0.43695  1.0000
  C   C208      1.0  0.19267  0.16126  0.45059  1.0000
  C   C209      1.0  0.18345  0.17837  0.45565  1.0000
  C   C210      1.0  0.16796  0.18702  0.44724  1.0000
  C   C211      1.0  0.16144  0.17835  0.43411  1.0000
  C   C212      1.0  0.17049  0.16113  0.42919  1.0000
  C   C213      1.0  0.02858  0.49202  0.65218  1.0000
  C   C214      1.0  0.22340  0.13106  0.42522  1.0000
  H   H154      1.0  0.18023  0.10651  0.36584  1.0000
  H   H155      1.0  0.18692  0.08333  0.39337  1.0000
  H   H156      1.0  0.04394  0.29394  0.65820  1.0000
  H   H157      1.0  0.01235  0.25955  0.37323  1.0000
  H   H158      1.0  0.20461  0.15467  0.45728  1.0000
  H   H159      1.0  0.18827  0.18493  0.46611  1.0000
  H   H160      1.0  0.16070  0.20024  0.45118  1.0000
  H   H161      1.0  0.14914  0.18482  0.42792  1.0000
  H   H162      1.0  0.16467  0.15443  0.41954  1.0000
  H   H163      1.0  0.21810  0.12168  0.50151  1.0000
  C   C215      1.0  0.02156  0.21773  0.35561  1.0000
  H   H164      1.0  0.03909  0.35067  0.33171  1.0000
  H   H165      1.0  0.07045  0.45445  0.42100  1.0000
  H   H166      1.0  0.03990  0.36244  0.56980  1.0000
  H   H167      1.0  0.02893  0.28157  0.60719  1.0000
  C   C216      1.0  0.08289  0.31941  0.64860  1.0000
  C   C217      1.0  0.10352  0.31005  0.32694  1.0000
  S   S49       1.0  0.07676  0.34309  0.65325  1.0000
  H   H168      1.0  0.01724  0.21005  0.34574  1.0000
  C   C218      1.0  0.01652  0.31132  0.36579  1.0000
  C   C219      1.0  0.01387  0.24928  0.54883  1.0000
  H   H169      1.0  0.19849  0.02782  0.38322  1.0000
  H   H170      1.0  0.00690  0.31936  0.61058  1.0000
  C   C220      1.0  0.23097  0.14805  0.42201  1.0000
  C   C221      1.0  0.05091  0.33953  0.41455  1.0000
  C   C222      1.0  0.03552  0.47365  0.38557  1.0000
  C   C223      1.0  0.00165  0.28996  0.41077  1.0000
  H   H171      1.0  0.02965  0.31025  0.33754  1.0000
  H   H172      1.0  0.01439  0.15402  0.61605  1.0000
  H   H173      1.0  0.00060  0.15846  0.53774  1.0000
  C   C224      1.0  0.02583  0.42707  0.64481  1.0000
  H   H174      1.0  0.21014  0.13196  0.56317  1.0000
  H   H175      1.0  0.13194  0.32543  0.36166  1.0000
  H   H176      1.0  0.21299  0.08645  0.48688  1.0000
  C   C225      1.0  0.12013  0.30265  0.35412  1.0000
  C   C226      1.0  0.09571  0.48613  0.36749  1.0000
  C   C227      1.0  0.07252  0.27892  0.33844  1.0000
  H   H177      1.0  0.03846  0.24482  0.39043  1.0000
  H   H178      1.0  0.01074  0.20450  0.40036  1.0000
  C   C228      1.0  0.07718  0.47317  0.34910  1.0000
  H   H179      1.0  0.00220  0.42196  0.38820  1.0000
  H   H180      1.0  0.21910  0.10005  0.53125  1.0000
  H   H181      1.0  0.05076  0.36316  0.47204  1.0000
  H   H182      1.0  0.03025  0.42953  0.43335  1.0000
  H   H183      1.0  0.17788  0.00844  0.37277  1.0000
  H   H184      1.0  0.00292  0.45046  0.44575  1.0000
  C   C229      1.0  0.03621  0.20951  0.36553  1.0000
  C   C230      1.0  0.02716  0.31915  0.42439  1.0000
  H   H185      1.0  0.06303  0.34506  0.41706  1.0000
  C   C231      1.0  0.10701  0.02572  0.43795  1.0000
  C   C232      1.0  0.03998  0.36131  0.58477  1.0000
  H   H186      1.0  0.06891  0.37667  0.44298  1.0000
  C   C233      1.0  0.02834  0.43821  0.33586  1.0000
  H   H187      1.0  0.02627  0.47893  0.37524  1.0000
  H   H188      1.0  0.04049  0.35786  0.63834  1.0000
  C   C234      1.0  0.99802  0.20092  0.45413  1.0000
  H   H189      1.0  0.03782  0.17486  0.60206  1.0000
  C   C235      1.0  0.01877  0.24553  0.37105  1.0000
  C   C236      1.0  0.00225  0.18754  0.63978  1.0000
  C   C237      1.0  0.23843  0.05507  0.41284  1.0000
  H   H190      1.0  0.06717  0.32341  0.62532  1.0000
  C   C238      1.0  0.99276  0.26362  0.63529  1.0000
  H   H191      1.0  0.01534  0.27736  0.64034  1.0000
  H   H192      1.0  0.02902  0.30528  0.37180  1.0000
  C   C239      1.0  0.00025  0.31686  0.37735  1.0000
  C   C240      1.0  0.00269  0.44444  0.43309  1.0000
  C   C241      1.0  0.01670  0.19942  0.44638  1.0000
  C   C242      1.0  0.99191  0.37234  0.35184  1.0000
  C   C243      1.0  0.05692  0.44832  0.39885  1.0000
  C   C244      1.0  0.04448  0.45526  0.38597  1.0000
  P   P9        1.0  0.00066  0.31461  0.40229  1.0000
  C   C245      1.0  0.20683  0.10604  0.46280  1.0000
  H   H193      1.0  0.03846  0.39143  0.33354  1.0000
  C   C246      1.0  0.06435  0.26272  0.34536  1.0000
  H   H194      1.0  0.04227  0.44644  0.37599  1.0000
  H   H195      1.0  0.01204  0.35501  0.59128  1.0000
  C   C247      1.0  0.16587  0.15710  0.54229  1.0000
  C   C248      1.0  0.18241  0.15301  0.53048  1.0000
  P   P10       1.0  0.14598  0.17057  0.53282  1.0000
  C   C249      1.0  0.12409  0.16568  0.54594  1.0000
  C   C250      1.0  0.14871  0.19469  0.53330  1.0000
  C   C251      1.0  0.14239  0.20300  0.54966  1.0000
  C   C252      1.0  0.14463  0.22163  0.55030  1.0000
  C   C253      1.0  0.15337  0.23202  0.53470  1.0000
  C   C254      1.0  0.16011  0.22370  0.51852  1.0000
  C   C255      1.0  0.15796  0.20502  0.51785  1.0000
  C   C256      1.0  0.10845  0.17917  0.54471  1.0000
  C   C257      1.0  0.09124  0.17540  0.55419  1.0000
  C   C258      1.0  0.08933  0.15776  0.56430  1.0000
  C   C259      1.0  0.10470  0.14399  0.56501  1.0000
  C   C260      1.0  0.12209  0.14809  0.55622  1.0000
  C   C261      1.0  0.14460  0.16519  0.50974  1.0000
  C   C262      1.0  0.15064  0.14701  0.50511  1.0000
  C   C263      1.0  0.14849  0.14255  0.48761  1.0000
  C   C264      1.0  0.14011  0.15611  0.47470  1.0000
  C   C265      1.0  0.13378  0.17411  0.47935  1.0000
  C   C266      1.0  0.13586  0.17859  0.49686  1.0000
  H   H196      1.0  0.18315  0.15718  0.51553  1.0000
  H   H197      1.0  0.13573  0.19511  0.56200  1.0000
  H   H198      1.0  0.13957  0.22795  0.56296  1.0000
  H   H199      1.0  0.15497  0.24650  0.53521  1.0000
  H   H200      1.0  0.16337  0.19875  0.50528  1.0000
  H   H201      1.0  0.10959  0.19266  0.53653  1.0000
  H   H202      1.0  0.07942  0.18622  0.55365  1.0000
  H   H203      1.0  0.07602  0.15485  0.57177  1.0000
  H   H204      1.0  0.10324  0.13031  0.57286  1.0000
  H   H205      1.0  0.13394  0.13761  0.55742  1.0000
  H   H206      1.0  0.15658  0.13615  0.51517  1.0000
  H   H207      1.0  0.15292  0.12849  0.48418  1.0000
  H   H208      1.0  0.13835  0.15264  0.46116  1.0000
  H   H209      1.0  0.12712  0.18461  0.46943  1.0000
  H   H210      1.0  0.13039  0.19243  0.50044  1.0000
  C   C267      1.0  0.01004  0.21194  0.61466  1.0000
  C   C268      1.0  0.17554  0.10880  0.45525  1.0000
  C   C269      1.0  0.00207  0.42852  0.40060  1.0000
  C   C270      1.0  0.01805  0.43256  0.42619  1.0000
  H   H211      1.0  0.03576  0.19277  0.57074  1.0000
  H   H212      1.0  0.23595  0.05549  0.56175  1.0000
  C   C271      1.0  0.06035  0.45971  0.41143  1.0000
  C   C272      1.0  0.13368  0.05148  0.49790  1.0000
  C   C273      1.0  0.13649  0.03437  0.50930  1.0000
  C   C274      1.0  0.13264  0.03369  0.52872  1.0000
  C   C275      1.0  0.12601  0.05012  0.53673  1.0000
  C   C276      1.0  0.12299  0.06740  0.52534  1.0000
  C   C277      1.0  0.12712  0.06792  0.50582  1.0000
  P   P11       1.0  0.11723  0.08905  0.53562  1.0000
  C   C278      1.0  0.10126  0.08620  0.55701  1.0000
  C   C279      1.0  0.13900  0.09516  0.53989  1.0000
  C   C280      1.0  0.14101  0.10090  0.55695  1.0000
  C   C281      1.0  0.15827  0.10430  0.56043  1.0000
  C   C282      1.0  0.17357  0.10237  0.54682  1.0000
  C   C283      1.0  0.17159  0.09736  0.52955  1.0000
  C   C284      1.0  0.15438  0.09375  0.52607  1.0000
  C   C285      1.0  0.08278  0.09470  0.55766  1.0000
  C   C286      1.0  0.07082  0.09339  0.57446  1.0000
  C   C287      1.0  0.07719  0.08364  0.59078  1.0000
  C   C288      1.0  0.09546  0.07504  0.59027  1.0000
  C   C289      1.0  0.10739  0.07620  0.57348  1.0000
  C   C290      1.0  0.10675  0.10738  0.51935  1.0000
  C   C291      1.0  0.09386  0.10354  0.50848  1.0000
  C   C292      1.0  0.08546  0.11787  0.49625  1.0000
  C   C293      1.0  0.08976  0.13614  0.49485  1.0000
  C   C294      1.0  0.10235  0.14011  0.50584  1.0000
  C   C295      1.0  0.11077  0.12581  0.51807  1.0000
  H   H213      1.0  0.13703  0.05217  0.48287  1.0000
  H   H214      1.0  0.14220  0.02176  0.50308  1.0000
  H   H215      1.0  0.13547  0.02054  0.53764  1.0000
  H   H216      1.0  0.12387  0.04924  0.55178  1.0000
  H   H217      1.0  0.12584  0.08103  0.49658  1.0000
  H   H218      1.0  0.12942  0.10264  0.56777  1.0000
  H   H219      1.0  0.15986  0.10800  0.57389  1.0000
  H   H220      1.0  0.18707  0.10422  0.54988  1.0000
  H   H221      1.0  0.18363  0.09545  0.51924  1.0000
  H   H222      1.0  0.15321  0.08941  0.51280  1.0000
  H   H223      1.0  0.07751  0.10258  0.54535  1.0000
  H   H224      1.0  0.05666  0.10013  0.57490  1.0000
  H   H225      1.0  0.06808  0.08293  0.60390  1.0000
  H   H226      1.0  0.10064  0.06790  0.60300  1.0000
  H   H227      1.0  0.12161  0.06991  0.57366  1.0000
  H   H228      1.0  0.09030  0.08946  0.50944  1.0000
  H   H229      1.0  0.07574  0.11479  0.48766  1.0000
  H   H230      1.0  0.08335  0.14720  0.48523  1.0000
  H   H231      1.0  0.10559  0.15429  0.50486  1.0000
  H   H232      1.0  0.12040  0.12916  0.52650  1.0000
  C   C296      1.0  0.11207  0.99763  0.57426  1.0000
  C   C297      1.0  0.99751  0.37532  0.33260  1.0000
  H   H233      1.0  0.02709  0.48565  0.32877  1.0000
  H   H234      1.0  0.12456  0.29280  0.36581  1.0000
  H   H235      1.0  0.12218  0.34790  0.33478  1.0000
  H   H236      1.0  0.09509  0.35696  0.42715  1.0000
  H   H237      1.0  0.10305  0.32403  0.43967  1.0000
  H   H238      1.0  0.22488  0.01269  0.39947  1.0000
  P   P12       1.0  0.00428  0.35014  0.63253  1.0000
  H   H239      1.0  0.14964  0.48261  0.34465  1.0000
  H   H240      1.0  0.11885  0.44046  0.33417  1.0000
  C   C298      1.0  0.18482  0.08718  0.48182  1.0000
  H   H241      1.0  0.08020  0.18347  0.49901  1.0000
  C   C299      1.0  0.02439  0.35538  0.61642  1.0000
  C   C300      1.0  0.04247  0.32667  0.42805  1.0000
  H   H242      1.0  0.00571  0.17819  0.65213  1.0000
  C   C301      1.0  0.99534  0.25680  0.55269  1.0000
  C   C302      1.0  0.99565  0.37162  0.64237  1.0000
  C   C303      1.0  0.02123  0.20068  0.42696  1.0000
  C   C304      1.0  0.05129  0.47803  0.41120  1.0000
  H   H243      1.0  0.22608  0.06761  0.61545  1.0000
  H   H244      1.0  0.23742  0.01011  0.35383  1.0000
  H   H245      1.0  0.11994  0.00901  0.57464  1.0000
  H   H246      1.0  0.99746  0.37618  0.37913  1.0000
  C   C305      1.0  0.20251  0.09271  0.47810  1.0000
  C   C306      1.0  0.02040  0.32430  0.40705  1.0000
  C   C307      1.0  0.02534  0.45670  0.33978  1.0000
  C   C308      1.0  0.99265  0.32589  0.61192  1.0000
  H   H247      1.0  0.03148  0.28506  0.41050  1.0000
  H   H248      1.0  0.05420  0.48672  0.42098  1.0000
  H   H249      1.0  0.05008  0.35556  0.38739  1.0000
  C   C309      1.0  0.14222  0.29068  0.45092  1.0000
  H   H250      1.0  0.04289  0.19550  0.36356  1.0000
  H   H251      1.0  0.10235  0.03536  0.40942  1.0000
  C   C310      1.0  0.11109  0.27171  0.45835  1.0000
  C   C311      1.0  0.10975  0.28997  0.46299  1.0000
  C   C312      1.0  0.12561  0.29914  0.45978  1.0000
  P   P13       1.0  0.08839  0.30096  0.47450  1.0000
  C   C313      1.0  0.06946  0.28906  0.47139  1.0000
  C   C314      1.0  0.09162  0.29966  0.49878  1.0000
  C   C315      1.0  0.09360  0.28217  0.50991  1.0000
  C   C316      1.0  0.09609  0.28101  0.52873  1.0000
  C   C317      1.0  0.09708  0.29722  0.53646  1.0000
  C   C318      1.0  0.09579  0.31463  0.52531  1.0000
  C   C319      1.0  0.09319  0.31586  0.50651  1.0000
  C   C320      1.0  0.05720  0.28216  0.48662  1.0000
  C   C321      1.0  0.04277  0.27288  0.48362  1.0000
  C   C322      1.0  0.04038  0.27061  0.46545  1.0000
  C   C323      1.0  0.05234  0.27777  0.45024  1.0000
  C   C324      1.0  0.06673  0.28703  0.45320  1.0000
  C   C325      1.0  0.08237  0.32490  0.46421  1.0000
  C   C326      1.0  0.09205  0.33245  0.44738  1.0000
  C   C327      1.0  0.08740  0.35117  0.44004  1.0000
  C   C328      1.0  0.07258  0.36225  0.44893  1.0000
  C   C329      1.0  0.06238  0.35463  0.46526  1.0000
  C   C330      1.0  0.06723  0.33601  0.47286  1.0000
  H   H252      1.0  0.99175  0.27144  0.55460  1.0000
  C   C331      1.0  0.01694  0.31417  0.34636  1.0000
  H   H253      1.0  0.09941  0.26381  0.46156  1.0000
  H   H254      1.0  0.12509  0.31291  0.46393  1.0000
  H   H255      1.0  0.09313  0.26943  0.50407  1.0000
  H   H256      1.0  0.09722  0.26754  0.53741  1.0000
  H   H257      1.0  0.09692  0.32715  0.53125  1.0000
  H   H258      1.0  0.09265  0.32944  0.49807  1.0000
  H   H259      1.0  0.05877  0.28373  0.50081  1.0000
  H   H260      1.0  0.03363  0.26715  0.49544  1.0000
  H   H261      1.0  0.02951  0.26299  0.46316  1.0000
  H   H262      1.0  0.19437  0.09359  0.42163  1.0000
  C   C332      1.0  0.01626  0.27525  0.61115  1.0000
  H   H263      1.0  0.01905  0.23534  0.65044  1.0000
  H   H264      1.0  0.07299  0.28899  0.34785  1.0000
  S   S50       1.0  0.15044  0.00089  0.41074  1.0000
  C   C333      1.0  0.16579  0.15291  0.56169  1.0000
  H   H265      1.0  0.15356  0.15718  0.57102  1.0000
  H   H266      1.0  0.16691  0.23177  0.50646  1.0000
  C   C334      1.0  0.12774  0.26324  0.44962  1.0000
  C   C335      1.0  0.18997  0.00176  0.37921  1.0000
  C   C336      1.0  0.05580  0.36429  0.59184  1.0000
  H   H267      1.0  0.06434  0.43429  0.39868  1.0000
  H   H268      1.0  0.09901  0.29622  0.55106  1.0000
  H   H269      1.0  0.06754  0.47513  0.33891  1.0000
  H   H270      1.0  0.01952  0.22149  0.60754  1.0000
  C   C337      1.0  0.23484  0.00069  0.45580  1.0000
  H   H271      1.0  0.16496  0.11494  0.44651  1.0000
  H   H272      1.0  0.02479  0.25797  0.54797  1.0000
  C   C338      1.0  0.03238  0.19093  0.52936  1.0000
  H   H273      1.0  0.02557  0.42685  0.34691  1.0000
  H   H274      1.0  0.01609  0.48326  0.43153  1.0000
  H   H275      1.0  0.04784  0.32257  0.44130  1.0000
  C   C339      1.0  0.20148  0.01266  0.38521  1.0000
  C   C340      1.0  0.18163  0.14359  0.56914  1.0000
  C   C341      1.0  0.03353  0.23728  0.38082  1.0000
  C   C342      1.0  0.19345  0.11389  0.45103  1.0000
  C   C343      1.0  0.23696  0.03990  0.62701  1.0000
  C   C344      1.0  0.19785  0.13901  0.55730  1.0000
  C   C345      1.0  0.14325  0.27278  0.44573  1.0000
  H   H276      1.0  0.06811  0.36531  0.61672  1.0000
  C   C346      1.0  0.23105  0.09998  0.52065  1.0000
  C   C347      1.0  0.05931  0.49434  0.63513  1.0000
  H   H277      1.0  0.05370  0.21303  0.38559  1.0000
  H   H278      1.0  0.10793  0.03963  0.44112  1.0000
  H   H279      1.0  0.10737  0.28263  0.34347  1.0000
  H   H280      1.0  0.02666  0.42138  0.63175  1.0000
  C   C348      1.0  0.04519  0.48360  0.64301  1.0000
  C   C349      1.0  0.04227  0.21934  0.37802  1.0000
  C   C350      1.0  0.01908  0.26020  0.42137  1.0000
  C   C351      1.0  0.10300  0.00540  0.41584  1.0000
  C   C352      1.0  0.17127  0.09543  0.47055  1.0000
  H   H281      1.0  0.15758  0.09109  0.47335  1.0000
  H   H282      1.0  0.18145  0.14020  0.58415  1.0000
  C   C353      1.0  0.99778  0.17011  0.57459  1.0000
  C   C354      1.0  0.04376  0.34529  0.39764  1.0000
  C   C355      1.0  0.10951  0.01015  0.45154  1.0000
  H   H283      1.0  0.18165  0.07634  0.49328  1.0000
  Fe  Fe25      1.0  0.09652  0.38171  0.33818  1.0000
  C   C356      1.0  0.01268  0.23576  0.35838  1.0000
  C   C357      1.0  0.10381  0.02334  0.42009  1.0000
  C   C358      1.0  0.00447  0.21897  0.54736  1.0000
  C   C359      1.0  0.06266  0.17285  0.52339  1.0000
  C   C360      1.0  0.05351  0.20011  0.50183  1.0000
  H   H284      1.0  0.02618  0.21439  0.50821  1.0000
  H   H285      1.0  0.15610  0.26621  0.43886  1.0000
  C   C361      1.0  0.01135  0.18148  0.56631  1.0000
  H   H286      1.0  0.01686  0.45525  0.63306  1.0000
  H   H287      1.0  0.03608  0.32043  0.63426  1.0000
  C   C362      1.0  0.06317  0.24975  0.33339  1.0000
  C   C363      1.0  0.02676  0.31848  0.64707  1.0000
  C   C364      1.0  0.03636  0.20294  0.51277  1.0000
  C   C365      1.0  0.06680  0.18534  0.50733  1.0000
  C   C366      1.0  0.99338  0.21122  0.60756  1.0000
  H   H288      1.0  0.22219  0.16130  0.42261  1.0000
  H   H289      1.0  0.23122  0.02428  0.55555  1.0000
  C   C367      1.0  0.11864  0.33375  0.33676  1.0000
  C   C368      1.0  0.01892  0.38462  0.35768  1.0000
  H   H290      1.0  0.01425  0.27042  0.58312  1.0000
  H   H291      1.0  0.22319  0.06293  0.43867  1.0000
  H   H292      1.0  0.06803  0.36758  0.58242  1.0000
  H   H293      1.0  0.05486  0.00059  0.50129  1.0000
  C   C369      1.0  0.21646  0.00402  0.39445  1.0000
  C   C370      1.0  0.99400  0.18834  0.52988  1.0000
  H   H294      1.0  0.02951  0.41516  0.40471  1.0000
  C   C371      1.0  0.04018  0.35876  0.62339  1.0000
  P   P14       1.0  0.01022  0.19478  0.54343  1.0000
  C   C372      1.0  0.04547  0.17552  0.53431  1.0000
  H   H295      1.0  0.07275  0.16110  0.52739  1.0000
  C   C373      1.0  0.00859  0.27274  0.62993  1.0000
  H   H296      1.0  0.05917  0.26017  0.36010  1.0000
  C   C374      1.0  0.12433  0.32102  0.35178  1.0000
  H   H297      1.0  0.15430  0.29801  0.44808  1.0000
  C   C375      1.0  0.07805  0.99627  0.51700  1.0000
  C   C376      1.0  0.02529  0.38645  0.33856  1.0000
  H   H298      1.0  0.99447  0.19983  0.46914  1.0000
  H   H299      1.0  0.04249  0.16549  0.54651  1.0000
  C   C377      1.0  0.02426  0.35697  0.59700  1.0000
  C   C378      1.0  0.00281  0.25189  0.42494  1.0000
  C   C379      1.0  0.00719  0.20358  0.41535  1.0000
  H   H300      1.0  0.10097  0.00352  0.40185  1.0000
  C   C380      1.0  0.05585  0.36309  0.61114  1.0000
  C   C381      1.0  0.01860  0.27908  0.41387  1.0000
  C   C382      1.0  0.00227  0.37758  0.36432  1.0000
  H   H301      1.0  0.22565  0.00132  0.46883  1.0000
  C   C383      1.0  0.09378  0.99836  0.58278  1.0000
  H   H302      1.0  0.13626  0.45285  0.35506  1.0000
  C   C384      1.0  0.02567  0.18331  0.57644  1.0000
  C   C385      1.0  0.23821  0.05862  0.61969  1.0000
  H   H303      1.0  0.22065  0.10994  0.46012  1.0000
  S   S51       1.0  0.15890  0.00115  0.58172  1.0000
  C   C386      1.0  0.08332  0.48879  0.35421  1.0000
  C   C387      1.0  0.23668  0.06079  0.43060  1.0000
  C   C388      1.0  0.14244  0.47697  0.33527  1.0000
  H   H304      1.0  0.03213  0.25186  0.42410  1.0000
  C   C389      1.0  0.03891  0.48520  0.39815  1.0000
  H   H305      1.0  0.19025  0.15077  0.39443  1.0000
  H   H306      1.0  0.04770  0.46867  0.64244  1.0000
  C   C390      1.0  0.99907  0.15999  0.59235  1.0000
  C   C391      1.0  0.12505  0.45323  0.32935  1.0000
  C   C392      1.0  0.23050  0.11212  0.50393  1.0000
  H   H307      1.0  0.08738  0.01046  0.58950  1.0000
  H   H308      1.0  0.07231  0.48763  0.62871  1.0000
  P   P15       1.0  0.99533  0.24699  0.34393  1.0000
  C   C393      1.0  0.09471  0.30652  0.65898  1.0000
  C   C394      1.0  0.06931  0.99503  0.50155  1.0000
  Fe  Fe26      1.0  0.05950  0.37807  0.70874  1.0000
  Fe  Fe27      1.0  0.09688  0.35701  0.71495  1.0000
  S   S52       1.0  0.10868  0.41951  0.67915  1.0000
  S   S53       1.0  0.11362  0.33718  0.73501  1.0000
  S   S54       1.0  0.08399  0.38617  0.71902  1.0000
  S   S55       1.0  0.07139  0.34807  0.70724  1.0000
  Fe  Fe28      1.0  0.09966  0.40019  0.83258  1.0000
  S   S56       1.0  0.09195  0.40242  0.86312  1.0000
  S   S57       1.0  0.10038  0.42554  0.81075  1.0000
  Fe  Fe29      1.0  0.09954  0.35865  0.83832  1.0000
  S   S58       1.0  0.09137  0.35742  0.86958  1.0000
  S   S59       1.0  0.10321  0.33303  0.82342  1.0000
  Fe  Fe30      1.0  0.07111  0.38302  0.86233  1.0000
  S   S60       1.0  0.04174  0.39212  0.87594  1.0000
  Fe  Fe31      1.0  0.11299  0.37691  0.86794  1.0000
  S   S61       1.0  0.13015  0.37671  0.89194  1.0000
  S   S62       1.0  0.07766  0.38238  0.83144  1.0000
  S   S63       1.0  0.12238  0.37636  0.83711  1.0000
  S   S64       1.0  0.21657  0.35802  0.90049  1.0000
  H   H309      1.0  0.05987  0.27428  0.74948  1.0000
  H   H310      1.0  0.08654  0.23199  0.78224  1.0000
  H   H311      1.0  0.02992  0.29444  0.75036  1.0000
  C   C395      1.0  0.15435  0.37214  0.89363  1.0000
  C   C396      1.0  0.16714  0.36469  0.87962  1.0000
  C   C397      1.0  0.18606  0.36051  0.88201  1.0000
  C   C398      1.0  0.19252  0.36393  0.89827  1.0000
  C   C399      1.0  0.17979  0.37178  0.91212  1.0000
  C   C400      1.0  0.16082  0.37575  0.90984  1.0000
  H   H312      1.0  0.16242  0.36180  0.86710  1.0000
  H   H313      1.0  0.19574  0.35447  0.87118  1.0000
  H   H314      1.0  0.18451  0.37452  0.92470  1.0000
  H   H315      1.0  0.15107  0.38149  0.92079  1.0000
  C   C401      1.0  0.11395  0.44134  0.81591  1.0000
  C   C402      1.0  0.10753  0.46055  0.81402  1.0000
  C   C403      1.0  0.11754  0.47308  0.81987  1.0000
  C   C404      1.0  0.13437  0.46650  0.82677  1.0000
  C   C405      1.0  0.14135  0.44747  0.82737  1.0000
  C   C406      1.0  0.13089  0.43480  0.82250  1.0000
  H   H316      1.0  0.09439  0.46563  0.80896  1.0000
  C   C407      1.0  0.12128  0.42180  0.76062  1.0000
  H   H317      1.0  0.15470  0.44239  0.83194  1.0000
  H   H318      1.0  0.13598  0.41999  0.82370  1.0000
  C   C408      1.0  0.02215  0.38352  0.87062  1.0000
  C   C409      1.0  0.00425  0.39235  0.87609  1.0000
  C   C410      1.0  0.99273  0.30612  0.79802  1.0000
  H   H319      1.0  0.12329  0.45462  0.67498  1.0000
  C   C411      1.0  0.00845  0.36126  0.85702  1.0000
  C   C412      1.0  0.02416  0.36796  0.86107  1.0000
  H   H320      1.0  0.00260  0.40442  0.88352  1.0000
  P   P16       1.0  0.19302  0.46843  0.90235  1.0000
  H   H321      1.0  0.01013  0.34928  0.84956  1.0000
  H   H322      1.0  0.03787  0.36102  0.85700  1.0000
  H   H323      1.0  0.16781  0.44937  0.93118  1.0000
  H   H324      1.0  0.06264  0.45263  0.81189  1.0000
  H   H325      1.0  0.10783  0.23073  0.72498  1.0000
  H   H326      1.0  0.12079  0.42764  0.77353  1.0000
  C   C413      1.0  0.11314  0.26734  0.76973  1.0000
  C   C414      1.0  0.10954  0.27255  0.75122  1.0000
  C   C415      1.0  0.11099  0.33747  0.75942  1.0000
  C   C416      1.0  0.11712  0.32097  0.77052  1.0000
  C   C417      1.0  0.11468  0.31993  0.79004  1.0000
  C   C418      1.0  0.10695  0.33568  0.79873  1.0000
  C   C419      1.0  0.10160  0.35259  0.78765  1.0000
  C   C420      1.0  0.10322  0.35335  0.76799  1.0000
  H   H327      1.0  0.12349  0.30881  0.76397  1.0000
  H   H328      1.0  0.11902  0.30691  0.79846  1.0000
  H   H329      1.0  0.09571  0.36488  0.79424  1.0000
  H   H330      1.0  0.09854  0.36619  0.75952  1.0000
  H   H331      1.0  0.07437  0.26759  0.68724  1.0000
  C   C421      1.0  0.02925  0.42253  0.67774  1.0000
  C   C422      1.0  0.09295  0.24331  0.77356  1.0000
  C   C423      1.0  0.06644  0.42279  0.91469  1.0000
  C   C424      1.0  0.06584  0.38976  0.91346  1.0000
  C   C425      1.0  0.05691  0.40815  0.91252  1.0000
  C   C426      1.0  0.08511  0.41910  0.91771  1.0000
  C   C427      1.0  0.09370  0.46673  0.74660  1.0000
  C   C428      1.0  0.01382  0.37691  0.71675  1.0000
  H   H332      1.0  0.04270  0.41104  0.90961  1.0000
  H   H333      1.0  0.05860  0.37855  0.91117  1.0000
  H   H334      1.0  0.10767  0.24880  0.79524  1.0000
  H   H335      1.0  0.12232  0.27472  0.77545  1.0000
  C   C429      1.0  0.15668  0.46074  0.77722  1.0000
  H   H336      1.0  0.04576  0.23104  0.69958  1.0000
  C   C430      1.0  0.99546  0.38540  0.71901  1.0000
  H   H337      1.0  0.17354  0.48000  0.86944  1.0000
  C   C431      1.0  0.13888  0.30168  0.68637  1.0000
  C   C432      1.0  0.14296  0.46875  0.93515  1.0000
  P   P17       1.0  0.00387  0.39819  0.78323  1.0000
  H   H338      1.0  0.04537  0.32019  0.69444  1.0000
  C   C433      1.0  0.02343  0.38160  0.78956  1.0000
  C   C434      1.0  0.02359  0.37227  0.80785  1.0000
  C   C435      1.0  0.03902  0.35980  0.81266  1.0000
  C   C436      1.0  0.05431  0.35647  0.79931  1.0000
  C   C437      1.0  0.05413  0.36548  0.78103  1.0000
  C   C438      1.0  0.03871  0.37780  0.77609  1.0000
  H   H339      1.0  0.13642  0.45954  0.94643  1.0000
  C   C439      1.0  0.13896  0.28262  0.68553  1.0000
  C   C440      1.0  0.09023  0.25096  0.70820  1.0000
  C   C441      1.0  0.22390  0.46353  0.94565  1.0000
  C   C442      1.0  0.00994  0.44727  0.89483  1.0000
  C   C443      1.0  0.01197  0.41550  0.76448  1.0000
  C   C444      1.0  0.13777  0.41575  0.95435  1.0000
  C   C445      1.0  0.08392  0.47379  0.73139  1.0000
  C   C446      1.0  0.02496  0.44169  0.73493  1.0000
  C   C447      1.0  0.03519  0.43552  0.74987  1.0000
  C   C448      1.0  0.02868  0.42259  0.76465  1.0000
  C   C449      1.0  0.21457  0.45911  0.93183  1.0000
  C   C450      1.0  0.06513  0.47145  0.76770  1.0000
  C   C451      1.0  0.01780  0.48874  0.69703  1.0000
  H   H340      1.0  0.00950  0.36728  0.76068  1.0000
  H   H341      1.0  0.09947  0.30966  0.71626  1.0000
  H   H342      1.0  0.01202  0.37470  0.81851  1.0000
  H   H343      1.0  0.03927  0.35284  0.82680  1.0000
  H   H344      1.0  0.06626  0.34688  0.80316  1.0000
  H   H345      1.0  0.06584  0.36275  0.77054  1.0000
  H   H346      1.0  0.03882  0.38435  0.76172  1.0000
  H   H347      1.0  0.00547  0.43536  0.79433  1.0000
  H   H348      1.0  0.03727  0.24423  0.78287  1.0000
  H   H349      1.0  0.11593  0.28411  0.74298  1.0000
  Fe  Fe32      1.0  0.08224  0.35766  0.67747  1.0000
  C   C452      1.0  0.99737  0.33206  0.81340  1.0000
  H   H350      1.0  0.03142  0.22497  0.81372  1.0000
  C   C453      1.0  0.09041  0.22145  0.68724  1.0000
  H   H351      1.0  0.03018  0.45149  0.72337  1.0000
  H   H352      1.0  0.04837  0.44046  0.74982  1.0000
  H   H353      1.0  0.03686  0.41786  0.77599  1.0000
  H   H354      1.0  0.00355  0.47653  0.82764  1.0000
  H   H355      1.0  0.09136  0.45923  0.77666  1.0000
  C   C454      1.0  0.16067  0.46298  0.92638  1.0000
  C   C455      1.0  0.11030  0.30196  0.70761  1.0000
  C   C456      1.0  0.02927  0.27915  0.81073  1.0000
  C   C457      1.0  0.03325  0.27036  0.79441  1.0000
  P   P18       1.0  0.02773  0.30438  0.80919  1.0000
  C   C458      1.0  0.04268  0.31256  0.78856  1.0000
  H   H356      1.0  0.00594  0.33917  0.82010  1.0000
  C   C459      1.0  0.09968  0.21843  0.70304  1.0000
  C   C460      1.0  0.08933  0.24847  0.75504  1.0000
  C   C461      1.0  0.08115  0.23917  0.68184  1.0000
  H   H357      1.0  0.10728  0.20479  0.70690  1.0000
  C   C462      1.0  0.01899  0.23920  0.66426  1.0000
  C   C463      1.0  0.06096  0.30381  0.78528  1.0000
  C   C464      1.0  0.07248  0.30974  0.76919  1.0000
  C   C465      1.0  0.06582  0.32419  0.75608  1.0000
  C   C466      1.0  0.04753  0.33268  0.75892  1.0000
  C   C467      1.0  0.03599  0.32700  0.77517  1.0000
  C   C468      1.0  0.03477  0.31004  0.83029  1.0000
  C   C469      1.0  0.05292  0.31358  0.83086  1.0000
  C   C470      1.0  0.05801  0.31786  0.84733  1.0000
  C   C471      1.0  0.04516  0.31850  0.86340  1.0000
  C   C472      1.0  0.02719  0.31474  0.86308  1.0000
  C   C473      1.0  0.02199  0.31058  0.84662  1.0000
  H   H358      1.0  0.00788  0.30799  0.84664  1.0000
  C   C474      1.0  0.22156  0.41866  0.88921  1.0000
  C   C475      1.0  0.11561  0.44158  0.90034  1.0000
  H   H359      1.0  0.99305  0.49005  0.74020  1.0000
  H   H360      1.0  0.03566  0.27854  0.78085  1.0000
  C   C476      1.0  0.12476  0.27318  0.69577  1.0000
  H   H361      1.0  0.23098  0.45241  0.95463  1.0000
  S   S65       1.0  0.03126  0.38777  0.72292  1.0000
  H   H362      1.0  0.01082  0.43498  0.90523  1.0000
  C   C477      1.0  0.06311  0.48329  0.85599  1.0000
  H   H363      1.0  0.06641  0.29252  0.79526  1.0000
  H   H364      1.0  0.08671  0.30336  0.76695  1.0000
  H   H365      1.0  0.07498  0.32890  0.74385  1.0000
  H   H366      1.0  0.04245  0.34402  0.74872  1.0000
  H   H367      1.0  0.02201  0.33408  0.77725  1.0000
  H   H368      1.0  0.06322  0.31342  0.81870  1.0000
  H   H369      1.0  0.07194  0.32087  0.84761  1.0000
  H   H370      1.0  0.04910  0.32216  0.87602  1.0000
  H   H371      1.0  0.01712  0.31558  0.87547  1.0000
  C   C478      1.0  0.99518  0.47826  0.88419  1.0000
  C   C479      1.0  0.10485  0.25275  0.78090  1.0000
  H   H372      1.0  0.07538  0.30018  0.69322  1.0000
  C   C480      1.0  0.12463  0.48288  0.76656  1.0000
  C   C481      1.0  0.03986  0.29539  0.73788  1.0000
  H   H373      1.0  0.03216  0.35302  0.70816  1.0000
  C   C482      1.0  0.05693  0.28402  0.73728  1.0000
  P   P19       1.0  0.11815  0.45870  0.74275  1.0000
  C   C483      1.0  0.13004  0.46537  0.76017  1.0000
  S   S66       1.0  0.14691  0.48173  0.83478  1.0000
  H   H374      1.0  0.06614  0.42505  0.79517  1.0000
  C   C484      1.0  0.01802  0.35953  0.71017  1.0000
  H   H375      1.0  0.09082  0.21025  0.67883  1.0000
  C   C485      1.0  0.09445  0.47011  0.86067  1.0000
  H   H376      1.0  0.23593  0.41259  0.88692  1.0000
  C   C486      1.0  0.14639  0.45452  0.76525  1.0000
  H   H377      1.0  0.03095  0.49215  0.68961  1.0000
  H   H378      1.0  0.12454  0.39330  0.77423  1.0000
  H   H379      1.0  0.07990  0.24118  0.74962  1.0000
  C   C487      1.0  0.12339  0.40231  0.76106  1.0000
  H   H380      1.0  0.15132  0.44136  0.75985  1.0000
  C   C488      1.0  0.11993  0.43356  0.74361  1.0000
  H   H381      1.0  0.09136  0.37173  0.91725  1.0000
  C   C489      1.0  0.03109  0.30322  0.66050  1.0000
  C   C490      1.0  0.21668  0.48772  0.87530  1.0000
  H   H382      1.0  0.04673  0.39979  0.80644  1.0000
  C   C491      1.0  0.05542  0.42650  0.80696  1.0000
  C   C492      1.0  0.99481  0.37039  0.76498  1.0000
  C   C493      1.0  0.08424  0.38592  0.91690  1.0000
  C   C494      1.0  0.03104  0.41382  0.82885  1.0000
  H   H383      1.0  0.23032  0.06060  0.66266  1.0000
  C   C495      1.0  0.11936  0.42558  0.72735  1.0000
  C   C496      1.0  0.00229  0.31186  0.67969  1.0000
  C   C497      1.0  0.05339  0.44213  0.81645  1.0000
  C   C498      1.0  0.04442  0.41226  0.81330  1.0000
  H   H384      1.0  0.07364  0.46122  0.89574  1.0000
  C   C499      1.0  0.04850  0.30995  0.70638  1.0000
  C   C500      1.0  0.07594  0.48846  0.93697  1.0000
  H   H385      1.0  0.11722  0.43433  0.71427  1.0000
  C   C501      1.0  0.12406  0.39446  0.74456  1.0000
  C   C502      1.0  0.99674  0.42766  0.80506  1.0000
  H   H386      1.0  0.10809  0.39714  0.92172  1.0000
  H   H387      1.0  0.12610  0.37936  0.74476  1.0000
  C   C503      1.0  0.12185  0.40610  0.72776  1.0000
  C   C504      1.0  0.99653  0.48761  0.72572  1.0000
  H   H388      1.0  0.05909  0.43679  0.91394  1.0000
  C   C505      1.0  0.15108  0.47809  0.78369  1.0000
  H   H389      1.0  0.12198  0.40006  0.71500  1.0000
  H   H390      1.0  0.11690  0.41456  0.89081  1.0000
  C   C506      1.0  0.02870  0.42963  0.83819  1.0000
  C   C507      1.0  0.03568  0.30835  0.72248  1.0000
  H   H391      1.0  0.02252  0.40274  0.83377  1.0000
  C   C508      1.0  0.04010  0.44377  0.83221  1.0000
  C   C509      1.0  0.09761  0.26313  0.74371  1.0000
  C   C510      1.0  0.99820  0.32741  0.66648  1.0000
  C   C511      1.0  0.07834  0.44687  0.68335  1.0000
  H   H392      1.0  0.15897  0.48286  0.79308  1.0000
  C   C512      1.0  0.00379  0.35033  0.70656  1.0000
  C   C513      1.0  0.12896  0.47002  0.72100  1.0000
  H   H393      1.0  0.06986  0.43562  0.68538  1.0000
  S   S67       1.0  0.06837  0.38746  0.67847  1.0000
  C   C514      1.0  0.07000  0.46560  0.68341  1.0000
  C   C515      1.0  0.09375  0.40046  0.91925  1.0000
  H   H394      1.0  0.09356  0.46444  0.94782  1.0000
  H   H395      1.0  0.14985  0.30905  0.67844  1.0000
  H   H396      1.0  0.10810  0.47191  0.86329  1.0000
  Fe  Fe33      1.0  0.09391  0.39362  0.68853  1.0000
  H   H397      1.0  0.01807  0.43054  0.85003  1.0000
  C   C516      1.0  0.06474  0.48669  0.90781  1.0000
  H   H398      1.0  0.14768  0.44543  0.71387  1.0000
  P   P20       1.0  0.03792  0.46434  0.84387  1.0000
  H   H399      1.0  0.00850  0.36334  0.66776  1.0000
  C   C517      1.0  0.08519  0.47020  0.93682  1.0000
  H   H400      1.0  0.14330  0.41902  0.86666  1.0000
  C   C518      1.0  0.06999  0.28553  0.72117  1.0000
  S   S68       1.0  0.10885  0.36464  0.68494  1.0000
  H   H401      1.0  0.99219  0.39899  0.72377  1.0000
  H   H402      1.0  0.15255  0.41120  0.95280  1.0000
  C   C519      1.0  0.02138  0.46360  0.86474  1.0000
  H   H403      1.0  0.05513  0.46849  0.68550  1.0000
  H   H404      1.0  0.15721  0.44881  0.86177  1.0000
  C   C520      1.0  0.14319  0.46014  0.70988  1.0000
  H   H405      1.0  0.07148  0.43739  0.84889  1.0000
  C   C521      1.0  0.22460  0.48224  0.94751  1.0000
  C   C522      1.0  0.12274  0.42752  0.88902  1.0000
  C   C523      1.0  0.13775  0.43007  0.87520  1.0000
  C   C524      1.0  0.18687  0.48502  0.86645  1.0000
  C   C525      1.0  0.14550  0.44681  0.87237  1.0000
  P   P21       1.0  0.09198  0.27058  0.72017  1.0000
  C   C526      1.0  0.99411  0.39123  0.66691  1.0000
  H   H406      1.0  0.00707  0.33691  0.70153  1.0000
  C   C527      1.0  0.00820  0.43491  0.73479  1.0000
  C   C528      1.0  0.12465  0.31128  0.69750  1.0000
  P   P22       1.0  0.09818  0.43759  0.92011  1.0000
  C   C529      1.0  0.19189  0.49446  0.84870  1.0000
  C   C530      1.0  0.99331  0.40953  0.80338  1.0000
  C   C531      1.0  0.08410  0.45996  0.92220  1.0000
  C   C532      1.0  0.07371  0.45081  0.85224  1.0000
  H   H407      1.0  0.08457  0.42997  0.95974  1.0000
  C   C533      1.0  0.00417  0.25528  0.69039  1.0000
  H   H408      1.0  0.02233  0.28824  0.68731  1.0000
  H   H409      1.0  0.02320  0.44694  0.69177  1.0000
  S   S69       1.0  0.22771  0.38865  0.93920  1.0000
  C   C534      1.0  0.05987  0.46627  0.85109  1.0000
  H   H410      1.0  0.02385  0.24029  0.84259  1.0000
  H   H411      1.0  0.14998  0.27518  0.67685  1.0000
  C   C535      1.0  0.10985  0.42898  0.94044  1.0000
  C   C536      1.0  0.13801  0.46115  0.88308  1.0000
  C   C537      1.0  0.12321  0.45852  0.89708  1.0000
  C   C538      1.0  0.12907  0.42336  0.93861  1.0000
  C   C539      1.0  0.09947  0.42638  0.95816  1.0000
  H   H412      1.0  0.13741  0.42443  0.92506  1.0000
  H   H413      1.0  0.11769  0.46980  0.90525  1.0000
  H   H414      1.0  0.21414  0.44450  0.93078  1.0000
  C   C540      1.0  0.08051  0.48531  0.86028  1.0000
  H   H415      1.0  0.10188  0.44104  0.85715  1.0000
  H   H416      1.0  0.22810  0.44448  0.89576  1.0000
  C   C541      1.0  0.07400  0.46849  0.90758  1.0000
  H   H417      1.0  0.14348  0.47442  0.88034  1.0000
  C   C542      1.0  0.01931  0.24831  0.70009  1.0000
  C   C543      1.0  0.09092  0.45275  0.85711  1.0000
  H   H418      1.0  0.03286  0.41339  0.69015  1.0000
  C   C544      1.0  0.00382  0.25065  0.67241  1.0000
  C   C545      1.0  0.10823  0.41886  0.97390  1.0000
  C   C546      1.0  0.02371  0.44162  0.67861  1.0000
  H   H419      1.0  0.05780  0.47051  0.78174  1.0000
  H   H420      1.0  0.00039  0.43943  0.72307  1.0000
  H   H421      1.0  0.99160  0.45012  0.82205  1.0000
  C   C547      1.0  0.09977  0.23314  0.71339  1.0000
  H   H422      1.0  0.12517  0.25841  0.69489  1.0000
  H   H423      1.0  0.10850  0.48762  0.67565  1.0000
  C   C548      1.0  0.02569  0.26814  0.82808  1.0000
  H   H424      1.0  0.05716  0.49329  0.89636  1.0000
  H   H425      1.0  0.16271  0.46151  0.68478  1.0000
  C   C549      1.0  0.03137  0.48335  0.82616  1.0000
  H   H426      1.0  0.17824  0.40831  0.88821  1.0000
  H   H427      1.0  0.21114  0.39488  0.88220  1.0000
  C   C550      1.0  0.18904  0.41622  0.89013  1.0000
  C   C551      1.0  0.09759  0.44280  0.68021  1.0000
  C   C552      1.0  0.02267  0.44796  0.87857  1.0000
  C   C553      1.0  0.08077  0.48046  0.68070  1.0000
  C   C554      1.0  0.01346  0.49166  0.71580  1.0000
  C   C555      1.0  0.12737  0.41357  0.97200  1.0000
  C   C556      1.0  0.20758  0.40858  0.88678  1.0000
  C   C557      1.0  0.20660  0.49223  0.92171  1.0000
  C   C558      1.0  0.18446  0.43406  0.89576  1.0000
  C   C559      1.0  0.20607  0.47349  0.91960  1.0000
  H   H428      1.0  0.17009  0.43983  0.89805  1.0000
  C   C560      1.0  0.00179  0.42184  0.74951  1.0000
  C   C561      1.0  0.11010  0.28288  0.70661  1.0000
  C   C562      1.0  0.06559  0.29862  0.70574  1.0000
  H   H429      1.0  0.01947  0.25186  0.71397  1.0000
  C   C563      1.0  0.08413  0.46525  0.76479  1.0000
  C   C564      1.0  0.12446  0.48940  0.71603  1.0000
  C   C565      1.0  0.19845  0.44442  0.89789  1.0000
  C   C566      1.0  0.16931  0.47493  0.91187  1.0000
  C   C567      1.0  0.10839  0.45764  0.67747  1.0000
  C   C568      1.0  0.05557  0.47888  0.75248  1.0000
  H   H430      1.0  0.11259  0.49186  0.76216  1.0000
  C   C569      1.0  0.02655  0.24868  0.82913  1.0000
  C   C570      1.0  0.10004  0.47636  0.67783  1.0000
  C   C571      1.0  0.15200  0.46930  0.69348  1.0000
  C   C572      1.0  0.01894  0.45356  0.66261  1.0000
  C   C573      1.0  0.03412  0.25090  0.79550  1.0000
  C   C574      1.0  0.03081  0.24005  0.81286  1.0000
  H   H431      1.0  0.05770  0.48561  0.72238  1.0000
  H   H432      1.0  0.02255  0.31726  0.72322  1.0000
  C   C575      1.0  0.08102  0.25386  0.69224  1.0000
  C   C576      1.0  0.19902  0.48203  0.88005  1.0000
  C   C577      1.0  0.03405  0.23221  0.67401  1.0000
  H   H433      1.0  0.12479  0.32599  0.69834  1.0000
  C   C578      1.0  0.00781  0.47894  0.86787  1.0000
  C   C579      1.0  0.21704  0.43664  0.89447  1.0000
  H   H434      1.0  0.16902  0.45213  0.78150  1.0000
  Fe  Fe34      1.0  0.23444  0.36572  0.92079  1.0000
  H   H435      1.0  0.03342  0.43621  0.87668  1.0000
  H   H436      1.0  0.00700  0.49158  0.85791  1.0000
  C   C580      1.0  0.00505  0.48212  0.68790  1.0000
  H   H437      1.0  0.99753  0.39319  0.68035  1.0000
  H   H438      1.0  0.02223  0.27447  0.84086  1.0000
  C   C581      1.0  0.03418  0.23668  0.69196  1.0000
  C   C582      1.0  0.00417  0.31478  0.80695  1.0000
  C   C583      1.0  0.14712  0.48849  0.68842  1.0000
  C   C584      1.0  0.13385  0.48654  0.92960  1.0000
  H   H439      1.0  0.99768  0.29296  0.79264  1.0000
  H   H440      1.0  0.13413  0.40747  0.98415  1.0000
  H   H441      1.0  0.99264  0.30936  0.69227  1.0000
  H   H442      1.0  0.11223  0.48777  0.81903  1.0000
  C   C585      1.0  0.16015  0.49289  0.90659  1.0000
  C   C586      1.0  0.01364  0.48546  0.82062  1.0000
  H   H443      1.0  0.10014  0.41683  0.98754  1.0000
  H   H444      1.0  0.99291  0.26425  0.69700  1.0000
  H   H445      1.0  0.05826  0.49332  0.81994  1.0000
  H   H446      1.0  0.12020  0.49111  0.93641  1.0000
  C   C587      1.0  0.13506  0.48914  0.77837  1.0000
  S   S70       1.0  0.23146  0.36015  0.99071  1.0000
  H   H447      1.0  0.09089  0.47445  0.71722  1.0000
  C   C588      1.0  0.03023  0.41523  0.66089  1.0000
  H   H448      1.0  0.23212  0.48560  0.95803  1.0000
  C   C589      1.0  0.01887  0.29994  0.67684  1.0000
  H   H449      1.0  0.07457  0.24168  0.66917  1.0000
  H   H450      1.0  0.10081  0.31105  0.66985  1.0000
  H   H451      1.0  0.10820  0.27802  0.66308  1.0000
  C   C590      1.0  0.06497  0.47998  0.73432  1.0000
  H   H452      1.0  0.04548  0.22307  0.66763  1.0000
  C   C591      1.0  0.99615  0.46238  0.89760  1.0000
  H   H453      1.0  0.04087  0.48368  0.75476  1.0000
  H   H454      1.0  0.22655  0.48496  0.88532  1.0000
  P   P23       1.0  0.01068  0.47809  0.66371  1.0000
  H   H455      1.0  0.23764  0.03022  0.68209  1.0000
  H   H456      1.0  0.22934  0.43530  0.98740  1.0000
  H   H457      1.0  0.99136  0.21738  0.66748  1.0000
  C   C592      1.0  0.00019  0.37427  0.65974  1.0000
  H   H458      1.0  0.03442  0.40038  0.66030  1.0000
  C   C593      1.0  0.99057  0.36998  0.86238  1.0000
  H   H459      1.0  0.11702  0.49878  0.18761  1.0000
  H   H460      1.0  0.02315  0.55649  0.20811  1.0000
  S   S71       1.0  0.21884  0.52901  0.14371  1.0000
  H   H461      1.0  0.03435  0.58038  0.21781  1.0000
  C   C594      1.0  0.01831  0.56670  0.28760  1.0000
  S   S72       1.0  0.11818  0.57348  0.29139  1.0000
  Fe  Fe35      1.0  0.10869  0.55410  0.16644  1.0000
  S   S73       1.0  0.11059  0.55138  0.19720  1.0000
  S   S74       1.0  0.13288  0.55925  0.14363  1.0000
  Fe  Fe36      1.0  0.06667  0.55154  0.17259  1.0000
  S   S75       1.0  0.06548  0.54886  0.20370  1.0000
  S   S76       1.0  0.04222  0.54537  0.15977  1.0000
  Fe  Fe37      1.0  0.08418  0.57117  0.19877  1.0000
  S   S77       1.0  0.07750  0.59287  0.21879  1.0000
  Fe  Fe38      1.0  0.09176  0.52951  0.19995  1.0000
  S   S78       1.0  0.07424  0.55701  0.31738  1.0000
  S   S79       1.0  0.08325  0.57589  0.16759  1.0000
  S   S80       1.0  0.09196  0.53013  0.16911  1.0000
  C   C595      1.0  0.01916  0.55645  0.16360  1.0000
  C   C596      1.0  0.16270  0.58686  0.26102  1.0000
  C   C597      1.0  0.17118  0.55008  0.20962  1.0000
  C   C598      1.0  0.17230  0.53256  0.26436  1.0000
  H   H462      1.0  0.02611  0.58346  0.16652  1.0000
  H   H463      1.0  0.22699  0.60923  0.18099  1.0000
  H   H464      1.0  0.00773  0.53152  0.16107  1.0000
  C   C599      1.0  0.10611  0.57790  0.27174  1.0000
  C   C600      1.0  0.11449  0.57138  0.25500  1.0000
  C   C601      1.0  0.10566  0.57584  0.23883  1.0000
  C   C602      1.0  0.08833  0.58670  0.23926  1.0000
  C   C603      1.0  0.07979  0.59305  0.25608  1.0000
  C   C604      1.0  0.08858  0.58850  0.27236  1.0000
  H   H465      1.0  0.12785  0.56291  0.25454  1.0000
  H   H466      1.0  0.11252  0.57142  0.22586  1.0000
  H   H467      1.0  0.06641  0.60150  0.25651  1.0000
  H   H468      1.0  0.08201  0.59355  0.28526  1.0000
  C   C605      1.0  0.19499  0.53738  0.14329  1.0000
  C   C606      1.0  0.18877  0.55120  0.12930  1.0000
  C   C607      1.0  0.16974  0.55773  0.12971  1.0000
  C   C608      1.0  0.15670  0.55066  0.14413  1.0000
  C   C609      1.0  0.16293  0.53686  0.15816  1.0000
  C   C610      1.0  0.18196  0.53018  0.15763  1.0000
  H   H469      1.0  0.19861  0.55689  0.11817  1.0000
  H   H470      1.0  0.16506  0.56838  0.11877  1.0000
  H   H471      1.0  0.15308  0.53118  0.16928  1.0000
  H   H472      1.0  0.18661  0.51931  0.16835  1.0000
  C   C611      1.0  0.18770  0.51963  0.04770  1.0000
  C   C612      1.0  0.17643  0.57890  0.23032  1.0000
  P   P24       1.0  0.17388  0.57467  0.20709  1.0000
  C   C613      1.0  0.06989  0.63884  0.31211  1.0000
  C   C614      1.0  0.14735  0.60640  0.20400  1.0000
  C   C615      1.0  0.18640  0.53652  0.20573  1.0000
  C   C616      1.0  0.02537  0.58012  0.27372  1.0000
  H   H473      1.0  0.11006  0.61812  0.18003  1.0000
  C   C617      1.0  0.15373  0.58861  0.19851  1.0000
  S   S81       1.0  0.09323  0.50452  0.22168  1.0000
  C   C618      1.0  0.99530  0.55695  0.22284  1.0000
  H   H474      1.0  0.02368  0.52671  0.19646  1.0000
  H   H475      1.0  0.03549  0.64639  0.28447  1.0000
  C   C619      1.0  0.21878  0.59866  0.17906  1.0000
  H   H476      1.0  0.12622  0.63031  0.20231  1.0000
  C   C620      1.0  0.00461  0.54613  0.16305  1.0000
  H   H477      1.0  0.06039  0.53537  0.27648  1.0000
  H   H478      1.0  0.20614  0.57107  0.22730  1.0000
  H   H479      1.0  0.18952  0.51085  0.25049  1.0000
  C   C621      1.0  0.20600  0.53718  0.02277  1.0000
  C   C622      1.0  0.07334  0.52619  0.27716  1.0000
  C   C623      1.0  0.14503  0.58229  0.18517  1.0000
  H   H480      1.0  0.15440  0.61210  0.21344  1.0000
  H   H481      1.0  0.17874  0.54761  0.03502  1.0000
  H   H482      1.0  0.21508  0.56963  0.14765  1.0000
  C   C624      1.0  0.12943  0.59301  0.17846  1.0000
  H   H483      1.0  0.14707  0.58578  0.23878  1.0000
  H   H484      1.0  0.15065  0.50741  0.11011  1.0000
  C   C625      1.0  0.12245  0.61012  0.18490  1.0000
  C   C626      1.0  0.10465  0.51648  0.26352  1.0000
  H   H485      1.0  0.00051  0.60457  0.29858  1.0000
  H   H486      1.0  0.18209  0.54258  0.26033  1.0000
  H   H487      1.0  0.20940  0.57647  0.25927  1.0000
  H   H488      1.0  0.99893  0.63900  0.29136  1.0000
  C   C627      1.0  0.13152  0.61692  0.19752  1.0000
  H   H489      1.0  0.03541  0.50910  0.22788  1.0000
  C   C628      1.0  0.14267  0.52471  0.28023  1.0000
  C   C629      1.0  0.20384  0.59426  0.19243  1.0000
  H   H490      1.0  0.04029  0.50533  0.15632  1.0000
  C   C630      1.0  0.00416  0.57456  0.25309  1.0000
  H   H491      1.0  0.20004  0.54054  0.20101  1.0000
  C   C631      1.0  0.00716  0.62279  0.19040  1.0000
  H   H492      1.0  0.19569  0.50721  0.20407  1.0000
  C   C632      1.0  0.06120  0.63984  0.29614  1.0000
  H   H493      1.0  0.18160  0.58637  0.28101  1.0000
  H   H494      1.0  0.18854  0.56207  0.17098  1.0000
  C   C633      1.0  0.19585  0.57871  0.25463  1.0000
  H   H495      1.0  0.17637  0.51667  0.12333  1.0000
  C   C634      1.0  0.18022  0.58427  0.26688  1.0000
  C   C635      1.0  0.22299  0.58959  0.16305  1.0000
  C   C636      1.0  0.21207  0.57638  0.16026  1.0000
  H   H496      1.0  0.04271  0.49860  0.07508  1.0000
  C   C637      1.0  0.03178  0.64993  0.31373  1.0000
  Fe  Fe39      1.0  0.09883  0.57110  0.31820  1.0000
  C   C638      1.0  0.16126  0.49673  0.11528  1.0000
  H   H497      1.0  0.01834  0.79366  0.32511  1.0000
  C   C639      1.0  0.17648  0.51467  0.25888  1.0000
  C   C640      1.0  0.01502  0.57531  0.16635  1.0000
  C   C641      1.0  0.15547  0.53753  0.27510  1.0000
  C   C642      1.0  0.01117  0.54925  0.21200  1.0000
  H   H498      1.0  0.08689  0.50228  0.10633  1.0000
  C   C643      1.0  0.06585  0.50151  0.08889  1.0000
  C   C644      1.0  0.08770  0.52788  0.26246  1.0000
  C   C645      1.0  0.15141  0.52536  0.21789  1.0000
  H   H499      1.0  0.01712  0.65458  0.31401  1.0000
  H   H500      1.0  0.20048  0.60179  0.20448  1.0000
  C   C646      1.0  0.02637  0.61919  0.18651  1.0000
  C   C647      1.0  0.04216  0.64552  0.29691  1.0000
  H   H501      1.0  0.99682  0.57851  0.32266  1.0000
  H   H502      1.0  0.05089  0.60102  0.19334  1.0000
  H   H503      1.0  0.13779  0.52109  0.22239  1.0000
  C   C648      1.0  0.02645  0.59201  0.21016  1.0000
  C   C649      1.0  0.19396  0.57582  0.23647  1.0000
  C   C650      1.0  0.18401  0.51756  0.20760  1.0000
  C   C651      1.0  0.01158  0.53213  0.20535  1.0000
  H   H504      1.0  0.99805  0.54745  0.29533  1.0000
  H   H505      1.0  0.08584  0.53823  0.25029  1.0000
  H   H506      1.0  0.12960  0.52893  0.28845  1.0000
  H   H507      1.0  0.15017  0.56903  0.17999  1.0000
  H   H508      1.0  0.08468  0.63455  0.31148  1.0000
  C   C652      1.0  0.16649  0.51201  0.21347  1.0000
  H   H509      1.0  0.06924  0.63618  0.28319  1.0000
  C   C653      1.0  0.15380  0.54429  0.21620  1.0000
  C   C654      1.0  0.19326  0.58045  0.19004  1.0000
  H   H510      1.0  0.03637  0.58741  0.27632  1.0000
  C   C655      1.0  0.18973  0.53592  0.03515  1.0000
  H   H511      1.0  0.20756  0.54978  0.01296  1.0000
  H   H512      1.0  0.14201  0.55444  0.21979  1.0000
  H   H513      1.0  0.12268  0.58796  0.16831  1.0000
  H   H514      1.0  0.06500  0.51208  0.30459  1.0000
  C   C656      1.0  0.01817  0.58427  0.25663  1.0000
  C   C657      1.0  0.19715  0.57198  0.17359  1.0000
  C   C658      1.0  0.00706  0.59526  0.21398  1.0000
  C   C659      1.0  0.14676  0.50667  0.27479  1.0000
  C   C660      1.0  0.10738  0.50315  0.27926  1.0000
  H   H515      1.0  0.15221  0.55136  0.27946  1.0000
  H   H516      1.0  0.23452  0.59299  0.15263  1.0000
  H   H517      1.0  0.17508  0.51869  0.05732  1.0000
  C   C661      1.0  0.17575  0.50198  0.12283  1.0000
  H   H518      1.0  0.03383  0.62819  0.17575  1.0000
  H   H519      1.0  0.99340  0.59861  0.16932  1.0000
  C   C662      1.0  0.03598  0.60383  0.19640  1.0000
  H   H520      1.0  0.99624  0.50980  0.20323  1.0000
  C   C663      1.0  0.16080  0.58402  0.24289  1.0000
  H   H521      1.0  0.15050  0.59081  0.27062  1.0000
  H   H522      1.0  0.22598  0.59825  0.03532  1.0000
  H   H523      1.0  0.22944  0.49949  0.07364  1.0000
  C   C664      1.0  0.99649  0.58386  0.16800  1.0000
  C   C665      1.0  0.22987  0.58348  0.01131  1.0000
  H   H524      1.0  0.02382  0.56372  0.30090  1.0000
  P   P25       1.0  0.99450  0.57942  0.23115  1.0000
  C   C666      1.0  0.22038  0.52230  0.02309  1.0000
  H   H525      1.0  0.11571  0.51842  0.25218  1.0000
  H   H526      1.0  0.02358  0.59511  0.24639  1.0000
  H   H527      1.0  0.05325  0.50993  0.18434  1.0000
  H   H528      1.0  0.01637  0.51021  0.13000  1.0000
  H   H529      1.0  0.14673  0.49932  0.31302  1.0000
  H   H530      1.0  0.23286  0.52364  0.01337  1.0000
  C   C667      1.0  0.23342  0.58636  0.02890  1.0000
  H   H531      1.0  0.04415  0.81222  0.32438  1.0000
  C   C668      1.0  0.07589  0.51300  0.29289  1.0000
  C   C669      1.0  0.21859  0.50601  0.03588  1.0000
  C   C670      1.0  0.16381  0.50171  0.26412  1.0000
  H   H532      1.0  0.16453  0.49739  0.21453  1.0000
  H   H533      1.0  0.21958  0.59308  0.00434  1.0000
  C   C671      1.0  0.09282  0.50153  0.29399  1.0000
  H   H534      1.0  0.06041  0.50544  0.24776  1.0000
  H   H535      1.0  0.07320  0.50858  0.07651  1.0000
  C   C672      1.0  0.99699  0.56127  0.26724  1.0000
  H   H536      1.0  0.99966  0.63459  0.18257  1.0000
  C   C673      1.0  0.00588  0.50209  0.13776  1.0000
  C   C674      1.0  0.20200  0.50465  0.04799  1.0000
  C   C675      1.0  0.99753  0.61090  0.20404  1.0000
  C   C676      1.0  0.00395  0.55746  0.28444  1.0000
  C   C677      1.0  0.99611  0.52259  0.20918  1.0000
  C   C678      1.0  0.03754  0.49651  0.23771  1.0000
  C   C679      1.0  0.04866  0.49592  0.08811  1.0000
  C   C680      1.0  0.05189  0.49588  0.18191  1.0000
  C   C681      1.0  0.07356  0.49796  0.10568  1.0000
  C   C682      1.0  0.23981  0.56862  0.00249  1.0000
  Fe  Fe40      1.0  0.11527  0.73769  0.59503  1.0000
  S   S82       1.0  0.12986  0.70806  0.59735  1.0000
  S   S83       1.0  0.13568  0.75752  0.59821  1.0000
  Fe  Fe41      1.0  0.08078  0.72468  0.58501  1.0000
  S   S84       1.0  0.09325  0.69452  0.58650  1.0000
  S   S85       1.0  0.05380  0.72887  0.57285  1.0000
  Fe  Fe42      1.0  0.10326  0.69912  0.61265  1.0000
  S   S86       1.0  0.10201  0.67797  0.63911  1.0000
  Fe  Fe43      1.0  0.11847  0.70596  0.57101  1.0000
  S   S87       1.0  0.13676  0.69220  0.54801  1.0000
  S   S88       1.0  0.08912  0.72891  0.61253  1.0000
  S   S89       1.0  0.10564  0.73585  0.56750  1.0000
  Fe  Fe44      1.0  0.09001  0.68660  0.45923  1.0000
  S   S90       1.0  0.10835  0.69441  0.43258  1.0000
  S   S91       1.0  0.09919  0.66735  0.48438  1.0000
  Fe  Fe45      1.0  0.05581  0.70833  0.44442  1.0000
  S   S92       1.0  0.07147  0.71857  0.41687  1.0000
  S   S93       1.0  0.02526  0.71097  0.45496  1.0000
  Fe  Fe46      1.0  0.08542  0.68874  0.41768  1.0000
  S   S94       1.0  0.08715  0.67576  0.39066  1.0000
  Fe  Fe47      1.0  0.09314  0.72365  0.43403  1.0000
  S   S95       1.0  0.11299  0.74595  0.43027  1.0000
  S   S96       1.0  0.06851  0.67844  0.44425  1.0000
  S   S97       1.0  0.07611  0.71572  0.46156  1.0000
  H   H537      1.0  0.01463  0.67848  0.49998  1.0000
  H   H538      1.0  0.02453  0.65070  0.65434  1.0000
  C   C683      1.0  0.09812  0.98004  0.48627  1.0000
  C   C684      1.0  0.18643  0.82579  0.52159  1.0000
  H   H539      1.0  0.14683  0.83268  0.50096  1.0000
  S   S98       1.0  0.09333  0.59161  0.64085  1.0000
  H   H540      1.0  0.03928  0.53669  0.64732  1.0000
  H   H541      1.0  0.05683  0.80913  0.40618  1.0000
  Fe  Fe48      1.0  0.08068  0.54062  0.34472  1.0000
  H   H542      1.0  0.03901  0.73563  0.53930  1.0000
  C   C685      1.0  0.17591  0.75250  0.64837  1.0000
  Fe  Fe49      1.0  0.08834  0.57644  0.35897  1.0000
  S   S99       1.0  0.09362  0.58797  0.38494  1.0000
  H   H543      1.0  0.19591  0.80763  0.65199  1.0000
  C   C686      1.0  0.03567  0.70026  0.63280  1.0000
  S   S100      1.0  0.06297  0.56189  0.36131  1.0000
  C   C687      1.0  0.01817  0.71116  0.34601  1.0000
  H   H544      1.0  0.00600  0.61933  0.44430  1.0000
  Fe  Fe50      1.0  0.19056  0.87660  0.57143  1.0000
  S   S101      1.0  0.16271  0.88839  0.58449  1.0000
  S   S102      1.0  0.20042  0.88543  0.54133  1.0000
  Fe  Fe51      1.0  0.20058  0.85359  0.60717  1.0000
  S   S103      1.0  0.17344  0.86379  0.62324  1.0000
  S   S104      1.0  0.22020  0.83122  0.62164  1.0000
  Fe  Fe52      1.0  0.16075  0.85877  0.59849  1.0000
  S   S105      1.0  0.13436  0.84512  0.60098  1.0000
  Fe  Fe53      1.0  0.17790  0.89227  0.60775  1.0000
  S   S106      1.0  0.17359  0.91795  0.62298  1.0000
  S   S107      1.0  0.18755  0.84683  0.58344  1.0000
  S   S108      1.0  0.20607  0.88224  0.59377  1.0000
  Fe  Fe54      1.0  0.14114  0.84891  0.43443  1.0000
  S   S109      1.0  0.15791  0.84097  0.45840  1.0000
  S   S110      1.0  0.11716  0.83318  0.43123  1.0000
  Fe  Fe55      1.0  0.15718  0.88702  0.42354  1.0000
  S   S111      1.0  0.17502  0.88146  0.44662  1.0000
  S   S112      1.0  0.15558  0.91389  0.40304  1.0000
  Fe  Fe56      1.0  0.18134  0.85232  0.43865  1.0000
  C   C688      1.0  0.03956  0.72740  0.52808  1.0000
  Fe  Fe57      1.0  0.15017  0.87072  0.46408  1.0000
  S   S113      1.0  0.13856  0.87706  0.49299  1.0000
  S   S114      1.0  0.16520  0.85834  0.41396  1.0000
  S   S115      1.0  0.13176  0.87822  0.44163  1.0000
  H   H545      1.0  0.12322  0.73678  0.39142  1.0000
  H   H546      1.0  0.03998  0.61355  0.35745  1.0000
  C   C689      1.0  0.22880  0.89911  0.64668  1.0000
  H   H547      1.0  0.05085  0.59237  0.38457  1.0000
  C   C690      1.0  0.18296  0.88404  0.52786  1.0000
  C   C691      1.0  0.16635  0.87778  0.53643  1.0000
  C   C692      1.0  0.15244  0.87654  0.52568  1.0000
  C   C693      1.0  0.15544  0.88066  0.50622  1.0000
  C   C694      1.0  0.17194  0.88720  0.49762  1.0000
  C   C695      1.0  0.18564  0.88907  0.50846  1.0000
  H   H548      1.0  0.16429  0.87343  0.55128  1.0000
  H   H549      1.0  0.13964  0.87162  0.53241  1.0000
  H   H550      1.0  0.17414  0.89089  0.48267  1.0000
  H   H551      1.0  0.19844  0.89402  0.50180  1.0000
  C   C696      1.0  0.16356  0.96281  0.42119  1.0000
  C   C697      1.0  0.16429  0.94341  0.41982  1.0000
  C   C698      1.0  0.15432  0.93756  0.40715  1.0000
  C   C699      1.0  0.14367  0.95115  0.39614  1.0000
  C   C700      1.0  0.14263  0.97022  0.39781  1.0000
  H   H552      1.0  0.17280  0.93306  0.42818  1.0000
  H   H553      1.0  0.13611  0.94689  0.38617  1.0000
  H   H554      1.0  0.16323  0.73572  0.47925  1.0000
  C   C701      1.0  0.16512  0.97823  0.59298  1.0000
  C   C702      1.0  0.16761  0.96295  0.58271  1.0000
  C   C703      1.0  0.17086  0.94442  0.59162  1.0000
  C   C704      1.0  0.17107  0.94101  0.61098  1.0000
  C   C705      1.0  0.16892  0.95628  0.62119  1.0000
  C   C706      1.0  0.16619  0.97483  0.61221  1.0000
  H   H555      1.0  0.16695  0.96545  0.56782  1.0000
  H   H556      1.0  0.17274  0.93275  0.58364  1.0000
  C   C707      1.0  0.02650  0.65823  0.46258  1.0000
  H   H557      1.0  0.16423  0.98647  0.62027  1.0000
  C   C708      1.0  0.12563  0.80426  0.48161  1.0000
  C   C709      1.0  0.01356  0.58199  0.34330  1.0000
  C   C710      1.0  0.04666  0.60712  0.38561  1.0000
  C   C711      1.0  0.17960  0.67682  0.61173  1.0000
  C   C712      1.0  0.22646  0.91741  0.44435  1.0000
  C   C713      1.0  0.12693  0.78943  0.49632  1.0000
  C   C714      1.0  0.15907  0.82907  0.54465  1.0000
  P   P26       1.0  0.14497  0.76978  0.49449  1.0000
  H   H558      1.0  0.10726  0.76003  0.49600  1.0000
  H   H559      1.0  0.07479  0.83446  0.40874  1.0000
  H   H560      1.0  0.10523  0.97606  0.42554  1.0000
  C   C715      1.0  0.07447  0.64052  0.55177  1.0000
  H   H561      1.0  0.99953  0.55958  0.64688  1.0000
  C   C716      1.0  0.10331  0.81411  0.37432  1.0000
  C   C717      1.0  0.11365  0.77027  0.43089  1.0000
  C   C718      1.0  0.09774  0.78294  0.43461  1.0000
  C   C719      1.0  0.09915  0.80201  0.43496  1.0000
  C   C720      1.0  0.11642  0.80877  0.43158  1.0000
  C   C721      1.0  0.13233  0.79614  0.42783  1.0000
  C   C722      1.0  0.13090  0.77708  0.42733  1.0000
  H   H562      1.0  0.08435  0.77813  0.43724  1.0000
  H   H563      1.0  0.08673  0.81165  0.43780  1.0000
  H   H564      1.0  0.14568  0.80117  0.42490  1.0000
  H   H565      1.0  0.14328  0.76751  0.42406  1.0000
  C   C723      1.0  0.08911  0.65126  0.38949  1.0000
  C   C724      1.0  0.08914  0.64508  0.37209  1.0000
  C   C725      1.0  0.09053  0.62581  0.37052  1.0000
  C   C726      1.0  0.09213  0.61242  0.38629  1.0000
  C   C727      1.0  0.09232  0.61858  0.40368  1.0000
  C   C728      1.0  0.09068  0.63789  0.40531  1.0000
  P   P27       1.0  0.02748  0.50902  0.39774  1.0000
  H   H566      1.0  0.13232  0.94448  0.59356  1.0000
  H   H567      1.0  0.09367  0.60837  0.41596  1.0000
  H   H568      1.0  0.09082  0.64240  0.41877  1.0000
  C   C729      1.0  0.00831  0.72156  0.44073  1.0000
  C   C730      1.0  0.01289  0.73135  0.42303  1.0000
  H   H569      1.0  0.20519  0.96071  0.42992  1.0000
  C   C731      1.0  0.12177  0.63016  0.57195  1.0000
  H   H570      1.0  0.18669  0.82447  0.55152  1.0000
  H   H571      1.0  0.01003  0.62546  0.33796  1.0000
  H   H572      1.0  0.02724  0.73218  0.41756  1.0000
  C   C732      1.0  0.16996  0.82520  0.65445  1.0000
  C   C733      1.0  0.04245  0.70551  0.49921  1.0000
  C   C734      1.0  0.02718  0.79059  0.33612  1.0000
  C   C735      1.0  0.13453  0.78219  0.59762  1.0000
  C   C736      1.0  0.11784  0.79407  0.60005  1.0000
  C   C737      1.0  0.11796  0.81335  0.60086  1.0000
  C   C738      1.0  0.13471  0.82094  0.59919  1.0000
  C   C739      1.0  0.15135  0.80909  0.59640  1.0000
  C   C740      1.0  0.15123  0.78988  0.59561  1.0000
  H   H573      1.0  0.10487  0.78836  0.60170  1.0000
  H   H574      1.0  0.10499  0.82239  0.60301  1.0000
  H   H575      1.0  0.16429  0.81472  0.59511  1.0000
  H   H576      1.0  0.16416  0.78085  0.59361  1.0000
  C   C741      1.0  0.09907  0.65414  0.63932  1.0000
  C   C742      1.0  0.19824  0.75807  0.60658  1.0000
  C   C743      1.0  0.22933  0.95978  0.59250  1.0000
  C   C744      1.0  0.09500  0.61575  0.64075  1.0000
  C   C745      1.0  0.09477  0.62792  0.62385  1.0000
  C   C746      1.0  0.09673  0.64701  0.62315  1.0000
  H   H577      1.0  0.07011  0.98343  0.59055  1.0000
  H   H578      1.0  0.20792  0.77841  0.56174  1.0000
  H   H579      1.0  0.09325  0.62252  0.61119  1.0000
  H   H580      1.0  0.09670  0.65614  0.61003  1.0000
  C   C747      1.0  0.03175  0.73290  0.58568  1.0000
  C   C748      1.0  0.01644  0.72892  0.57831  1.0000
  C   C749      1.0  0.02941  0.67798  0.35243  1.0000
  C   C750      1.0  0.02863  0.76447  0.44004  1.0000
  H   H581      1.0  0.01628  0.67229  0.41723  1.0000
  C   C751      1.0  0.02899  0.74122  0.60214  1.0000
  H   H582      1.0  0.01843  0.72254  0.56558  1.0000
  C   C752      1.0  0.02051  0.77540  0.42522  1.0000
  C   C753      1.0  0.05301  0.79728  0.35004  1.0000
  H   H583      1.0  0.04073  0.74445  0.60782  1.0000
  C   C754      1.0  0.12620  0.68660  0.52971  1.0000
  C   C755      1.0  0.13419  0.67093  0.52101  1.0000
  C   C756      1.0  0.12599  0.66553  0.50683  1.0000
  C   C757      1.0  0.10997  0.67602  0.50078  1.0000
  C   C758      1.0  0.10202  0.69195  0.50924  1.0000
  C   C759      1.0  0.11015  0.69725  0.52371  1.0000
  H   H584      1.0  0.14659  0.66267  0.52553  1.0000
  H   H585      1.0  0.13207  0.65309  0.50056  1.0000
  H   H586      1.0  0.08946  0.69996  0.50486  1.0000
  H   H587      1.0  0.10398  0.70950  0.53025  1.0000
  C   C760      1.0  0.14843  0.73554  0.48061  1.0000
  C   C761      1.0  0.14171  0.72064  0.47485  1.0000
  C   C762      1.0  0.12269  0.72010  0.47654  1.0000
  C   C763      1.0  0.11039  0.73422  0.48439  1.0000
  C   C764      1.0  0.11703  0.74925  0.49001  1.0000
  H   H588      1.0  0.11512  0.77907  0.52430  1.0000
  H   H589      1.0  0.09212  0.80705  0.52773  1.0000
  H   H590      1.0  0.15118  0.70949  0.46902  1.0000
  H   H591      1.0  0.11752  0.70858  0.47194  1.0000
  H   H592      1.0  0.09569  0.73345  0.48615  1.0000
  H   H593      1.0  0.20736  0.60731  0.56749  1.0000
  H   H594      1.0  0.19603  0.85358  0.49091  1.0000
  H   H595      1.0  0.23064  0.90434  0.37799  1.0000
  C   C765      1.0  0.10392  0.95194  0.45855  1.0000
  C   C766      1.0  0.11537  0.94223  0.44503  1.0000
  C   C767      1.0  0.11005  0.92655  0.43935  1.0000
  C   C768      1.0  0.09331  0.92024  0.44731  1.0000
  C   C769      1.0  0.21093  0.85212  0.48863  1.0000
  C   C770      1.0  0.16259  0.74909  0.63779  1.0000
  C   C771      1.0  0.13531  0.96545  0.46939  1.0000
  C   C772      1.0  0.14070  0.94768  0.47898  1.0000
  C   C773      1.0  0.15893  0.94253  0.48287  1.0000
  C   C774      1.0  0.17189  0.95513  0.47730  1.0000
  C   C775      1.0  0.16661  0.97287  0.46789  1.0000
  C   C776      1.0  0.14844  0.97795  0.46377  1.0000
  C   C777      1.0  0.22003  0.98442  0.39779  1.0000
  C   C778      1.0  0.00768  0.51001  0.41559  1.0000
  H   H596      1.0  0.12841  0.94691  0.43876  1.0000
  H   H597      1.0  0.11900  0.91930  0.42875  1.0000
  H   H598      1.0  0.08934  0.90794  0.44297  1.0000
  C   C779      1.0  0.05950  0.64290  0.32901  1.0000
  C   C780      1.0  0.23331  0.98685  0.60652  1.0000
  H   H599      1.0  0.13084  0.93775  0.48340  1.0000
  H   H600      1.0  0.16296  0.92878  0.49025  1.0000
  H   H601      1.0  0.05880  0.74918  0.48437  1.0000
  H   H602      1.0  0.05642  0.65362  0.65918  1.0000
  H   H603      1.0  0.22097  0.98047  0.44679  1.0000
  C   C781      1.0  0.19362  0.98222  0.38215  1.0000
  C   C782      1.0  0.08407  0.98315  0.58333  1.0000
  C   C783      1.0  0.14989  0.66035  0.63266  1.0000
  H   H604      1.0  0.02984  0.73027  0.48355  1.0000
  H   H605      1.0  0.06642  0.64185  0.34130  1.0000
  C   C784      1.0  0.10681  0.98141  0.50183  1.0000
  C   C785      1.0  0.04499  0.68272  0.35880  1.0000
  H   H606      1.0  0.00875  0.75274  0.62340  1.0000
  C   C786      1.0  0.07741  0.74363  0.36951  1.0000
  H   H607      1.0  0.06465  0.74500  0.36354  1.0000
  C   C787      1.0  0.08706  0.94559  0.46646  1.0000
  H   H608      1.0  0.17584  0.83652  0.65856  1.0000
  C   C788      1.0  0.09258  0.96732  0.57513  1.0000
  H   H609      1.0  0.03362  0.66006  0.38936  1.0000
  H   H610      1.0  0.17826  0.62506  0.58020  1.0000
  H   H611      1.0  0.03466  0.73020  0.35376  1.0000
  H   H612      1.0  0.03281  0.76099  0.37617  1.0000
  H   H613      1.0  0.08461  0.76642  0.47023  1.0000
  C   C789      1.0  0.01089  0.74596  0.61088  1.0000
  C   C790      1.0  0.01144  0.63032  0.44949  1.0000
  H   H614      1.0  0.21089  0.94148  0.60910  1.0000
  H   H615      1.0  0.20447  0.74728  0.58008  1.0000
  C   C791      1.0  0.20473  0.77716  0.57680  1.0000
  C   C792      1.0  0.99843  0.73349  0.58710  1.0000
  H   H616      1.0  0.23273  0.98055  0.50659  1.0000
  C   C793      1.0  0.04775  0.70880  0.53038  1.0000
  C   C794      1.0  0.04924  0.69778  0.51597  1.0000
  H   H617      1.0  0.05329  0.70324  0.54327  1.0000
  H   H618      1.0  0.05607  0.68347  0.51759  1.0000
  C   C795      1.0  0.04335  0.63326  0.40332  1.0000
  C   C796      1.0  0.04796  0.61413  0.40212  1.0000
  C   C797      1.0  0.99191  0.70630  0.39026  1.0000
  H   H619      1.0  0.04490  0.63879  0.41593  1.0000
  H   H620      1.0  0.05329  0.60480  0.41369  1.0000
  H   H621      1.0  0.06882  0.92483  0.46697  1.0000
  C   C798      1.0  0.02658  0.51130  0.65351  1.0000
  C   C799      1.0  0.03047  0.52714  0.36104  1.0000
  H   H622      1.0  0.00570  0.77972  0.42673  1.0000
  H   H623      1.0  0.03624  0.71068  0.64182  1.0000
  C   C800      1.0  0.15565  0.83058  0.51195  1.0000
  C   C801      1.0  0.14775  0.83121  0.53050  1.0000
  C   C802      1.0  0.05182  0.68906  0.62659  1.0000
  C   C803      1.0  0.10666  0.72508  0.37525  1.0000
  H   H624      1.0  0.10102  0.76512  0.39524  1.0000
  C   C804      1.0  0.03135  0.78007  0.40819  1.0000
  P   P28       1.0  0.06435  0.77787  0.38341  1.0000
  C   C805      1.0  0.04356  0.52409  0.40180  1.0000
  C   C806      1.0  0.03739  0.54016  0.41071  1.0000
  C   C807      1.0  0.05002  0.55169  0.41364  1.0000
  C   C808      1.0  0.06888  0.54728  0.40774  1.0000
  C   C809      1.0  0.07510  0.53147  0.39867  1.0000
  C   C810      1.0  0.06249  0.52004  0.39554  1.0000
  H   H625      1.0  0.05843  0.70477  0.36522  1.0000
  H   H626      1.0  0.04371  0.53028  0.36339  1.0000
  C   C811      1.0  0.05034  0.77335  0.40575  1.0000
  C   C812      1.0  0.21462  0.79776  0.50762  1.0000
  P   P29       1.0  0.15921  0.62642  0.61825  1.0000
  C   C813      1.0  0.07973  0.82489  0.39850  1.0000
  H   H627      1.0  0.00643  0.70734  0.63147  1.0000
  C   C814      1.0  0.08110  0.75743  0.37958  1.0000
  H   H628      1.0  0.02288  0.54401  0.41522  1.0000
  H   H629      1.0  0.04521  0.56421  0.42025  1.0000
  H   H630      1.0  0.07864  0.55638  0.40971  1.0000
  H   H631      1.0  0.08965  0.52840  0.39353  1.0000
  H   H632      1.0  0.21714  0.92635  0.65489  1.0000
  H   H633      1.0  0.03248  0.66917  0.46730  1.0000
  C   C815      1.0  0.17489  0.82773  0.50752  1.0000
  C   C816      1.0  0.12977  0.61272  0.57987  1.0000
  H   H634      1.0  0.11360  0.63106  0.56059  1.0000
  H   H635      1.0  0.14740  0.59801  0.59966  1.0000
  H   H636      1.0  0.12768  0.60007  0.57474  1.0000
  H   H637      1.0  0.12961  0.81519  0.64337  1.0000
  H   H638      1.0  0.18073  0.82716  0.49307  1.0000
  C   C817      1.0  0.01625  0.69237  0.34557  1.0000
  C   C818      1.0  0.02446  0.53316  0.34356  1.0000
  C   C819      1.0  0.12118  0.90054  0.60822  1.0000
  C   C820      1.0  0.03894  0.59669  0.62372  1.0000
  C   C821      1.0  0.06966  0.81042  0.39705  1.0000
  H   H639      1.0  0.19670  0.74439  0.61436  1.0000
  C   C822      1.0  0.15226  0.73417  0.64372  1.0000
  C   C823      1.0  0.05705  0.51354  0.63637  1.0000
  C   C824      1.0  0.04069  0.52201  0.64557  1.0000
  C   C825      1.0  0.00726  0.52942  0.34023  1.0000
  C   C826      1.0  0.12727  0.91774  0.60871  1.0000
  H   H640      1.0  0.11651  0.81538  0.36579  1.0000
  C   C827      1.0  0.00341  0.64945  0.35330  1.0000
  C   C828      1.0  0.00091  0.77877  0.56555  1.0000
  H   H641      1.0  0.06829  0.52168  0.63094  1.0000
  C   C829      1.0  0.05847  0.76319  0.42102  1.0000
  C   C830      1.0  0.00699  0.69574  0.39808  1.0000
  H   H642      1.0  0.05361  0.60718  0.64256  1.0000
  C   C831      1.0  0.00560  0.49531  0.43029  1.0000
  C   C832      1.0  0.02772  0.62583  0.45788  1.0000
  H   H643      1.0  0.04123  0.58233  0.63033  1.0000
  H   H644      1.0  0.17158  0.96733  0.43050  1.0000
  H   H645      1.0  0.21680  0.58206  0.62302  1.0000
  H   H646      1.0  0.16913  0.95376  0.63617  1.0000
  H   H647      1.0  0.09867  0.79008  0.36264  1.0000
  C   C833      1.0  0.21378  0.98897  0.55759  1.0000
  C   C834      1.0  0.14072  0.61160  0.59422  1.0000
  H   H648      1.0  0.10057  0.49810  0.37145  1.0000
  C   C835      1.0  0.13611  0.75019  0.48784  1.0000
  C   C836      1.0  0.10145  0.80627  0.51484  1.0000
  H   H649      1.0  0.21126  0.95838  0.39340  1.0000
  C   C837      1.0  0.22195  0.98060  0.62264  1.0000
  C   C838      1.0  0.11453  0.79043  0.51285  1.0000
  C   C839      1.0  0.13521  0.64540  0.59308  1.0000
  H   H650      1.0  0.19597  0.78576  0.53051  1.0000
  H   H651      1.0  0.20488  0.95958  0.63592  1.0000
  H   H652      1.0  0.06488  0.69070  0.63092  1.0000
  H   H653      1.0  0.13509  0.98132  0.56060  1.0000
  H   H654      1.0  0.02400  0.59015  0.60283  1.0000
  H   H655      1.0  0.13421  0.98042  0.38916  1.0000
  C   C840      1.0  0.03732  0.64537  0.38802  1.0000
  C   C841      1.0  0.14337  0.62790  0.60114  1.0000
  C   C842      1.0  0.03532  0.63980  0.46431  1.0000
  H   H656      1.0  0.15251  0.73306  0.51789  1.0000
  H   H657      1.0  0.08730  0.71675  0.35988  1.0000
  H   H658      1.0  0.14480  0.99146  0.45593  1.0000
  C   C843      1.0  0.04077  0.61921  0.37022  1.0000
  H   H659      1.0  0.15290  0.82993  0.55900  1.0000
  C   C844      1.0  0.99559  0.74224  0.60327  1.0000
  H   H660      1.0  0.19904  0.98486  0.51657  1.0000
  H   H661      1.0  0.03307  0.54103  0.33277  1.0000
  H   H662      1.0  0.02737  0.58302  0.36709  1.0000
  C   C845      1.0  0.01542  0.57924  0.36238  1.0000
  C   C846      1.0  0.16293  0.64978  0.62104  1.0000
  C   C847      1.0  0.99877  0.74045  0.41257  1.0000
  C   C848      1.0  0.03272  0.73531  0.51136  1.0000
  C   C849      1.0  0.15255  0.97629  0.41022  1.0000
  P   P30       1.0  0.21124  0.82039  0.51585  1.0000
  H   H663      1.0  0.99782  0.61524  0.38420  1.0000
  C   C850      1.0  0.20306  0.60571  0.58245  1.0000
  C   C851      1.0  0.19185  0.60150  0.62105  1.0000
  C   C852      1.0  0.01465  0.76785  0.53023  1.0000
  C   C853      1.0  0.05808  0.76367  0.48649  1.0000
  C   C854      1.0  0.07285  0.77342  0.47842  1.0000
  C   C855      1.0  0.22751  0.98274  0.52089  1.0000
  C   C856      1.0  0.15496  0.74413  0.52527  1.0000
  C   C857      1.0  0.10061  0.82118  0.50034  1.0000
  H   H664      1.0  0.16049  0.72469  0.54973  1.0000
  H   H665      1.0  0.09070  0.83360  0.50195  1.0000
  H   H666      1.0  0.15464  0.76513  0.45467  1.0000
  C   C858      1.0  0.09173  0.92676  0.51245  1.0000
  H   H667      1.0  0.14122  0.68711  0.64246  1.0000
  H   H668      1.0  0.18600  0.95118  0.48035  1.0000
  P   P31       1.0  0.11145  0.97217  0.46537  1.0000
  C   C859      1.0  0.03611  0.63847  0.37130  1.0000
  H   H669      1.0  0.11672  0.90798  0.50686  1.0000
  C   C860      1.0  0.17775  0.65819  0.61045  1.0000
  H   H670      1.0  0.07803  0.95261  0.47703  1.0000
  C   C861      1.0  0.15956  0.73925  0.54346  1.0000
  C   C862      1.0  0.15275  0.76304  0.51729  1.0000
  C   C863      1.0  0.16331  0.77728  0.47686  1.0000
  C   C864      1.0  0.16427  0.77336  0.45841  1.0000
  C   C865      1.0  0.21778  0.95372  0.60859  1.0000
  C   C866      1.0  0.04980  0.78298  0.36488  1.0000
  C   C867      1.0  0.20838  0.59152  0.61372  1.0000
  C   C868      1.0  0.01994  0.77656  0.55978  1.0000
  H   H671      1.0  0.10366  0.99089  0.52892  1.0000
  C   C869      1.0  0.09019  0.72757  0.36734  1.0000
  H   H672      1.0  0.23630  0.77466  0.47140  1.0000
  P   P32       1.0  0.02373  0.75994  0.50791  1.0000
  C   C870      1.0  0.04278  0.77258  0.49719  1.0000
  C   C871      1.0  0.07253  0.79212  0.48090  1.0000
  C   C872      1.0  0.14391  0.81312  0.64603  1.0000
  C   C873      1.0  0.99383  0.52543  0.41448  1.0000
  H   H673      1.0  0.08406  0.79959  0.47461  1.0000
  C   C874      1.0  0.11261  0.82011  0.48370  1.0000
  C   C875      1.0  0.23869  0.86421  0.47239  1.0000
  H   H674      1.0  0.08472  0.92177  0.50248  1.0000
  C   C876      1.0  0.13999  0.60000  0.64257  1.0000
  C   C877      1.0  0.05735  0.80116  0.49143  1.0000
  C   C878      1.0  0.04250  0.79145  0.49954  1.0000
  C   C879      1.0  0.99103  0.63265  0.40641  1.0000
  C   C880      1.0  0.21419  0.96405  0.62368  1.0000
  C   C881      1.0  0.09319  0.79975  0.37266  1.0000
  C   C882      1.0  0.16206  0.75314  0.55384  1.0000
  C   C883      1.0  0.15536  0.77689  0.52785  1.0000
  C   C884      1.0  0.17722  0.78072  0.44431  1.0000
  H   H675      1.0  0.17767  0.77784  0.43007  1.0000
  C   C885      1.0  0.11072  0.96676  0.56582  1.0000
  C   C886      1.0  0.04382  0.62913  0.62165  1.0000
  H   H676      1.0  0.99356  0.50588  0.38252  1.0000
  C   C887      1.0  0.21233  0.93229  0.44195  1.0000
  C   C888      1.0  0.19535  0.77414  0.61576  1.0000
  C   C889      1.0  0.99793  0.57721  0.33737  1.0000
  C   C890      1.0  0.10979  0.91891  0.51496  1.0000
  C   C891      1.0  0.12455  0.64648  0.57849  1.0000
  H   H677      1.0  0.12137  0.97657  0.50205  1.0000
  C   C892      1.0  0.09666  0.82656  0.38736  1.0000
  H   H678      1.0  0.05713  0.81569  0.49330  1.0000
  H   H679      1.0  0.14181  0.73194  0.63550  1.0000
  H   H680      1.0  0.04398  0.69715  0.48783  1.0000
  C   C893      1.0  0.15996  0.77195  0.54605  1.0000
  C   C894      1.0  0.03539  0.77226  0.36497  1.0000
  C   C895      1.0  0.17528  0.78904  0.48082  1.0000
  H   H681      1.0  0.16501  0.74936  0.56815  1.0000
  H   H682      1.0  0.15312  0.79157  0.52232  1.0000
  H   H683      1.0  0.13475  0.80382  0.46855  1.0000
  H   H684      1.0  0.17447  0.79281  0.49468  1.0000
  H   H685      1.0  0.14269  0.84069  0.65387  1.0000
  C   C896      1.0  0.23469  0.90773  0.34784  1.0000
  H   H686      1.0  0.22069  0.91442  0.34656  1.0000
  C   C897      1.0  0.21942  0.86529  0.47551  1.0000
  H   H687      1.0  0.01097  0.79237  0.48156  1.0000
  H   H688      1.0  0.16122  0.78276  0.55439  1.0000
  H   H689      1.0  0.11194  0.83162  0.47238  1.0000
  C   C898      1.0  0.23218  0.98891  0.44317  1.0000
  H   H690      1.0  0.03468  0.61157  0.45907  1.0000
  C   C899      1.0  0.11056  0.73881  0.38503  1.0000
  H   H691      1.0  0.13212  0.92051  0.62125  1.0000
  S   S116      1.0  0.08269  0.59491  0.33234  1.0000
  H   H692      1.0  0.21330  0.84821  0.53964  1.0000
  H   H693      1.0  0.05763  0.68542  0.57547  1.0000
  H   H694      1.0  0.10478  0.83733  0.38910  1.0000
  H   H695      1.0  0.13284  0.91845  0.52986  1.0000
  C   C900      1.0  0.11889  0.92499  0.52800  1.0000
  H   H696      1.0  0.23310  0.80541  0.48242  1.0000
  C   C901      1.0  0.00588  0.76399  0.49266  1.0000
  C   C902      1.0  0.15760  0.61805  0.65711  1.0000
  H   H697      1.0  0.23118  0.95205  0.58062  1.0000
  C   C903      1.0  0.23441  0.95135  0.42296  1.0000
  C   C904      1.0  0.18799  0.79668  0.46659  1.0000
  C   C905      1.0  0.18902  0.79246  0.44838  1.0000
  C   C906      1.0  0.01889  0.69835  0.62700  1.0000
  C   C907      1.0  0.17832  0.82627  0.54026  1.0000
  H   H698      1.0  0.21288  0.87390  0.42170  1.0000
  H   H699      1.0  0.11127  0.88321  0.59138  1.0000
  H   H700      1.0  0.11152  0.90681  0.56347  1.0000
  C   C908      1.0  0.00434  0.68012  0.41140  1.0000
  S   S117      1.0  0.03054  0.59137  0.32664  1.0000
  H   H701      1.0  0.09065  0.62128  0.35705  1.0000
  H   H702      1.0  0.22999  0.91215  0.57539  1.0000
  S   S118      1.0  0.07439  0.51113  0.34387  1.0000
  C   C909      1.0  0.01026  0.66278  0.45421  1.0000
  H   H703      1.0  0.02477  0.78865  0.39695  1.0000
  H   H704      1.0  0.19676  0.80632  0.46945  1.0000
  C   C910      1.0  0.04032  0.64814  0.33003  1.0000
  H   H705      1.0  0.16817  0.97683  0.51129  1.0000
  C   C911      1.0  0.22287  0.81932  0.53619  1.0000
  C   C912      1.0  0.02934  0.60113  0.60815  1.0000
  H   H706      1.0  0.13801  0.65434  0.64044  1.0000
  C   C913      1.0  0.08278  0.94086  0.52290  1.0000
  S   S119      1.0  0.10671  0.55343  0.34461  1.0000
  C   C914      1.0  0.20277  0.75963  0.58715  1.0000
  Fe  Fe58      1.0  0.05866  0.57897  0.33390  1.0000
  C   C915      1.0  0.15508  0.79630  0.64295  1.0000
  H   H707      1.0  0.19401  0.95152  0.51764  1.0000
  H   H708      1.0  0.06881  0.94705  0.52084  1.0000
  C   C916      1.0  0.16579  0.96481  0.52167  1.0000
  H   H709      1.0  0.16660  0.62870  0.65626  1.0000
  C   C917      1.0  0.10993  0.93896  0.53881  1.0000
  C   C918      1.0  0.18032  0.95063  0.52524  1.0000
  H   H710      1.0  0.18779  0.59958  0.63602  1.0000
  H   H711      1.0  0.18771  0.65058  0.60096  1.0000
  H   H712      1.0  0.03084  0.79865  0.50765  1.0000
  H   H713      1.0  0.00786  0.72219  0.34088  1.0000
  H   H714      1.0  0.19867  0.79869  0.43735  1.0000
  C   C919      1.0  0.05123  0.67597  0.61453  1.0000
  H   H715      1.0  0.08412  0.68489  0.55072  1.0000
  H   H716      1.0  0.13285  0.83380  0.53386  1.0000
  H   H717      1.0  0.04818  0.63645  0.47038  1.0000
  H   H718      1.0  0.22857  0.76515  0.62779  1.0000
  H   H719      1.0  0.11857  0.66004  0.57212  1.0000
  H   H720      1.0  0.18845  0.92415  0.54129  1.0000
  C   C920      1.0  0.15174  0.67896  0.63388  1.0000
  C   C921      1.0  0.22602  0.79446  0.49091  1.0000
  C   C922      1.0  0.17719  0.93515  0.53855  1.0000
  C   C923      1.0  0.09178  0.94689  0.53609  1.0000
  C   C924      1.0  0.14812  0.96340  0.53134  1.0000
  C   C925      1.0  0.11587  0.91020  0.57595  1.0000
  H   H721      1.0  0.13701  0.97441  0.52831  1.0000
  C   C926      1.0  0.11550  0.89678  0.59185  1.0000
  H   H722      1.0  0.11626  0.71235  0.37406  1.0000
  H   H723      1.0  0.13712  0.65832  0.59778  1.0000
  H   H724      1.0  0.06391  0.66752  0.60974  1.0000
  C   C927      1.0  0.01826  0.68532  0.61488  1.0000
  H   H725      1.0  0.05299  0.62801  0.57006  1.0000
  H   H726      1.0  0.07914  0.62813  0.54489  1.0000
  C   C928      1.0  0.06234  0.67265  0.56922  1.0000
  H   H727      1.0  0.15734  0.92142  0.55816  1.0000
  C   C929      1.0  0.14491  0.94800  0.54495  1.0000
  C   C930      1.0  0.00325  0.65254  0.50963  1.0000
  C   C931      1.0  0.23299  0.98636  0.55217  1.0000
  H   H728      1.0  0.05392  0.75044  0.44962  1.0000
  C   C932      1.0  0.15953  0.93374  0.54825  1.0000
  C   C933      1.0  0.21397  0.59360  0.59444  1.0000
  C   C934      1.0  0.03445  0.67399  0.60856  1.0000
  H   H729      1.0  0.00517  0.68444  0.61029  1.0000
  C   C935      1.0  0.15134  0.61420  0.64092  1.0000
  H   H730      1.0  0.99519  0.53686  0.40323  1.0000
  C   C936      1.0  0.03434  0.72424  0.49686  1.0000
  P   P33       1.0  0.12178  0.94558  0.55640  1.0000
  H   H731      1.0  0.08453  0.95783  0.54388  1.0000
  C   C937      1.0  0.01945  0.51728  0.37530  1.0000
  H   H732      1.0  0.05013  0.63946  0.62687  1.0000
  C   C938      1.0  0.12060  0.98184  0.56601  1.0000
  C   C939      1.0  0.04597  0.61072  0.63058  1.0000
  C   C940      1.0  0.02679  0.77130  0.54214  1.0000
  H   H733      1.0  0.04163  0.76921  0.53813  1.0000
  H   H734      1.0  0.01579  0.64382  0.50486  1.0000
  C   C941      1.0  0.18075  0.61363  0.60909  1.0000
  H   H735      1.0  0.02017  0.75994  0.45288  1.0000
  C   C942      1.0  0.12192  0.92756  0.57636  1.0000
  H   H736      1.0  0.22549  0.91112  0.60969  1.0000
  C   C943      1.0  0.20867  0.97355  0.39128  1.0000
  H   H737      1.0  0.18444  0.97379  0.37784  1.0000
  H   H738      1.0  0.19615  0.80417  0.61209  1.0000
  H   H739      1.0  0.08826  0.65524  0.35972  1.0000
  P   P34       1.0  0.18861  0.77238  0.64073  1.0000
  C   C944      1.0  0.04765  0.75876  0.43808  1.0000
  H   H740      1.0  0.06414  0.80560  0.34948  1.0000
  C   C945      1.0  0.05961  0.64055  0.56612  1.0000
  H   H741      1.0  0.99696  0.69893  0.54822  1.0000
  H   H742      1.0  0.12135  0.88990  0.62034  1.0000
  P   P35       1.0  0.02716  0.65368  0.35185  1.0000
  H   H743      1.0  0.02066  0.70000  0.39427  1.0000
  H   H744      1.0  0.13461  0.59678  0.63061  1.0000
  C   C946      1.0  0.08180  0.92977  0.46084  1.0000
  C   C947      1.0  0.09786  0.75489  0.38720  1.0000
  C   C948      1.0  0.07646  0.79756  0.38429  1.0000
  H   H745      1.0  0.08516  0.95530  0.57646  1.0000
  C   C949      1.0  0.12758  0.93122  0.59288  1.0000
  H   H746      1.0  0.02559  0.68632  0.56203  1.0000
  C   C950      1.0  0.23025  0.83512  0.56076  1.0000
  H   H747      1.0  0.20396  0.80671  0.57798  1.0000
  C   C951      1.0  0.20163  0.98805  0.54488  1.0000
  C   C952      1.0  0.01332  0.66439  0.58118  1.0000
  P   P36       1.0  0.03368  0.65709  0.59291  1.0000
  C   C953      1.0  0.05345  0.65664  0.57502  1.0000
  C   C954      1.0  0.08332  0.65649  0.54622  1.0000
  H   H748      1.0  0.02061  0.62256  0.58652  1.0000
  H   H749      1.0  0.09484  0.65649  0.53512  1.0000
  H   H750      1.0  0.07315  0.75833  0.41970  1.0000
  C   C955      1.0  0.00278  0.78127  0.48133  1.0000
  C   C956      1.0  0.09716  0.62293  0.65695  1.0000
  H   H751      1.0  0.19913  0.75504  0.51902  1.0000
  C   C957      1.0  0.03439  0.63376  0.60583  1.0000
  C   C958      1.0  0.02720  0.61956  0.59913  1.0000
  C   C959      1.0  0.07730  0.67248  0.55501  1.0000
  S   S120      1.0  0.20984  0.83579  0.43947  1.0000
  C   C960      1.0  0.22888  0.84847  0.43261  1.0000
  H   H752      1.0  0.14899  0.78560  0.63810  1.0000
  H   H753      1.0  0.21933  0.74938  0.48947  1.0000
  C   C961      1.0  0.01327  0.67963  0.56682  1.0000
  C   C962      1.0  0.21629  0.94925  0.43144  1.0000
  C   C963      1.0  0.18653  0.61570  0.58972  1.0000
  H   H754      1.0  0.02943  0.77830  0.56924  1.0000
  C   C964      1.0  0.99929  0.57305  0.65164  1.0000
  H   H755      1.0  0.22339  0.90423  0.45234  1.0000
  C   C965      1.0  0.02404  0.77617  0.35072  1.0000
  H   H756      1.0  0.99236  0.67058  0.37146  1.0000
  C   C966      1.0  0.23927  0.90765  0.60261  1.0000
  C   C967      1.0  0.20849  0.98505  0.52653  1.0000
  C   C968      1.0  0.99678  0.65682  0.58780  1.0000
  C   C969      1.0  0.04669  0.70145  0.35955  1.0000
  H   H757      1.0  0.19087  0.68333  0.60332  1.0000
  H   H758      1.0  0.21097  0.87616  0.46757  1.0000
  H   H759      1.0  0.05579  0.67196  0.36341  1.0000
  C   C970      1.0  0.20509  0.78337  0.51779  1.0000
  C   C971      1.0  0.20247  0.79309  0.58592  1.0000
  C   C972      1.0  0.22652  0.86713  0.42429  1.0000
  H   H760      1.0  0.19828  0.93064  0.44817  1.0000
  C   C973      1.0  0.15131  0.82753  0.65187  1.0000
  C   C974      1.0  0.22426  0.88151  0.64447  1.0000
  C   C975      1.0  0.22169  0.83753  0.49855  1.0000
  C   C976      1.0  0.17387  0.79382  0.64548  1.0000
  C   C977      1.0  0.23401  0.80304  0.54288  1.0000
  C   C978      1.0  0.03328  0.71569  0.35319  1.0000
  H   H761      1.0  0.16773  0.70177  0.62401  1.0000
  H   H762      1.0  0.16006  0.75805  0.62494  1.0000
  H   H763      1.0  0.17663  0.98268  0.46360  1.0000
  C   C979      1.0  0.22141  0.83543  0.54499  1.0000
  C   C980      1.0  0.16659  0.68720  0.62343  1.0000
  C   C981      1.0  0.99704  0.68692  0.55902  1.0000
  C   C982      1.0  0.09928  0.64198  0.65621  1.0000
  H   H764      1.0  0.07262  0.98710  0.47389  1.0000
  C   C983      1.0  0.19795  0.79160  0.60533  1.0000
  H   H765      1.0  0.00455  0.68911  0.33982  1.0000
  H   H766      1.0  0.00397  0.67730  0.45248  1.0000
  H   H767      1.0  0.00229  0.74819  0.39897  1.0000
  H   H768      1.0  0.99376  0.71887  0.38055  1.0000
  H   H769      1.0  0.06750  0.50824  0.38791  1.0000
  H   H770      1.0  0.99615  0.64573  0.59944  1.0000
  C   C984      1.0  0.20685  0.76595  0.51132  1.0000
  H   H771      1.0  0.01270  0.76813  0.35110  1.0000
  C   C985      1.0  0.22780  0.77699  0.48452  1.0000
  H   H772      1.0  0.00147  0.64158  0.40062  1.0000
  C   C986      1.0  0.04170  0.80107  0.33573  1.0000
  C   C987      1.0  0.21819  0.76277  0.49467  1.0000
  C   C988      1.0  0.10558  0.98978  0.42937  1.0000
  C   C989      1.0  0.00265  0.64889  0.44745  1.0000
  H   H773      1.0  0.00235  0.53460  0.32692  1.0000
  C   C990      1.0  0.99453  0.75014  0.49244  1.0000
  C   C991      1.0  0.21484  0.91214  0.65445  1.0000
  C   C992      1.0  0.20904  0.77032  0.65232  1.0000
  H   H774      1.0  0.20808  0.99144  0.57171  1.0000
  C   C993      1.0  0.99923  0.63427  0.34551  1.0000
  C   C994      1.0  0.20663  0.87661  0.65101  1.0000
  C   C995      1.0  0.22679  0.76683  0.64246  1.0000
  H   H775      1.0  0.18684  0.99002  0.54924  1.0000
  H   H776      1.0  0.00282  0.57019  0.39026  1.0000
  C   C996      1.0  0.07935  0.98717  0.48614  1.0000
  H   H777      1.0  0.99107  0.61215  0.58353  1.0000
  H   H778      1.0  0.23592  0.79059  0.53598  1.0000
  C   C997      1.0  0.18129  0.80860  0.65090  1.0000
  H   H779      1.0  0.99562  0.78232  0.57945  1.0000
  C   C998      1.0  0.09682  0.98960  0.51708  1.0000
  C   C999      1.0  0.00264  0.67204  0.50688  1.0000
  H   H780      1.0  0.21867  0.98901  0.63408  1.0000
  H   H781      1.0  0.99604  0.73698  0.50160  1.0000
  H   H782      1.0  0.23393  0.87177  0.63694  1.0000
  C   C1000     1.0  0.99614  0.51956  0.35434  1.0000
  C   C1001     1.0  0.99553  0.77007  0.53615  1.0000
  H   H783      1.0  0.22894  0.84765  0.56752  1.0000
  C   C1002     1.0  0.23726  0.97641  0.59130  1.0000
  C   C1003     1.0  0.00148  0.57200  0.37550  1.0000
  H   H784      1.0  0.20334  0.86306  0.64902  1.0000
  H   H785      1.0  0.22672  0.58577  0.58878  1.0000
  C   C1004     1.0  0.00230  0.51337  0.37174  1.0000
  C   C1005     1.0  0.10897  0.99201  0.44733  1.0000
  H   H786      1.0  0.23991  0.89142  0.41268  1.0000
  C   C1006     1.0  0.24029  0.90212  0.36553  1.0000
  C   C1007     1.0  0.23975  0.98327  0.53368  1.0000
  P   P37       1.0  0.23953  0.97338  0.40957  1.0000
  H   H787      1.0  0.99062  0.51381  0.64726  1.0000
  C   C1008     1.0  0.19309  0.88942  0.65933  1.0000
  Fe  Fe59      1.0  0.10465  0.55056  0.70316  1.0000
  S   S121      1.0  0.12771  0.54264  0.72122  1.0000
  S   S122      1.0  0.07929  0.53662  0.71279  1.0000
  Fe  Fe60      1.0  0.09611  0.53163  0.85911  1.0000
  S   S123      1.0  0.10526  0.52483  0.82982  1.0000
  S   S124      1.0  0.06736  0.53186  0.87609  1.0000
  Fe  Fe61      1.0  0.13564  0.53891  0.86464  1.0000
  S   S125      1.0  0.14738  0.53368  0.83536  1.0000
  S   S126      1.0  0.15082  0.54511  0.88794  1.0000
  Fe  Fe62      1.0  0.12086  0.54962  0.82644  1.0000
  S   S127      1.0  0.11793  0.57102  0.80083  1.0000
  Fe  Fe63      1.0  0.13095  0.50936  0.84101  1.0000
  C   C1009     1.0  0.13352  0.49855  0.69982  1.0000
  S   S128      1.0  0.11038  0.55746  0.85525  1.0000
  S   S129      1.0  0.12054  0.51357  0.87077  1.0000
  C   C1010     1.0  0.99373  0.56973  0.78111  1.0000
  H   H788      1.0  0.18492  0.59602  0.90049  1.0000
  H   H789      1.0  0.22421  0.59869  0.85029  1.0000
  C   C1011     1.0  0.18916  0.59375  0.88607  1.0000
  C   C1012     1.0  0.17488  0.54194  0.89024  1.0000
  C   C1013     1.0  0.18854  0.53798  0.87538  1.0000
  C   C1014     1.0  0.20741  0.53699  0.87747  1.0000
  C   C1015     1.0  0.21295  0.53938  0.89454  1.0000
  C   C1016     1.0  0.19931  0.54301  0.90952  1.0000
  C   C1017     1.0  0.18041  0.54439  0.90732  1.0000
  H   H790      1.0  0.18454  0.53617  0.86212  1.0000
  H   H791      1.0  0.21779  0.53446  0.86570  1.0000
  H   H792      1.0  0.20327  0.54482  0.92278  1.0000
  H   H793      1.0  0.16998  0.54750  0.91891  1.0000
  C   C1018     1.0  0.00537  0.53142  0.87218  1.0000
  C   C1019     1.0  0.01798  0.53076  0.85568  1.0000
  C   C1020     1.0  0.03719  0.53092  0.85626  1.0000
  C   C1021     1.0  0.04375  0.53164  0.87332  1.0000
  C   C1022     1.0  0.03104  0.53212  0.88955  1.0000
  C   C1023     1.0  0.01216  0.53201  0.88898  1.0000
  H   H794      1.0  0.01296  0.53029  0.84256  1.0000
  H   H795      1.0  0.04684  0.53062  0.84356  1.0000
  H   H796      1.0  0.03579  0.53276  0.90276  1.0000
  H   H797      1.0  0.13010  0.51353  0.69624  1.0000
  C   C1024     1.0  0.12379  0.54994  0.74368  1.0000
  C   C1025     1.0  0.13256  0.53915  0.75829  1.0000
  C   C1026     1.0  0.13029  0.54514  0.77609  1.0000
  C   C1027     1.0  0.11984  0.56236  0.77913  1.0000
  C   C1028     1.0  0.11117  0.57321  0.76448  1.0000
  C   C1029     1.0  0.11287  0.56686  0.74691  1.0000
  H   H798      1.0  0.14124  0.52619  0.75576  1.0000
  H   H799      1.0  0.13717  0.53678  0.78725  1.0000
  H   H800      1.0  0.10318  0.58658  0.76672  1.0000
  H   H801      1.0  0.10632  0.57534  0.73564  1.0000
  C   C1030     1.0  0.02689  0.54685  0.70502  1.0000
  C   C1031     1.0  0.01513  0.53843  0.69651  1.0000
  H   H802      1.0  0.04103  0.54049  0.70543  1.0000
  C   C1032     1.0  0.17900  0.74040  0.66486  1.0000
  S   S130      1.0  0.23705  0.53768  0.89622  1.0000
  C   C1033     1.0  0.20726  0.77269  0.67131  1.0000
  C   C1034     1.0  0.21586  0.49658  0.93557  1.0000
  C   C1035     1.0  0.05547  0.63530  0.68530  1.0000
  H   H803      1.0  0.07696  0.49641  0.94814  1.0000
  H   H804      1.0  0.05212  0.52223  0.74558  1.0000
  C   C1036     1.0  0.01750  0.59575  0.76434  1.0000
  S   S131      1.0  0.06389  0.55818  0.67435  1.0000
  C   C1037     1.0  0.06745  0.57846  0.81002  1.0000
  H   H805      1.0  0.05688  0.57476  0.85734  1.0000
  P   P38       1.0  0.99635  0.62861  0.67622  1.0000
  C   C1038     1.0  0.07533  0.54512  0.77928  1.0000
  C   C1039     1.0  0.22299  0.77175  0.68023  1.0000
  H   H806      1.0  0.20963  0.56883  0.94862  1.0000
  H   H807      1.0  0.99368  0.64704  0.71012  1.0000
  H   H808      1.0  0.20271  0.58561  0.83415  1.0000
  C   C1040     1.0  0.00879  0.49910  0.80589  1.0000
  H   H809      1.0  0.02430  0.59508  0.67494  1.0000
  H   H810      1.0  0.16675  0.50276  0.89604  1.0000
  H   H811      1.0  0.08356  0.60547  0.72356  1.0000
  H   H812      1.0  0.23974  0.57328  0.87385  1.0000
  H   H813      1.0  0.02650  0.60580  0.75731  1.0000
  C   C1041     1.0  0.06004  0.59454  0.76676  1.0000
  H   H814      1.0  0.06745  0.58011  0.74225  1.0000
  C   C1042     1.0  0.21293  0.61955  0.92395  1.0000
  S   S132      1.0  0.03692  0.57587  0.71891  1.0000
  H   H815      1.0  0.02604  0.57235  0.84885  1.0000
  P   P39       1.0  0.22175  0.60827  0.88820  1.0000
  S   S133      1.0  0.23433  0.56608  0.98036  1.0000
  H   H816      1.0  0.02513  0.56534  0.66291  1.0000
  H   H817      1.0  0.02163  0.57332  0.81605  1.0000
  H   H818      1.0  0.01900  0.61292  0.70594  1.0000
  H   H819      1.0  0.08527  0.63442  0.73691  1.0000
  H   H820      1.0  0.17919  0.88592  0.66370  1.0000
  C   C1043     1.0  0.21019  0.58303  0.94167  1.0000
  C   C1044     1.0  0.05492  0.57564  0.84275  1.0000
  H   H821      1.0  0.16367  0.58343  0.88401  1.0000
  C   C1045     1.0  0.20727  0.59796  0.95225  1.0000
  H   H822      1.0  0.07916  0.58042  0.79940  1.0000
  C   C1046     1.0  0.00203  0.57137  0.71228  1.0000
  H   H823      1.0  0.08322  0.57943  0.83232  1.0000
  H   H824      1.0  0.14715  0.71085  0.66486  1.0000
  H   H825      1.0  0.03766  0.55225  0.75566  1.0000
  C   C1047     1.0  0.17692  0.58681  0.87671  1.0000
  S   S134      1.0  0.10765  0.54296  0.67381  1.0000
  C   C1048     1.0  0.23054  0.66010  0.86029  1.0000
  H   H826      1.0  0.21131  0.68552  0.85857  1.0000
  H   H827      1.0  0.01711  0.55447  0.79347  1.0000
  H   H828      1.0  0.21714  0.57457  0.91424  1.0000
  H   H829      1.0  0.12628  0.57895  0.66111  1.0000
  H   H830      1.0  0.08232  0.55136  0.78834  1.0000
  C   C1049     1.0  0.05845  0.52843  0.75527  1.0000
  H   H831      1.0  0.05424  0.61311  0.78814  1.0000
  C   C1050     1.0  0.20654  0.59768  0.87681  1.0000
  C   C1051     1.0  0.07807  0.62341  0.74518  1.0000
  C   C1052     1.0  0.21116  0.59515  0.85788  1.0000
  C   C1053     1.0  0.15529  0.72233  0.66021  1.0000
  C   C1054     1.0  0.20158  0.64360  0.88272  1.0000
  H   H832      1.0  0.05901  0.51102  0.92223  1.0000
  C   C1055     1.0  0.07712  0.60707  0.73765  1.0000
  C   C1056     1.0  0.01218  0.56690  0.78449  1.0000
  H   H833      1.0  0.21441  0.63370  0.91745  1.0000
  C   C1057     1.0  0.06978  0.57804  0.82875  1.0000
  C   C1058     1.0  0.19897  0.58794  0.84864  1.0000
  C   C1059     1.0  0.19892  0.66257  0.87542  1.0000
  H   H834      1.0  0.07054  0.63816  0.76926  1.0000
  C   C1060     1.0  0.06980  0.62550  0.76339  1.0000
  C   C1061     1.0  0.08375  0.52827  0.77302  1.0000
  C   C1062     1.0  0.06070  0.61119  0.77411  1.0000
  C   C1063     1.0  0.18187  0.58372  0.85808  1.0000
  C   C1064     1.0  0.14132  0.59377  0.67600  1.0000
  H   H835      1.0  0.99708  0.58430  0.71809  1.0000
  H   H836      1.0  0.01768  0.52159  0.78542  1.0000
  H   H837      1.0  0.22153  0.77383  0.69482  1.0000
  C   C1065     1.0  0.21341  0.67084  0.86427  1.0000
  Fe  Fe64      1.0  0.08089  0.53075  0.68331  1.0000
  C   C1066     1.0  0.03758  0.57418  0.83794  1.0000
  H   H838      1.0  0.09702  0.52193  0.77722  1.0000
  H   H839      1.0  0.20672  0.62767  0.95171  1.0000
  C   C1067     1.0  0.03522  0.57450  0.81919  1.0000
  H   H840      1.0  0.15734  0.61100  0.68698  1.0000
  C   C1068     1.0  0.23324  0.64112  0.86756  1.0000
  C   C1069     1.0  0.04424  0.49501  0.81658  1.0000
  H   H841      1.0  0.19016  0.63729  0.89116  1.0000
  C   C1070     1.0  0.06577  0.49671  0.92244  1.0000
  H   H842      1.0  0.13551  0.51248  0.91112  1.0000
  C   C1071     1.0  0.04803  0.64502  0.66949  1.0000
  P   P40       1.0  0.04805  0.57624  0.78060  1.0000
  C   C1072     1.0  0.05841  0.55385  0.77349  1.0000
  C   C1073     1.0  0.02151  0.51095  0.79675  1.0000
  C   C1074     1.0  0.02681  0.62226  0.69587  1.0000
  H   H843      1.0  0.01444  0.51794  0.66137  1.0000
  H   H844      1.0  0.17245  0.57790  0.85108  1.0000
  H   H845      1.0  0.08204  0.50714  0.75577  1.0000
  C   C1075     1.0  0.20932  0.50046  0.84419  1.0000
  C   C1076     1.0  0.04489  0.62387  0.69842  1.0000
  S   S135      1.0  0.06944  0.50378  0.68087  1.0000
  C   C1077     1.0  0.07532  0.51992  0.76102  1.0000
  Fe  Fe65      1.0  0.06400  0.56453  0.70344  1.0000
  H   H846      1.0  0.99416  0.61039  0.75141  1.0000
  C   C1078     1.0  0.20869  0.61620  0.94341  1.0000
  C   C1079     1.0  0.21442  0.58633  0.92224  1.0000
  S   S136      1.0  0.08924  0.57931  0.69641  1.0000
  H   H847      1.0  0.10123  0.64729  0.66877  1.0000
  C   C1080     1.0  0.21554  0.60463  0.91321  1.0000
  C   C1081     1.0  0.19717  0.90721  0.66093  1.0000
  H   H848      1.0  0.20431  0.59525  0.96736  1.0000
  H   H849      1.0  0.06953  0.63641  0.68726  1.0000
  C   C1082     1.0  0.05022  0.54550  0.76114  1.0000
  C   C1083     1.0  0.99785  0.60727  0.66570  1.0000
  H   H850      1.0  0.18923  0.74246  0.67329  1.0000
  H   H851      1.0  0.17104  0.71618  0.68352  1.0000
  C   C1084     1.0  0.05027  0.57631  0.80504  1.0000
  H   H852      1.0  0.04903  0.51815  0.79526  1.0000
  C   C1085     1.0  0.06807  0.59268  0.74834  1.0000
  H   H853      1.0  0.19369  0.77559  0.67912  1.0000
  H   H854      1.0  0.02310  0.49748  0.72246  1.0000
  H   H855      1.0  0.05076  0.61585  0.71040  1.0000
  C   C1086     1.0  0.99684  0.54646  0.69551  1.0000
  H   H856      1.0  0.00267  0.53255  0.90177  1.0000
  C   C1087     1.0  0.02412  0.58011  0.77645  1.0000
  H   H857      1.0  0.18556  0.67081  0.87831  1.0000
  C   C1088     1.0  0.03917  0.50897  0.80220  1.0000
  C   C1089     1.0  0.21886  0.63283  0.87911  1.0000
  C   C1090     1.0  0.02065  0.56371  0.71223  1.0000
  H   H858      1.0  0.08329  0.49868  0.86318  1.0000
  C   C1091     1.0  0.01916  0.63205  0.68013  1.0000
  C   C1092     1.0  0.01372  0.57629  0.66066  1.0000
  H   H859      1.0  0.02056  0.52602  0.69007  1.0000
  C   C1093     1.0  0.13513  0.58980  0.66000  1.0000
  C   C1094     1.0  0.02995  0.64334  0.66684  1.0000
  C   C1095     1.0  0.22179  0.49690  0.85742  1.0000
  H   H860      1.0  0.11416  0.49757  0.72480  1.0000
  H   H861      1.0  0.15400  0.49565  0.67580  1.0000
  H   H862      1.0  0.21625  0.51111  0.93692  1.0000
  H   H863      1.0  0.13741  0.58584  0.68949  1.0000
  C   C1096     1.0  0.16871  0.72538  0.67072  1.0000
  H   H864      1.0  0.05237  0.49513  0.85592  1.0000
  H   H865      1.0  0.13068  0.50249  0.78358  1.0000
  H   H866      1.0  0.18225  0.49693  0.83841  1.0000
  H   H867      1.0  0.18632  0.91749  0.66637  1.0000
  C   C1097     1.0  0.99911  0.59842  0.76085  1.0000
  C   C1098     1.0  0.15252  0.60795  0.67456  1.0000
  C   C1099     1.0  0.01309  0.59330  0.66759  1.0000
  H   H868      1.0  0.23538  0.50134  0.85386  1.0000
  H   H869      1.0  0.09759  0.61373  0.67000  1.0000
  C   C1100     1.0  0.14243  0.49856  0.91530  1.0000
  Fe  Fe66      1.0  0.09027  0.57109  0.66773  1.0000
  H   H870      1.0  0.99511  0.50046  0.80163  1.0000
  H   H871      1.0  0.19977  0.50348  0.91265  1.0000
  H   H872      1.0  0.21317  0.50775  0.83041  1.0000
  Fe  Fe67      1.0  0.45738  0.11149  0.08693  1.0000
  S   S137      1.0  0.44514  0.08449  0.09212  1.0000
  Fe  Fe68      1.0  0.42103  0.13496  0.09595  1.0000
  S   S138      1.0  0.40574  0.10979  0.10171  1.0000
  S   S139      1.0  0.40437  0.16366  0.09462  1.0000
  Fe  Fe69      1.0  0.42921  0.09591  0.11779  1.0000
  S   S140      1.0  0.42336  0.07587  0.14484  1.0000
  Fe  Fe70      1.0  0.42309  0.10070  0.07574  1.0000
  S   S141      1.0  0.41040  0.08936  0.05382  1.0000
  S   S142      1.0  0.44333  0.12191  0.11373  1.0000
  S   S143      1.0  0.43650  0.12689  0.06888  1.0000
  Fe  Fe71      1.0  0.44977  0.29055  0.12145  1.0000
  S   S144      1.0  0.45296  0.27053  0.10040  1.0000
  S   S145      1.0  0.47512  0.28812  0.13671  1.0000
  Fe  Fe72      1.0  0.40761  0.30048  0.11799  1.0000
  S   S146      1.0  0.40848  0.28034  0.09708  1.0000
  S   S147      1.0  0.38194  0.31949  0.12899  1.0000
  Fe  Fe73      1.0  0.42692  0.26045  0.11555  1.0000
  S   S148      1.0  0.43140  0.22956  0.12663  1.0000
  Fe  Fe74      1.0  0.43469  0.29227  0.08425  1.0000
  S   S149      1.0  0.44388  0.30202  0.05393  1.0000
  S   S150      1.0  0.42416  0.27970  0.13740  1.0000
  S   S151      1.0  0.43311  0.31338  0.10418  1.0000
  Fe  Fe75      1.0  0.43665  0.04261  0.25381  1.0000
  S   S152      1.0  0.43397  0.04700  0.28439  1.0000
  S   S153      1.0  0.43874  0.06735  0.23031  1.0000
  H   H873      1.0  0.32387  0.42091  0.06411  1.0000
  Fe  Fe76      1.0  0.41746  0.02251  0.29030  1.0000
  C   C1101     1.0  0.40144  0.13931  0.01354  1.0000
  Fe  Fe77      1.0  0.45883  0.02506  0.28600  1.0000
  H   H874      1.0  0.27787  0.34278  0.99628  1.0000
  S   S154      1.0  0.46278  0.02259  0.25552  1.0000
  H   H875      1.0  0.48125  0.32358  0.11433  1.0000
  Fe  Fe78      1.0  0.27695  0.35345  0.10866  1.0000
  C   C1102     1.0  0.42230  0.21062  0.00161  1.0000
  S   S155      1.0  0.30126  0.33056  0.10327  1.0000
  C   C1103     1.0  0.37780  0.30765  0.99709  1.0000
  H   H876      1.0  0.36056  0.03414  0.28668  1.0000
  H   H877      1.0  0.37345  0.40193  0.05758  1.0000
  Fe  Fe79      1.0  0.25345  0.38292  0.08471  1.0000
  H   H878      1.0  0.26342  0.45842  0.01856  1.0000
  C   C1104     1.0  0.46999  0.06067  0.01860  1.0000
  S   S156      1.0  0.28011  0.38290  0.09588  1.0000
  C   C1105     1.0  0.47572  0.16141  0.00594  1.0000
  C   C1106     1.0  0.47410  0.02345  0.20910  1.0000
  C   C1107     1.0  0.25110  0.30984  0.12917  1.0000
  H   H879      1.0  0.45914  0.20592  0.01994  1.0000
  C   C1108     1.0  0.47275  0.14712  0.02071  1.0000
  S   S157      1.0  0.41589  0.26070  0.99513  1.0000
  C   C1109     1.0  0.29885  0.42765  0.16290  1.0000
  H   H880      1.0  0.38293  0.10630  0.02680  1.0000
  H   H881      1.0  0.34896  0.02216  0.31881  1.0000
  C   C1110     1.0  0.40849  0.19989  0.01064  1.0000
  C   C1111     1.0  0.28023  0.46897  0.10021  1.0000
  C   C1112     1.0  0.28357  0.45194  0.09272  1.0000
  C   C1113     1.0  0.27931  0.43530  0.10388  1.0000
  P   P41       1.0  0.31626  0.33319  0.00317  1.0000
  H   H882      1.0  0.47003  0.07495  0.13791  1.0000
  C   C1114     1.0  0.48043  0.21455  0.16512  1.0000
  H   H883      1.0  0.28932  0.45165  0.07822  1.0000
  H   H884      1.0  0.28178  0.42229  0.09792  1.0000
  S   S158      1.0  0.41817  0.01969  0.25948  1.0000
  C   C1115     1.0  0.33391  0.04804  0.27997  1.0000
  H   H885      1.0  0.46126  0.19299  0.07643  1.0000
  H   H886      1.0  0.31877  0.42830  0.09752  1.0000
  P   P42       1.0  0.42411  0.15409  0.17992  1.0000
  H   H887      1.0  0.40161  0.38231  0.04510  1.0000
  C   C1116     1.0  0.35964  0.32234  0.12151  1.0000
  C   C1117     1.0  0.34526  0.33440  0.13014  1.0000
  C   C1118     1.0  0.32744  0.33740  0.12446  1.0000
  C   C1119     1.0  0.32371  0.32813  0.11023  1.0000
  C   C1120     1.0  0.33807  0.31607  0.10158  1.0000
  C   C1121     1.0  0.35597  0.31327  0.10708  1.0000
  H   H888      1.0  0.34791  0.34136  0.14139  1.0000
  H   H889      1.0  0.31648  0.34650  0.13140  1.0000
  H   H890      1.0  0.33533  0.30880  0.09058  1.0000
  H   H891      1.0  0.36687  0.30399  0.10027  1.0000
  C   C1122     1.0  0.43550  0.29092  0.03773  1.0000
  C   C1123     1.0  0.43921  0.29714  0.01858  1.0000
  C   C1124     1.0  0.48156  0.23943  0.13916  1.0000
  H   H892      1.0  0.40564  0.16282  0.05494  1.0000
  C   C1125     1.0  0.41928  0.26680  0.03040  1.0000
  C   C1126     1.0  0.42553  0.27572  0.04363  1.0000
  H   H893      1.0  0.44700  0.30886  0.01397  1.0000
  H   H894      1.0  0.47852  0.11819  0.03092  1.0000
  H   H895      1.0  0.41163  0.25504  0.03501  1.0000
  H   H896      1.0  0.42275  0.27073  0.05836  1.0000
  C   C1127     1.0  0.42854  0.07351  0.16832  1.0000
  C   C1128     1.0  0.42190  0.05893  0.18136  1.0000
  C   C1129     1.0  0.42513  0.05666  0.20024  1.0000
  C   C1130     1.0  0.43490  0.06911  0.20644  1.0000
  C   C1131     1.0  0.44189  0.08348  0.19333  1.0000
  C   C1132     1.0  0.43885  0.08561  0.17438  1.0000
  H   H897      1.0  0.41405  0.04937  0.17684  1.0000
  H   H898      1.0  0.41978  0.04545  0.21006  1.0000
  H   H899      1.0  0.44990  0.09290  0.19781  1.0000
  H   H900      1.0  0.44443  0.09661  0.16450  1.0000
  C   C1133     1.0  0.42074  0.08929  0.03024  1.0000
  C   C1134     1.0  0.43553  0.09929  0.02268  1.0000
  H   H901      1.0  0.36027  0.20142  0.03475  1.0000
  H   H902      1.0  0.35387  0.37645  0.15776  1.0000
  H   H903      1.0  0.37126  0.26527  0.01108  1.0000
  C   C1135     1.0  0.41364  0.07904  0.01871  1.0000
  H   H904      1.0  0.44138  0.10696  0.03148  1.0000
  H   H905      1.0  0.29597  0.38125  0.04493  1.0000
  C   C1136     1.0  0.36887  0.11242  0.03086  1.0000
  H   H906      1.0  0.40239  0.07105  0.02446  1.0000
  C   C1137     1.0  0.42440  0.21177  0.11648  1.0000
  C   C1138     1.0  0.43449  0.19378  0.11840  1.0000
  C   C1139     1.0  0.42871  0.17893  0.11142  1.0000
  C   C1140     1.0  0.41263  0.18199  0.10277  1.0000
  C   C1141     1.0  0.40248  0.19994  0.10098  1.0000
  C   C1142     1.0  0.40847  0.21489  0.10760  1.0000
  H   H907      1.0  0.44681  0.19129  0.12533  1.0000
  H   H908      1.0  0.43650  0.16510  0.11301  1.0000
  H   H909      1.0  0.38986  0.20218  0.09464  1.0000
  H   H910      1.0  0.40049  0.22866  0.10634  1.0000
  H   H911      1.0  0.46344  0.46798  0.10683  1.0000
  H   H912      1.0  0.28795  0.35755  0.02447  1.0000
  H   H913      1.0  0.39043  0.18016  0.00700  1.0000
  H   H914      1.0  0.25988  0.43637  0.99713  1.0000
  C   C1143     1.0  0.44826  0.15081  0.17022  1.0000
  H   H915      1.0  0.31780  0.13217  0.04532  1.0000
  H   H916      1.0  0.45679  0.34686  0.09210  1.0000
  C   C1144     1.0  0.33215  0.12685  0.04136  1.0000
  C   C1145     1.0  0.47024  0.34955  0.08481  1.0000
  C   C1146     1.0  0.29150  0.34459  0.03340  1.0000
  H   H917      1.0  0.31499  0.42866  0.13579  1.0000
  H   H918      1.0  0.27846  0.32331  0.07712  1.0000
  C   C1147     1.0  0.35376  0.17475  0.04894  1.0000
  C   C1148     1.0  0.36053  0.15736  0.05805  1.0000
  C   C1149     1.0  0.37932  0.15319  0.05991  1.0000
  C   C1150     1.0  0.39134  0.16645  0.05284  1.0000
  C   C1151     1.0  0.38467  0.18416  0.04404  1.0000
  C   C1152     1.0  0.36579  0.18804  0.04181  1.0000
  P   P43       1.0  0.39988  0.20174  0.03487  1.0000
  C   C1153     1.0  0.38603  0.22423  0.03705  1.0000
  C   C1154     1.0  0.41988  0.19949  0.04737  1.0000
  C   C1155     1.0  0.42284  0.21390  0.05707  1.0000
  C   C1156     1.0  0.43794  0.21171  0.06715  1.0000
  H   H919      1.0  0.42428  0.14388  0.02686  1.0000
  H   H920      1.0  0.29571  0.41357  0.16290  1.0000
  H   H921      1.0  0.44831  0.23965  0.01142  1.0000
  C   C1157     1.0  0.37280  0.25493  0.02331  1.0000
  C   C1158     1.0  0.48662  0.06997  0.16062  1.0000
  C   C1159     1.0  0.36506  0.25929  0.04106  1.0000
  C   C1160     1.0  0.36734  0.24599  0.05677  1.0000
  C   C1161     1.0  0.37762  0.22846  0.05476  1.0000
  H   H922      1.0  0.28343  0.43062  0.18995  1.0000
  S   S159      1.0  0.48725  0.11054  0.07521  1.0000
  C   C1162     1.0  0.48705  0.33097  0.99514  1.0000
  H   H923      1.0  0.44821  0.13154  0.20625  1.0000
  C   C1163     1.0  0.27203  0.43555  0.12268  1.0000
  H   H924      1.0  0.35126  0.14714  0.06387  1.0000
  H   H925      1.0  0.38461  0.13976  0.06716  1.0000
  H   H926      1.0  0.46388  0.15005  0.03340  1.0000
  C   C1164     1.0  0.31618  0.35778  0.99461  1.0000
  H   H927      1.0  0.41349  0.22679  0.05726  1.0000
  H   H928      1.0  0.43968  0.22265  0.07510  1.0000
  C   C1165     1.0  0.30964  0.43624  0.14757  1.0000
  C   C1166     1.0  0.41794  0.17793  0.18519  1.0000
  H   H929      1.0  0.44561  0.14713  0.99713  1.0000
  C   C1167     1.0  0.48290  0.21110  0.03155  1.0000
  C   C1168     1.0  0.35003  0.31880  0.01669  1.0000
  H   H930      1.0  0.35739  0.27300  0.04263  1.0000
  H   H931      1.0  0.36135  0.24934  0.07056  1.0000
  H   H932      1.0  0.37935  0.21830  0.06704  1.0000
  H   H933      1.0  0.39024  0.14029  0.19935  1.0000
  H   H934      1.0  0.39238  0.13813  0.02659  1.0000
  H   H935      1.0  0.30311  0.49003  0.12312  1.0000
  H   H936      1.0  0.25981  0.40673  0.01559  1.0000
  H   H937      1.0  0.35082  0.47394  0.09121  1.0000
  C   C1169     1.0  0.34137  0.11312  0.05353  1.0000
  C   C1170     1.0  0.38852  0.16026  0.14041  1.0000
  C   C1171     1.0  0.34592  0.03708  0.29163  1.0000
  C   C1172     1.0  0.33922  0.03014  0.30989  1.0000
  S   S160      1.0  0.25349  0.39820  0.05534  1.0000
  C   C1173     1.0  0.45265  0.46926  0.13577  1.0000
  S   S161      1.0  0.25078  0.35280  0.09602  1.0000
  C   C1174     1.0  0.34149  0.47750  0.17860  1.0000
  C   C1175     1.0  0.44624  0.48093  0.14958  1.0000
  H   H938      1.0  0.25495  0.00934  0.32206  1.0000
  C   C1176     1.0  0.34137  0.13354  0.02401  1.0000
  C   C1177     1.0  0.48094  0.34352  0.00813  1.0000
  H   H939      1.0  0.36548  0.38535  0.12457  1.0000
  C   C1178     1.0  0.48580  0.14576  0.15528  1.0000
  C   C1179     1.0  0.43307  0.18341  0.04701  1.0000
  C   C1180     1.0  0.36862  0.31086  0.01473  1.0000
  C   C1181     1.0  0.38721  0.14171  0.13844  1.0000
  H   H940      1.0  0.39615  0.11257  0.14746  1.0000
  H   H941      1.0  0.37890  0.13875  0.12841  1.0000
  C   C1182     1.0  0.24834  0.38599  0.00411  1.0000
  H   H942      1.0  0.47443  0.25028  0.12996  1.0000
  C   C1183     1.0  0.42135  0.07854  0.99993  1.0000
  C   C1184     1.0  0.44783  0.18101  0.05762  1.0000
  H   H943      1.0  0.47701  0.06150  0.16933  1.0000
  C   C1185     1.0  0.32365  0.48750  0.18045  1.0000
  H   H944      1.0  0.29408  0.04932  0.31020  1.0000
  H   H945      1.0  0.40448  0.22942  0.19590  1.0000
  C   C1186     1.0  0.43298  0.28819  0.00535  1.0000
  C   C1187     1.0  0.25301  0.39427  0.01872  1.0000
  H   H946      1.0  0.48160  0.20471  0.12444  1.0000
  H   H947      1.0  0.47443  0.14163  0.09638  1.0000
  C   C1188     1.0  0.42302  0.27298  0.01125  1.0000
  Fe  Fe80      1.0  0.26250  0.39174  0.12146  1.0000
  C   C1189     1.0  0.40239  0.20028  0.20596  1.0000
  H   H948      1.0  0.36657  0.46849  0.19118  1.0000
  H   H949      1.0  0.45720  0.16804  0.05844  1.0000
  C   C1190     1.0  0.32129  0.36982  0.00577  1.0000
  C   C1191     1.0  0.35998  0.12668  0.01884  1.0000
  C   C1192     1.0  0.48927  0.13850  0.09591  1.0000
  H   H950      1.0  0.34664  0.47075  0.16623  1.0000
  S   S162      1.0  0.26123  0.36225  0.13549  1.0000
  H   H951      1.0  0.26936  0.48379  0.16806  1.0000
  C   C1193     1.0  0.45838  0.47705  0.11750  1.0000
  C   C1194     1.0  0.41950  0.14295  0.01372  1.0000
  C   C1195     1.0  0.47978  0.15780  0.16883  1.0000
  C   C1196     1.0  0.48110  0.12879  0.01916  1.0000
  H   H952      1.0  0.48921  0.06085  0.22982  1.0000
  H   H953      1.0  0.32550  0.36438  0.01938  1.0000
  H   H954      1.0  0.30961  0.39314  0.11105  1.0000
  C   C1197     1.0  0.41908  0.21135  0.17624  1.0000
  C   C1198     1.0  0.28570  0.32516  0.06306  1.0000
  C   C1199     1.0  0.30500  0.33043  0.02694  1.0000
  C   C1200     1.0  0.30845  0.04540  0.30500  1.0000
  C   C1201     1.0  0.48670  0.00722  0.21164  1.0000
  C   C1202     1.0  0.31293  0.38429  0.13983  1.0000
  H   H955      1.0  0.45877  0.05099  0.04680  1.0000
  C   C1203     1.0  0.47827  0.07045  0.04621  1.0000
  H   H956      1.0  0.47534  0.32331  0.07372  1.0000
  C   C1204     1.0  0.47133  0.22835  0.15297  1.0000
  H   H957      1.0  0.48360  0.35120  0.03463  1.0000
  C   C1205     1.0  0.45454  0.13847  0.15687  1.0000
  H   H958      1.0  0.40101  0.17871  0.15347  1.0000
  C   C1206     1.0  0.32072  0.38902  0.99953  1.0000
  H   H959      1.0  0.48440  0.05798  0.27688  1.0000
  H   H960      1.0  0.29821  0.38416  0.14411  1.0000
  H   H961      1.0  0.32025  0.37565  0.16763  1.0000
  C   C1207     1.0  0.35080  0.38492  0.12864  1.0000
  C   C1208     1.0  0.46820  0.05975  0.03806  1.0000
  H   H962      1.0  0.33917  0.17799  0.04752  1.0000
  C   C1209     1.0  0.38308  0.23741  0.02127  1.0000
  C   C1210     1.0  0.47694  0.21863  0.09704  1.0000
  H   H963      1.0  0.38418  0.11679  0.22689  1.0000
  H   H964      1.0  0.42344  0.22286  0.16612  1.0000
  H   H965      1.0  0.47052  0.05322  0.20166  1.0000
  H   H966      1.0  0.44192  0.47490  0.16379  1.0000
  C   C1211     1.0  0.46071  0.23540  0.01807  1.0000
  H   H967      1.0  0.40996  0.10058  0.24403  1.0000
  C   C1212     1.0  0.34424  0.38009  0.14750  1.0000
  C   C1213     1.0  0.30537  0.46484  0.16212  1.0000
  H   H968      1.0  0.45937  0.02276  0.21262  1.0000
  H   H969      1.0  0.24176  0.28856  0.08627  1.0000
  C   C1214     1.0  0.29523  0.45578  0.17782  1.0000
  C   C1215     1.0  0.43412  0.12882  0.21080  1.0000
  C   C1216     1.0  0.26236  0.29354  0.10230  1.0000
  H   H970      1.0  0.46896  0.37632  0.09447  1.0000
  H   H971      1.0  0.45327  0.45418  0.13926  1.0000
  H   H972      1.0  0.48959  0.16533  0.17335  1.0000
  H   H973      1.0  0.40233  0.17061  0.21231  1.0000
  H   H974      1.0  0.32047  0.46193  0.09742  1.0000
  H   H975      1.0  0.39399  0.20318  0.21896  1.0000
  H   H976      1.0  0.27989  0.30105  0.12049  1.0000
  C   C1217     1.0  0.31520  0.05228  0.28668  1.0000
  C   C1218     1.0  0.24803  0.44584  0.00210  1.0000
  C   C1219     1.0  0.26877  0.45256  0.13020  1.0000
  H   H977      1.0  0.25379  0.31641  0.14073  1.0000
  H   H978      1.0  0.37603  0.30734  0.02685  1.0000
  H   H979      1.0  0.41189  0.35139  0.06256  1.0000
  H   H980      1.0  0.37818  0.41845  0.08502  1.0000
  C   C1220     1.0  0.40115  0.18850  0.00045  1.0000
  C   C1221     1.0  0.46111  0.16022  0.17639  1.0000
  C   C1222     1.0  0.31304  0.45472  0.14721  1.0000
  C   C1223     1.0  0.48847  0.07560  0.22442  1.0000
  S   S163      1.0  0.26707  0.41479  0.13703  1.0000
  H   H981      1.0  0.27383  0.28734  0.09318  1.0000
  C   C1224     1.0  0.46698  0.21643  0.02269  1.0000
  H   H982      1.0  0.37964  0.45208  0.08507  1.0000
  C   C1225     1.0  0.33848  0.38887  0.11516  1.0000
  C   C1226     1.0  0.32533  0.37962  0.15307  1.0000
  P   P44       1.0  0.34669  0.39635  0.09103  1.0000
  C   C1227     1.0  0.36812  0.38268  0.08283  1.0000
  C   C1228     1.0  0.33057  0.39196  0.07623  1.0000
  C   C1229     1.0  0.32745  0.37342  0.07598  1.0000
  H   H983      1.0  0.44161  0.10811  0.23385  1.0000
  C   C1230     1.0  0.30602  0.38412  0.05323  1.0000
  C   C1231     1.0  0.30914  0.40259  0.05330  1.0000
  C   C1232     1.0  0.32154  0.40652  0.06456  1.0000
  C   C1233     1.0  0.37812  0.38875  0.06561  1.0000
  C   C1234     1.0  0.39397  0.37762  0.05842  1.0000
  C   C1235     1.0  0.39976  0.36019  0.06819  1.0000
  C   C1236     1.0  0.37381  0.36496  0.09230  1.0000
  C   C1237     1.0  0.34825  0.42101  0.09029  1.0000
  C   C1238     1.0  0.33211  0.43338  0.09442  1.0000
  C   C1239     1.0  0.33305  0.45241  0.09458  1.0000
  C   C1240     1.0  0.35016  0.45917  0.09107  1.0000
  C   C1241     1.0  0.36636  0.44686  0.08752  1.0000
  C   C1242     1.0  0.36545  0.42781  0.08727  1.0000
  C   C1243     1.0  0.35279  0.47619  0.19270  1.0000
  H   H984      1.0  0.33419  0.36196  0.08492  1.0000
  H   H985      1.0  0.30161  0.41390  0.04487  1.0000
  H   H986      1.0  0.47785  0.12671  0.13887  1.0000
  C   C1244     1.0  0.39700  0.12701  0.14904  1.0000
  S   S164      1.0  0.44222  0.00101  0.29374  1.0000
  C   C1245     1.0  0.31534  0.36951  0.06442  1.0000
  H   H987      1.0  0.38119  0.17163  0.13188  1.0000
  C   C1246     1.0  0.39805  0.12037  0.22254  1.0000
  C   C1247     1.0  0.32034  0.03386  0.31658  1.0000
  C   C1248     1.0  0.31946  0.38910  0.12099  1.0000
  H   H988      1.0  0.31267  0.35519  0.06479  1.0000
  C   C1249     1.0  0.38963  0.35387  0.08509  1.0000
  C   C1250     1.0  0.40159  0.13358  0.20689  1.0000
  C   C1251     1.0  0.48253  0.07768  0.14271  1.0000
  H   H989      1.0  0.30138  0.29773  0.06562  1.0000
  H   H990      1.0  0.35831  0.16892  0.01120  1.0000
  H   H991      1.0  0.47368  0.11806  0.23937  1.0000
  H   H992      1.0  0.36587  0.35936  0.10503  1.0000
  H   H993      1.0  0.38898  0.23448  0.00736  1.0000
  H   H994      1.0  0.30598  0.06113  0.27775  1.0000
  C   C1252     1.0  0.29863  0.31076  0.05655  1.0000
  H   H995      1.0  0.28971  0.46308  0.18975  1.0000
  H   H996      1.0  0.33427  0.10790  0.06698  1.0000
  H   H997      1.0  0.48687  0.19641  0.03595  1.0000
  H   H998      1.0  0.31761  0.30177  0.03336  1.0000
  C   C1253     1.0  0.24999  0.45844  0.01417  1.0000
  C   C1254     1.0  0.28213  0.34203  0.05150  1.0000
  C   C1255     1.0  0.30803  0.31325  0.03842  1.0000
  C   C1256     1.0  0.48053  0.08877  0.23638  1.0000
  H   H999      1.0  0.27214  0.35318  0.05663  1.0000
  S   S165      1.0  0.39213  0.01784  0.31208  1.0000
  H   H1000     1.0  0.39385  0.34017  0.09250  1.0000
  H   H1001     1.0  0.48587  0.12878  0.20648  1.0000
  C   C1257     1.0  0.45017  0.19510  0.06780  1.0000
  H   H1002     1.0  0.46252  0.22334  0.10124  1.0000
  C   C1258     1.0  0.40832  0.21506  0.19302  1.0000
  C   C1259     1.0  0.48460  0.22262  0.07845  1.0000
  H   H1003     1.0  0.46497  0.26372  0.01940  1.0000
  Fe  Fe81      1.0  0.44442  0.99996  0.26300  1.0000
  H   H1004     1.0  0.47686  0.06987  0.06130  1.0000
  C   C1260     1.0  0.47974  0.10792  0.22999  1.0000
  C   C1261     1.0  0.40984  0.14952  0.16336  1.0000
  C   C1262     1.0  0.26580  0.30130  0.11768  1.0000
  H   H1005     1.0  0.44509  0.13082  0.15203  1.0000
  C   C1263     1.0  0.43047  0.11568  0.22652  1.0000
  C   C1264     1.0  0.47320  0.13603  0.14940  1.0000
  C   C1265     1.0  0.35974  0.10592  0.04826  1.0000
  C   C1266     1.0  0.40812  0.13089  0.16157  1.0000
  H   H1006     1.0  0.36698  0.09514  0.05754  1.0000
  H   H1007     1.0  0.24399  0.43020  0.08340  1.0000
  C   C1267     1.0  0.29179  0.43735  0.17809  1.0000
  C   C1268     1.0  0.41970  0.13776  0.20078  1.0000
  C   C1269     1.0  0.39993  0.16421  0.15265  1.0000
  H   H1008     1.0  0.32436  0.39829  0.00835  1.0000
  H   H1009     1.0  0.47994  0.26564  0.06538  1.0000
  C   C1270     1.0  0.48656  0.11394  0.21149  1.0000
  H   H1010     1.0  0.47569  0.23036  0.06863  1.0000
  H   H1011     1.0  0.47243  0.20615  0.17598  1.0000
  H   H1012     1.0  0.33920  0.05348  0.26585  1.0000
  H   H1013     1.0  0.24523  0.44662  0.05151  1.0000
  H   H1014     1.0  0.32160  0.46090  0.13526  1.0000
  H   H1015     1.0  0.41544  0.11930  0.16979  1.0000
  C   C1271     1.0  0.42393  0.19288  0.17232  1.0000
  C   C1272     1.0  0.27265  0.46928  0.11893  1.0000
  H   H1016     1.0  0.42747  0.22006  0.00910  1.0000
  C   C1273     1.0  0.41251  0.11135  0.23229  1.0000
  H   H1017     1.0  0.34339  0.32167  0.03040  1.0000
  H   H1018     1.0  0.43171  0.17251  0.03891  1.0000
  C   C1274     1.0  0.40715  0.18178  0.20209  1.0000
  H   H1019     1.0  0.26997  0.48232  0.12483  1.0000
  H   H1020     1.0  0.33389  0.14380  0.01456  1.0000
  H   H1021     1.0  0.45636  0.23064  0.15428  1.0000
  H   H1022     1.0  0.26312  0.45282  0.14474  1.0000
  H   H1023     1.0  0.45667  0.16954  0.18693  1.0000
  H   H1024     1.0  0.43209  0.19032  0.15911  1.0000
  C   C1275     1.0  0.47024  0.24903  0.02238  1.0000
  C   C1276     1.0  0.24132  0.45479  0.06303  1.0000
  C   C1277     1.0  0.48045  0.04073  0.20276  1.0000
  H   H1025     1.0  0.46189  0.05268  0.01222  1.0000
  C   C1278     1.0  0.34036  0.32318  0.00100  1.0000
  H   H1026     1.0  0.47493  0.08404  0.25062  1.0000
  H   H1027     1.0  0.46912  0.17558  0.00708  1.0000
  C   C1279     1.0  0.47709  0.36615  0.08611  1.0000
  C   C1280     1.0  0.44290  0.09921  0.00367  1.0000
  C   C1281     1.0  0.48643  0.24381  0.03066  1.0000
  H   H1028     1.0  0.28746  0.01565  0.31615  1.0000
  C   C1282     1.0  0.34629  0.48473  0.20879  1.0000
  C   C1283     1.0  0.48148  0.07264  0.00726  1.0000
  S   S166      1.0  0.28660  0.48939  0.08610  1.0000
  C   C1284     1.0  0.48980  0.08237  0.03492  1.0000
  C   C1285     1.0  0.48091  0.33612  0.07450  1.0000
  C   C1286     1.0  0.24874  0.38660  0.03742  1.0000
  H   H1029     1.0  0.47020  0.35505  0.00523  1.0000
  C   C1287     1.0  0.43152  0.14472  0.99706  1.0000
  H   H1030     1.0  0.48656  0.29547  0.04706  1.0000
  S   S167      1.0  0.48344  0.02298  0.30170  1.0000
  C   C1288     1.0  0.48775  0.20830  0.11015  1.0000
  C   C1289     1.0  0.24419  0.29418  0.09850  1.0000
  H   H1031     1.0  0.45454  0.10667  0.99811  1.0000
  H   H1032     1.0  0.35504  0.48370  0.21972  1.0000
  C   C1290     1.0  0.48862  0.34120  0.02489  1.0000
  H   H1033     1.0  0.34632  0.20055  0.99675  1.0000
  C   C1291     1.0  0.39535  0.13718  0.99669  1.0000
  P   P45       1.0  0.30931  0.48881  0.16212  1.0000
  C   C1292     1.0  0.35653  0.17120  0.99655  1.0000
  H   H1034     1.0  0.26010  0.49429  0.00006  1.0000
  H   H1035     1.0  0.39219  0.30147  0.99556  1.0000
  P   P46       1.0  0.37168  0.13390  0.99594  1.0000
  C   C1293     1.0  0.24054  0.44531  0.08123  1.0000
  C   C1294     1.0  0.32845  0.49451  0.21082  1.0000
  Fe  Fe82      1.0  0.35887  0.04129  0.62869  1.0000
  S   S168      1.0  0.33387  0.02909  0.64391  1.0000
  S   S169      1.0  0.38008  0.05241  0.64281  1.0000
  Fe  Fe83      1.0  0.34875  0.03574  0.58985  1.0000
  S   S170      1.0  0.32336  0.02266  0.60270  1.0000
  S   S171      1.0  0.35547  0.04471  0.55853  1.0000
  Fe  Fe84      1.0  0.31835  0.04545  0.62109  1.0000
  S   S172      1.0  0.29119  0.06439  0.62386  1.0000
  H   H1036     1.0  0.26328  0.10127  0.41724  1.0000
  S   S173      1.0  0.34279  0.05953  0.60722  1.0000
  S   S174      1.0  0.36723  0.01863  0.61000  1.0000
  Fe  Fe85      1.0  0.35287  0.03028  0.41756  1.0000
  S   S175      1.0  0.32502  0.03125  0.40815  1.0000
  S   S176      1.0  0.37804  0.03681  0.39648  1.0000
  Fe  Fe86      1.0  0.33821  0.01915  0.45948  1.0000
  S   S177      1.0  0.30969  0.01907  0.45232  1.0000
  S   S178      1.0  0.34086  0.00649  0.48978  1.0000
  C   C1295     1.0  0.25898  0.04523  0.57700  1.0000
  Fe  Fe87      1.0  0.31389  0.04555  0.43341  1.0000
  S   S179      1.0  0.28929  0.06805  0.43515  1.0000
  P   P47       1.0  0.31203  0.02574  0.34054  1.0000
  S   S180      1.0  0.34191  0.04688  0.44179  1.0000
  Fe  Fe88      1.0  0.34115  0.00749  0.62418  1.0000
  H   H1037     1.0  0.32319  0.08379  0.38066  1.0000
  H   H1038     1.0  0.34490  0.03765  0.35017  1.0000
  C   C1296     1.0  0.26993  0.06183  0.42716  1.0000
  C   C1297     1.0  0.27172  0.05542  0.40977  1.0000
  C   C1298     1.0  0.39963  0.04136  0.57461  1.0000
  H   H1039     1.0  0.27657  0.13117  0.41262  1.0000
  H   H1040     1.0  0.25280  0.01664  0.37976  1.0000
  H   H1041     1.0  0.28522  0.05317  0.40178  1.0000
  H   H1042     1.0  0.34331  0.00856  0.55637  1.0000
  C   C1299     1.0  0.27072  0.05446  0.62438  1.0000
  C   C1300     1.0  0.25498  0.06594  0.61866  1.0000
  C   C1301     1.0  0.25271  0.02839  0.63273  1.0000
  C   C1302     1.0  0.26964  0.03557  0.63118  1.0000
  H   H1043     1.0  0.25575  0.08058  0.61350  1.0000
  C   C1303     1.0  0.24504  0.04327  0.56667  1.0000
  H   H1044     1.0  0.28169  0.02669  0.63574  1.0000
  C   C1304     1.0  0.35006  0.03428  0.53983  1.0000
  C   C1305     1.0  0.34468  0.01633  0.54249  1.0000
  C   C1306     1.0  0.34148  0.00823  0.52705  1.0000
  C   C1307     1.0  0.34337  0.01806  0.50886  1.0000
  C   C1308     1.0  0.34821  0.03622  0.50628  1.0000
  C   C1309     1.0  0.35171  0.04419  0.52168  1.0000
  C   C1310     1.0  0.40067  0.02750  0.56296  1.0000
  C   C1311     1.0  0.41796  0.01981  0.59540  1.0000
  H   H1045     1.0  0.34974  0.04392  0.49236  1.0000
  C   C1312     1.0  0.29233  0.03347  0.50258  1.0000
  C   C1313     1.0  0.37288  0.01769  0.36760  1.0000
  C   C1314     1.0  0.38272  0.03033  0.37342  1.0000
  C   C1315     1.0  0.39658  0.03818  0.36055  1.0000
  C   C1316     1.0  0.40009  0.03402  0.34192  1.0000
  H   H1046     1.0  0.36238  0.01137  0.37741  1.0000
  H   H1047     1.0  0.40443  0.04783  0.36491  1.0000
  C   C1317     1.0  0.27039  0.02944  0.58395  1.0000
  H   H1048     1.0  0.41049  0.04054  0.33210  1.0000
  H   H1049     1.0  0.27521  0.09510  0.54198  1.0000
  H   H1050     1.0  0.33380  0.08148  0.64327  1.0000
  C   C1318     1.0  0.27074  0.01149  0.50228  1.0000
  H   H1051     1.0  0.24691  0.07775  0.53652  1.0000
  H   H1052     1.0  0.29149  0.08094  0.37467  1.0000
  H   H1053     1.0  0.25591  0.16119  0.41515  1.0000
  H   H1054     1.0  0.29265  0.06963  0.47318  1.0000
  C   C1319     1.0  0.28843  0.02068  0.34452  1.0000
  H   H1055     1.0  0.25125  0.02104  0.46123  1.0000
  C   C1320     1.0  0.25170  0.01283  0.35124  1.0000
  H   H1056     1.0  0.25093  0.06952  0.45105  1.0000
  H   H1057     1.0  0.32413  0.01000  0.37683  1.0000
  C   C1321     1.0  0.40822  0.03752  0.59085  1.0000
  H   H1058     1.0  0.39345  0.01504  0.64347  1.0000
  C   C1322     1.0  0.24231  0.02549  0.56337  1.0000
  C   C1323     1.0  0.38973  0.02195  0.33590  1.0000
  C   C1324     1.0  0.26234  0.08654  0.50983  1.0000
  H   H1059     1.0  0.31509  0.03832  0.56607  1.0000
  H   H1060     1.0  0.31681  0.08308  0.51925  1.0000
  C   C1325     1.0  0.25010  0.14807  0.41759  1.0000
  C   C1326     1.0  0.25238  0.06452  0.43760  1.0000
  C   C1327     1.0  0.27779  0.04655  0.50931  1.0000
  C   C1328     1.0  0.26758  0.01163  0.58092  1.0000
  H   H1061     1.0  0.26076  0.05897  0.57991  1.0000
  C   C1329     1.0  0.28880  0.01599  0.49922  1.0000
  H   H1062     1.0  0.39153  0.05487  0.57136  1.0000
  H   H1063     1.0  0.35585  0.05809  0.51950  1.0000
  H   H1064     1.0  0.39320  0.03062  0.55093  1.0000
  C   C1330     1.0  0.26169  0.09893  0.49309  1.0000
  C   C1331     1.0  0.25332  0.00954  0.57086  1.0000
  C   C1332     1.0  0.28333  0.08234  0.54737  1.0000
  C   C1333     1.0  0.26175  0.13120  0.41607  1.0000
  H   H1065     1.0  0.26805  0.99812  0.49917  1.0000
  H   H1066     1.0  0.34992  0.06210  0.36822  1.0000
  C   C1334     1.0  0.28804  0.06718  0.53692  1.0000
  H   H1067     1.0  0.27618  0.99946  0.58689  1.0000
  H   H1068     1.0  0.30013  0.00603  0.49398  1.0000
  H   H1069     1.0  0.34339  0.09267  0.49744  1.0000
  H   H1070     1.0  0.42143  0.02248  0.52618  1.0000
  C   C1335     1.0  0.30594  0.05046  0.56106  1.0000
  S   S181      1.0  0.35183  0.00273  0.43616  1.0000
  C   C1336     1.0  0.26056  0.01146  0.43448  1.0000
  H   H1071     1.0  0.30638  0.06487  0.58470  1.0000
  C   C1337     1.0  0.31697  0.08238  0.50451  1.0000
  H   H1072     1.0  0.24550  0.12101  0.47717  1.0000
  C   C1338     1.0  0.41186  0.01584  0.52022  1.0000
  Fe  Fe89      1.0  0.32339  0.00479  0.42799  1.0000
  C   C1339     1.0  0.39468  0.01487  0.49455  1.0000
  H   H1073     1.0  0.28614  0.09303  0.57280  1.0000
  C   C1340     1.0  0.31522  0.04430  0.35324  1.0000
  C   C1341     1.0  0.27873  0.02003  0.36264  1.0000
  H   H1074     1.0  0.34449  0.09178  0.46335  1.0000
  H   H1075     1.0  0.30396  0.03967  0.53584  1.0000
  C   C1342     1.0  0.30250  0.07581  0.49780  1.0000
  C   C1343     1.0  0.29945  0.05125  0.54389  1.0000
  C   C1344     1.0  0.33280  0.08740  0.47297  1.0000
  C   C1345     1.0  0.31838  0.08109  0.46622  1.0000
  C   C1346     1.0  0.40709  0.02316  0.50244  1.0000
  C   C1347     1.0  0.25624  0.02425  0.50931  1.0000
  H   H1076     1.0  0.30643  0.03672  0.49987  1.0000
  H   H1077     1.0  0.42424  0.01675  0.60823  1.0000
  H   H1078     1.0  0.40685  0.04809  0.60019  1.0000
  C   C1348     1.0  0.30353  0.07488  0.47860  1.0000
  H   H1079     1.0  0.37393  0.00131  0.57479  1.0000
  H   H1080     1.0  0.25198  0.08440  0.65779  1.0000
  C   C1349     1.0  0.25975  0.04163  0.51297  1.0000
  P   P48       1.0  0.28238  0.06927  0.51340  1.0000
  C   C1350     1.0  0.30023  0.05711  0.35959  1.0000
  C   C1351     1.0  0.30111  0.06548  0.57148  1.0000
  C   C1352     1.0  0.37633  0.01358  0.34895  1.0000
  H   H1081     1.0  0.25737  0.04822  0.38867  1.0000
  C   C1353     1.0  0.33214  0.08795  0.49214  1.0000
  C   C1354     1.0  0.25597  0.05247  0.40245  1.0000
  H   H1082     1.0  0.31872  0.08088  0.45134  1.0000
  H   H1083     1.0  0.25174  0.01395  0.63852  1.0000
  C   C1355     1.0  0.28972  0.08138  0.56469  1.0000
  C   C1356     1.0  0.30313  0.07136  0.36938  1.0000
  C   C1357     1.0  0.32098  0.07303  0.37271  1.0000
  C   C1358     1.0  0.33601  0.06080  0.36578  1.0000
  C   C1359     1.0  0.33313  0.04669  0.35587  1.0000
  H   H1084     1.0  0.27325  0.09882  0.48212  1.0000
  H   H1085     1.0  0.28110  0.03101  0.59209  1.0000
  H   H1086     1.0  0.28632  0.05624  0.35702  1.0000
  H   H1087     1.0  0.27174  0.02001  0.43121  1.0000
  H   H1088     1.0  0.28530  0.02248  0.37428  1.0000
  C   C1360     1.0  0.38715  0.99922  0.50438  1.0000
  C   C1361     1.0  0.41040  0.00964  0.56738  1.0000
  C   C1362     1.0  0.32922  0.00006  0.36702  1.0000
  H   H1089     1.0  0.36839  0.00406  0.34454  1.0000
  C   C1363     1.0  0.25426  0.11432  0.41870  1.0000
  C   C1364     1.0  0.41902  0.00591  0.58376  1.0000
  H   H1090     1.0  0.41281  0.03542  0.49486  1.0000
  H   H1091     1.0  0.39066  0.02069  0.48093  1.0000
  C   C1365     1.0  0.24913  0.01187  0.45151  1.0000
  C   C1366     1.0  0.26035  0.01647  0.36588  1.0000
  C   C1367     1.0  0.39616  0.00226  0.65286  1.0000
  H   H1092     1.0  0.28076  0.99736  0.54364  1.0000
  C   C1368     1.0  0.25752  0.00023  0.42153  1.0000
  H   H1093     1.0  0.24220  0.02076  0.51187  1.0000
  C   C1369     1.0  0.32566  0.00405  0.34839  1.0000
  H   H1094     1.0  0.24829  0.05111  0.51859  1.0000
  H   H1095     1.0  0.26623  0.00081  0.40824  1.0000
  C   C1370     1.0  0.40404  0.00030  0.53034  1.0000
  H   H1096     1.0  0.30871  0.06271  0.65659  1.0000
  C   C1371     1.0  0.27994  0.01626  0.33000  1.0000
  C   C1372     1.0  0.24688  0.08727  0.52360  1.0000
  C   C1373     1.0  0.24586  0.11165  0.49019  1.0000
  C   C1374     1.0  0.26157  0.01248  0.33335  1.0000
  C   C1375     1.0  0.33182  0.07683  0.65818  1.0000
  Fe  Fe90      1.0  0.45387  0.03984  0.74914  1.0000
  S   S182      1.0  0.42900  0.06191  0.74800  1.0000
  S   S183      1.0  0.48232  0.04007  0.73265  1.0000
  Fe  Fe91      1.0  0.43322  0.01250  0.77678  1.0000
  S   S184      1.0  0.40678  0.03226  0.77834  1.0000
  H   H1097     1.0  0.25787  0.32815  0.98018  1.0000
  Fe  Fe92      1.0  0.41294  0.03804  0.74678  1.0000
  S   S185      1.0  0.38954  0.03549  0.72999  1.0000
  Fe  Fe93      1.0  0.42490  0.05438  0.77955  1.0000
  S   S186      1.0  0.41925  0.07811  0.79786  1.0000
  S   S187      1.0  0.43822  0.01666  0.74557  1.0000
  S   S188      1.0  0.45079  0.03401  0.78039  1.0000
  Fe  Fe94      1.0  0.41998  0.27192  0.96457  1.0000
  S   S189      1.0  0.42817  0.30026  0.95313  1.0000
  C   C1376     1.0  0.36592  0.08648  0.96261  1.0000
  Fe  Fe95      1.0  0.42013  0.26027  0.92602  1.0000
  S   S190      1.0  0.42772  0.28825  0.91186  1.0000
  S   S191      1.0  0.42177  0.23826  0.90654  1.0000
  Fe  Fe96      1.0  0.44840  0.28503  0.93239  1.0000
  H   H1098     1.0  0.47543  0.14821  0.92354  1.0000
  Fe  Fe97      1.0  0.40661  0.30066  0.93388  1.0000
  S   S192      1.0  0.38648  0.32751  0.92903  1.0000
  S   S193      1.0  0.44152  0.25661  0.94550  1.0000
  S   S194      1.0  0.39746  0.27289  0.94652  1.0000
  Fe  Fe98      1.0  0.42803  0.09667  0.90254  1.0000
  S   S195      1.0  0.43103  0.12689  0.89192  1.0000
  S   S196      1.0  0.42282  0.07439  0.88545  1.0000
  Fe  Fe99      1.0  0.43915  0.09967  0.94161  1.0000
  S   S197      1.0  0.44374  0.12962  0.93315  1.0000
  S   S198      1.0  0.44770  0.08532  0.96968  1.0000
  Fe  Fe100     1.0  0.41735  0.13291  0.92057  1.0000
  S   S199      1.0  0.39651  0.15729  0.92903  1.0000
  Fe  Fe101     1.0  0.45698  0.12096  0.90567  1.0000
  C   C1377     1.0  0.31517  0.05964  0.68499  1.0000
  S   S200      1.0  0.41185  0.10309  0.93033  1.0000
  S   S201      1.0  0.45487  0.09059  0.91485  1.0000
  Fe  Fe102     1.0  0.27453  0.35501  0.93240  1.0000
  C   C1378     1.0  0.38498  0.10261  0.97759  1.0000
  S   S202      1.0  0.29907  0.33171  0.93132  1.0000
  Fe  Fe103     1.0  0.25640  0.39570  0.92832  1.0000
  H   H1099     1.0  0.27343  0.30910  0.90823  1.0000
  S   S203      1.0  0.26085  0.42530  0.91566  1.0000
  H   H1100     1.0  0.30692  0.38976  0.95685  1.0000
  C   C1379     1.0  0.47607  0.19367  0.93447  1.0000
  H   H1101     1.0  0.42646  0.19799  0.95792  1.0000
  S   S204      1.0  0.27046  0.37742  0.95127  1.0000
  S   S205      1.0  0.26248  0.37393  0.90856  1.0000
  C   C1380     1.0  0.26652  0.44138  0.92903  1.0000
  C   C1381     1.0  0.27232  0.43570  0.94668  1.0000
  C   C1382     1.0  0.27720  0.44901  0.95663  1.0000
  C   C1383     1.0  0.27596  0.46803  0.94914  1.0000
  C   C1384     1.0  0.26993  0.47367  0.93163  1.0000
  C   C1385     1.0  0.26542  0.46036  0.92153  1.0000
  H   H1102     1.0  0.27324  0.42108  0.95253  1.0000
  C   C1386     1.0  0.46548  0.20755  0.92377  1.0000
  C   C1387     1.0  0.47415  0.11337  0.78966  1.0000
  C   C1388     1.0  0.31879  0.46078  0.90406  1.0000
  C   C1389     1.0  0.36203  0.32832  0.93137  1.0000
  C   C1390     1.0  0.35081  0.34576  0.93151  1.0000
  C   C1391     1.0  0.33144  0.34708  0.93212  1.0000
  C   C1392     1.0  0.32313  0.33096  0.93223  1.0000
  C   C1393     1.0  0.33432  0.31351  0.93247  1.0000
  C   C1394     1.0  0.35363  0.31215  0.93220  1.0000
  H   H1103     1.0  0.35718  0.35834  0.93095  1.0000
  H   H1104     1.0  0.32302  0.36057  0.93214  1.0000
  H   H1105     1.0  0.32804  0.30097  0.93256  1.0000
  H   H1106     1.0  0.36206  0.29867  0.93200  1.0000
  C   C1395     1.0  0.41484  0.21579  0.91355  1.0000
  C   C1396     1.0  0.42167  0.20156  0.90232  1.0000
  C   C1397     1.0  0.41670  0.18341  0.90741  1.0000
  C   C1398     1.0  0.40405  0.17960  0.92328  1.0000
  C   C1399     1.0  0.39681  0.19393  0.93429  1.0000
  C   C1400     1.0  0.40248  0.21189  0.92967  1.0000
  H   H1107     1.0  0.43076  0.20458  0.88954  1.0000
  H   H1108     1.0  0.42213  0.17255  0.89868  1.0000
  H   H1109     1.0  0.38687  0.19115  0.94645  1.0000
  H   H1110     1.0  0.39696  0.22282  0.93831  1.0000
  C   C1401     1.0  0.42218  0.07684  0.82187  1.0000
  C   C1402     1.0  0.41976  0.09352  0.83009  1.0000
  C   C1403     1.0  0.42092  0.09312  0.84931  1.0000
  C   C1404     1.0  0.42397  0.07595  0.86068  1.0000
  C   C1405     1.0  0.42673  0.05930  0.85238  1.0000
  C   C1406     1.0  0.42625  0.05976  0.83303  1.0000
  H   H1111     1.0  0.41670  0.10683  0.82159  1.0000
  H   H1112     1.0  0.41874  0.10604  0.85547  1.0000
  H   H1113     1.0  0.42920  0.04597  0.86100  1.0000
  H   H1114     1.0  0.42873  0.04687  0.82683  1.0000
  C   C1407     1.0  0.38807  0.03931  0.70547  1.0000
  C   C1408     1.0  0.37369  0.03255  0.69876  1.0000
  C   C1409     1.0  0.37128  0.03607  0.67963  1.0000
  H   H1115     1.0  0.35361  0.00813  0.82448  1.0000
  C   C1410     1.0  0.39762  0.05325  0.67361  1.0000
  C   C1411     1.0  0.40018  0.04951  0.69272  1.0000
  H   H1116     1.0  0.36428  0.02462  0.70847  1.0000
  H   H1117     1.0  0.36006  0.03090  0.67477  1.0000
  H   H1118     1.0  0.45387  0.00239  0.70711  1.0000
  H   H1119     1.0  0.41125  0.05489  0.69764  1.0000
  C   C1412     1.0  0.36976  0.11587  0.98213  1.0000
  C   C1413     1.0  0.25517  0.07116  0.66642  1.0000
  H   H1120     1.0  0.35562  0.08819  0.66346  1.0000
  C   C1414     1.0  0.42551  0.14292  0.98023  1.0000
  S   S206      1.0  0.48426  0.12856  0.89100  1.0000
  H   H1121     1.0  0.27752  0.04801  0.77223  1.0000
  C   C1415     1.0  0.32647  0.48644  0.91797  1.0000
  C   C1416     1.0  0.24294  0.05777  0.66918  1.0000
  C   C1417     1.0  0.48726  0.27314  0.98359  1.0000
  H   H1122     1.0  0.47675  0.06975  0.75642  1.0000
  H   H1123     1.0  0.30767  0.35595  0.96776  1.0000
  C   C1418     1.0  0.36241  0.33354  0.88554  1.0000
  C   C1419     1.0  0.36491  0.31420  0.88504  1.0000
  C   C1420     1.0  0.35168  0.30590  0.87839  1.0000
  C   C1421     1.0  0.33586  0.31691  0.87241  1.0000
  C   C1422     1.0  0.33290  0.33625  0.87358  1.0000
  C   C1423     1.0  0.34652  0.34455  0.87980  1.0000
  P   P49       1.0  0.31285  0.35044  0.86499  1.0000
  C   C1424     1.0  0.30910  0.37316  0.87305  1.0000
  C   C1425     1.0  0.31751  0.35245  0.83984  1.0000
  C   C1426     1.0  0.30794  0.34310  0.82955  1.0000
  C   C1427     1.0  0.31202  0.34450  0.81008  1.0000
  C   C1428     1.0  0.32585  0.35499  0.80078  1.0000
  C   C1429     1.0  0.33570  0.36400  0.81098  1.0000
  C   C1430     1.0  0.33162  0.36266  0.83046  1.0000
  C   C1431     1.0  0.30469  0.38961  0.86091  1.0000
  C   C1432     1.0  0.30068  0.40695  0.86773  1.0000
  C   C1433     1.0  0.30086  0.40796  0.88671  1.0000
  C   C1434     1.0  0.30498  0.39162  0.89890  1.0000
  C   C1435     1.0  0.30893  0.37428  0.89211  1.0000
  C   C1436     1.0  0.29162  0.34071  0.87368  1.0000
  C   C1437     1.0  0.29088  0.32612  0.88862  1.0000
  C   C1438     1.0  0.27399  0.31984  0.89621  1.0000
  C   C1439     1.0  0.27519  0.34900  0.86657  1.0000
  H   H1124     1.0  0.37268  0.33990  0.89082  1.0000
  H   H1125     1.0  0.37703  0.30568  0.89001  1.0000
  H   H1126     1.0  0.35368  0.29090  0.87797  1.0000
  H   H1127     1.0  0.32584  0.31031  0.86707  1.0000
  H   H1128     1.0  0.34496  0.35948  0.88035  1.0000
  H   H1129     1.0  0.29746  0.33456  0.83649  1.0000
  H   H1130     1.0  0.30453  0.33732  0.80220  1.0000
  H   H1131     1.0  0.32904  0.35598  0.78570  1.0000
  H   H1132     1.0  0.34659  0.37192  0.80380  1.0000
  H   H1133     1.0  0.33950  0.36950  0.83825  1.0000
  H   H1134     1.0  0.30380  0.38906  0.84632  1.0000
  H   H1135     1.0  0.29689  0.41958  0.85845  1.0000
  H   H1136     1.0  0.29717  0.42130  0.89212  1.0000
  H   H1137     1.0  0.30439  0.39229  0.91373  1.0000
  H   H1138     1.0  0.31131  0.36162  0.90179  1.0000
  H   H1139     1.0  0.30309  0.32008  0.89505  1.0000
  H   H1140     1.0  0.33881  0.46747  0.81832  1.0000
  H   H1141     1.0  0.27528  0.36078  0.85557  1.0000
  C   C1440     1.0  0.47975  0.00049  0.68889  1.0000
  C   C1441     1.0  0.44091  0.15409  0.84645  1.0000
  C   C1442     1.0  0.27650  0.04971  0.68453  1.0000
  C   C1443     1.0  0.31087  0.38422  0.97054  1.0000
  C   C1444     1.0  0.48359  0.12343  0.77412  1.0000
  H   H1142     1.0  0.28809  0.48479  0.89416  1.0000
  C   C1445     1.0  0.36851  0.31272  0.98135  1.0000
  C   C1446     1.0  0.47871  0.12379  0.75621  1.0000
  C   C1447     1.0  0.42154  0.19844  0.97264  1.0000
  C   C1448     1.0  0.38303  0.08790  0.96800  1.0000
  C   C1449     1.0  0.29042  0.02869  0.73176  1.0000
  C   C1450     1.0  0.48333  0.24723  0.96788  1.0000
  C   C1451     1.0  0.35686  0.45261  0.83787  1.0000
  H   H1143     1.0  0.47317  0.03891  0.85111  1.0000
  C   C1452     1.0  0.35246  0.46329  0.86833  1.0000
  H   H1144     1.0  0.48756  0.05848  0.69357  1.0000
  H   H1145     1.0  0.48467  0.04321  0.81716  1.0000
  C   C1453     1.0  0.28283  0.06362  0.74488  1.0000
  H   H1146     1.0  0.42102  0.00732  0.82452  1.0000
  H   H1147     1.0  0.47915  0.31410  0.94478  1.0000
  C   C1454     1.0  0.30903  0.30641  0.98206  1.0000
  H   H1148     1.0  0.29297  0.01507  0.72690  1.0000
  C   C1455     1.0  0.27217  0.32211  0.98063  1.0000
  H   H1149     1.0  0.48983  0.03250  0.77663  1.0000
  C   C1456     1.0  0.48443  0.23045  0.92846  1.0000
  C   C1457     1.0  0.34983  0.18911  0.98838  1.0000
  C   C1458     1.0  0.47074  0.13537  0.84097  1.0000
  H   H1150     1.0  0.32683  0.05779  0.71099  1.0000
  P   P50       1.0  0.29810  0.04410  0.69440  1.0000
  C   C1459     1.0  0.47875  0.08890  0.82513  1.0000
  H   H1151     1.0  0.45389  0.20413  0.91797  1.0000
  H   H1152     1.0  0.40685  0.06147  0.66396  1.0000
  H   H1153     1.0  0.46176  0.23660  0.91198  1.0000
  C   C1460     1.0  0.34407  0.08069  0.66958  1.0000
  C   C1461     1.0  0.44734  0.13530  0.82089  1.0000
  H   H1154     1.0  0.48411  0.13014  0.84546  1.0000
  H   H1155     1.0  0.33047  0.02157  0.70843  1.0000
  H   H1156     1.0  0.47403  0.23907  0.96351  1.0000
  H   H1157     1.0  0.39492  0.07772  0.96456  1.0000
  P   P51       1.0  0.48065  0.11219  0.81282  1.0000
  H   H1158     1.0  0.32226  0.48891  0.84007  1.0000
  C   C1462     1.0  0.46431  0.11427  0.75371  1.0000
  C   C1463     1.0  0.45471  0.10444  0.76912  1.0000
  C   C1464     1.0  0.45961  0.10398  0.78701  1.0000
  H   H1159     1.0  0.24562  0.34921  0.86885  1.0000
  C   C1465     1.0  0.47240  0.08628  0.84437  1.0000
  C   C1466     1.0  0.48336  0.07318  0.81544  1.0000
  C   C1467     1.0  0.28156  0.04720  0.75744  1.0000
  H   H1160     1.0  0.33738  0.09851  0.96297  1.0000
  C   C1468     1.0  0.28360  0.33038  0.98975  1.0000
  H   H1161     1.0  0.28868  0.07543  0.71614  1.0000
  C   C1469     1.0  0.32765  0.06348  0.69635  1.0000
  H   H1162     1.0  0.27974  0.07717  0.74992  1.0000
  H   H1163     1.0  0.44248  0.13032  0.80946  1.0000
  H   H1164     1.0  0.40187  0.17910  0.97365  1.0000
  H   H1165     1.0  0.46289  0.15237  0.86336  1.0000
  H   H1166     1.0  0.29307  0.05961  0.82272  1.0000
  H   H1167     1.0  0.46069  0.11430  0.73982  1.0000
  H   H1168     1.0  0.44359  0.09696  0.76723  1.0000
  H   H1169     1.0  0.45209  0.09618  0.79878  1.0000
  C   C1470     1.0  0.27178  0.06727  0.67422  1.0000
  C   C1471     1.0  0.27920  0.30627  0.97187  1.0000
  C   C1472     1.0  0.34807  0.19234  0.96929  1.0000
  H   H1170     1.0  0.40299  0.13808  0.96673  1.0000
  C   C1473     1.0  0.43579  0.08892  0.99213  1.0000
  H   H1171     1.0  0.31876  0.44922  0.95104  1.0000
  H   H1172     1.0  0.31302  0.43613  0.92320  1.0000
  C   C1474     1.0  0.40748  0.13922  0.97998  1.0000
  C   C1475     1.0  0.37530  0.02479  0.82598  1.0000
  C   C1476     1.0  0.39444  0.02441  0.82551  1.0000
  P   P52       1.0  0.36067  0.04703  0.82468  1.0000
  C   C1477     1.0  0.33689  0.04395  0.83288  1.0000
  C   C1478     1.0  0.36664  0.06191  0.84004  1.0000
  C   C1479     1.0  0.36104  0.08134  0.83733  1.0000
  C   C1480     1.0  0.36571  0.09291  0.84915  1.0000
  C   C1481     1.0  0.37553  0.08510  0.86406  1.0000
  C   C1482     1.0  0.38042  0.06572  0.86734  1.0000
  C   C1483     1.0  0.37597  0.05414  0.85544  1.0000
  C   C1484     1.0  0.33254  0.03238  0.84969  1.0000
  C   C1485     1.0  0.31409  0.03035  0.85652  1.0000
  C   C1486     1.0  0.29988  0.04005  0.84673  1.0000
  C   C1487     1.0  0.30410  0.05187  0.83015  1.0000
  C   C1488     1.0  0.32254  0.05392  0.82328  1.0000
  C   C1489     1.0  0.36361  0.05659  0.80028  1.0000
  C   C1490     1.0  0.35672  0.04801  0.78718  1.0000
  C   C1491     1.0  0.36026  0.05422  0.76805  1.0000
  C   C1492     1.0  0.37084  0.06889  0.76184  1.0000
  C   C1493     1.0  0.37785  0.07740  0.77477  1.0000
  C   C1494     1.0  0.37433  0.07123  0.79391  1.0000
  C   C1495     1.0  0.40619  0.00747  0.82533  1.0000
  H   H1173     1.0  0.35236  0.18029  0.94343  1.0000
  H   H1174     1.0  0.31486  0.41111  0.97714  1.0000
  C   C1496     1.0  0.26374  0.03665  0.68792  1.0000
  H   H1175     1.0  0.40028  0.03735  0.82475  1.0000
  H   H1176     1.0  0.35330  0.08759  0.82593  1.0000
  H   H1177     1.0  0.36192  0.10795  0.84665  1.0000
  H   H1178     1.0  0.37959  0.09404  0.87300  1.0000
  H   H1179     1.0  0.38815  0.05976  0.87887  1.0000
  H   H1180     1.0  0.37997  0.03918  0.85830  1.0000
  H   H1181     1.0  0.34342  0.02504  0.85758  1.0000
  C   C1497     1.0  0.49008  0.14350  0.92177  1.0000
  H   H1182     1.0  0.28559  0.03857  0.85210  1.0000
  H   H1183     1.0  0.43609  0.29295  0.99065  1.0000
  H   H1184     1.0  0.32552  0.06346  0.81066  1.0000
  H   H1185     1.0  0.34915  0.03613  0.79169  1.0000
  H   H1186     1.0  0.35553  0.04715  0.75790  1.0000
  H   H1187     1.0  0.37417  0.07316  0.74696  1.0000
  H   H1188     1.0  0.38667  0.08829  0.76998  1.0000
  H   H1189     1.0  0.38067  0.07743  0.80354  1.0000
  H   H1190     1.0  0.47372  0.00817  0.67685  1.0000
  H   H1191     1.0  0.46857  0.09802  0.85229  1.0000
  H   H1192     1.0  0.34307  0.32481  0.97082  1.0000
  C   C1498     1.0  0.25837  0.34253  0.87405  1.0000
  H   H1193     1.0  0.26073  0.46483  0.90799  1.0000
  C   C1499     1.0  0.24715  0.04058  0.68006  1.0000
  H   H1194     1.0  0.26876  0.48830  0.92583  1.0000
  H   H1195     1.0  0.35647  0.46191  0.88225  1.0000
  C   C1500     1.0  0.32050  0.45733  0.93732  1.0000
  H   H1196     1.0  0.48205  0.99657  0.82542  1.0000
  C   C1501     1.0  0.46530  0.12918  0.82548  1.0000
  H   H1197     1.0  0.48831  0.07480  0.80062  1.0000
  H   H1198     1.0  0.43910  0.21868  0.97567  1.0000
  H   H1199     1.0  0.37281  0.44047  0.86023  1.0000
  C   C1502     1.0  0.25775  0.32801  0.88892  1.0000
  C   C1503     1.0  0.28795  0.06260  0.72578  1.0000
  C   C1504     1.0  0.35982  0.15983  0.96650  1.0000
  H   H1200     1.0  0.48735  0.24484  0.92618  1.0000
  C   C1505     1.0  0.33804  0.47703  0.86290  1.0000
  H   H1201     1.0  0.31597  0.45497  0.89208  1.0000
  H   H1202     1.0  0.35195  0.07641  0.69732  1.0000
  H   H1203     1.0  0.29259  0.01659  0.67006  1.0000
  H   H1204     1.0  0.34053  0.12415  0.98060  1.0000
  H   H1205     1.0  0.24457  0.32354  0.89515  1.0000
  H   H1206     1.0  0.26676  0.02327  0.69635  1.0000
  H   H1207     1.0  0.32666  0.48149  0.94785  1.0000
  H   H1208     1.0  0.28089  0.07796  0.67195  1.0000
  C   C1506     1.0  0.28529  0.02975  0.75087  1.0000
  H   H1209     1.0  0.42053  0.01015  0.66088  1.0000
  C   C1507     1.0  0.47498  0.05276  0.84390  1.0000
  H   H1210     1.0  0.48571  0.99923  0.78632  1.0000
  H   H1211     1.0  0.36455  0.07520  0.95495  1.0000
  C   C1508     1.0  0.30219  0.32270  0.99039  1.0000
  C   C1509     1.0  0.32546  0.01369  0.69918  1.0000
  H   H1212     1.0  0.47264  0.17949  0.93672  1.0000
  C   C1510     1.0  0.47059  0.06828  0.85368  1.0000
  C   C1511     1.0  0.36816  0.00808  0.82526  1.0000
  C   C1512     1.0  0.34197  0.07405  0.68867  1.0000
  H   H1213     1.0  0.27045  0.30032  0.96423  1.0000
  C   C1513     1.0  0.32500  0.47557  0.93550  1.0000
  P   P53       1.0  0.32612  0.49262  0.87922  1.0000
  H   H1214     1.0  0.30310  0.28627  0.96560  1.0000
  H   H1215     1.0  0.46525  0.06646  0.86844  1.0000
  C   C1514     1.0  0.36137  0.15641  0.98571  1.0000
  C   C1515     1.0  0.47573  0.26263  0.97713  1.0000
  H   H1216     1.0  0.42133  0.15222  0.82782  1.0000
  C   C1516     1.0  0.35065  0.09964  0.96710  1.0000
  S   S207      1.0  0.47920  0.28457  0.92175  1.0000
  C   C1517     1.0  0.33327  0.47852  0.84472  1.0000
  C   C1518     1.0  0.46991  0.22584  0.92043  1.0000
  C   C1519     1.0  0.30392  0.01083  0.67795  1.0000
  C   C1520     1.0  0.43523  0.14774  0.83131  1.0000
  H   H1217     1.0  0.43143  0.16348  0.85473  1.0000
  C   C1521     1.0  0.48709  0.15730  0.98959  1.0000
  C   C1522     1.0  0.38310  0.04670  0.66695  1.0000
  C   C1523     1.0  0.31126  0.36503  0.97681  1.0000
  C   C1524     1.0  0.31752  0.06626  0.66582  1.0000
  C   C1525     1.0  0.47305  0.20748  0.87717  1.0000
  H   H1218     1.0  0.46631  0.17970  0.88797  1.0000
  C   C1526     1.0  0.30966  0.02105  0.69048  1.0000
  S   S208      1.0  0.24704  0.34479  0.94284  1.0000
  H   H1219     1.0  0.28412  0.01703  0.76056  1.0000
  C   C1527     1.0  0.29212  0.04511  0.71914  1.0000
  H   H1220     1.0  0.46084  0.26640  0.97929  1.0000
  H   H1221     1.0  0.43484  0.14442  0.96737  1.0000
  H   H1222     1.0  0.28208  0.44458  0.97007  1.0000
  H   H1223     1.0  0.45955  0.21454  0.88195  1.0000
  C   C1528     1.0  0.45866  0.14790  0.85127  1.0000
  H   H1224     1.0  0.48398  0.23326  0.86613  1.0000
  C   C1529     1.0  0.36178  0.45111  0.85588  1.0000
  H   H1225     1.0  0.47884  0.10709  0.97278  1.0000
  H   H1226     1.0  0.36408  0.44315  0.82824  1.0000
  H   H1227     1.0  0.48209  0.07341  0.99226  1.0000
  C   C1530     1.0  0.47686  0.18794  0.88048  1.0000
  C   C1531     1.0  0.31725  0.44999  0.92163  1.0000
  H   H1228     1.0  0.48115  0.33283  0.98211  1.0000
  C   C1532     1.0  0.32358  0.47904  0.90208  1.0000
  C   C1533     1.0  0.34263  0.46632  0.83229  1.0000
  H   H1229     1.0  0.31082  0.02140  0.86951  1.0000
  H   H1230     1.0  0.48633  0.13117  0.74422  1.0000
  C   C1534     1.0  0.40764  0.18783  0.98150  1.0000
  C   C1535     1.0  0.34996  0.32067  0.98324  1.0000
  H   H1231     1.0  0.34322  0.20627  0.96283  1.0000
  C   C1536     1.0  0.29761  0.29840  0.97263  1.0000
  C   C1537     1.0  0.42881  0.20992  0.98268  1.0000
  H   H1232     1.0  0.32309  0.29983  0.98271  1.0000
  C   C1538     1.0  0.48140  0.05521  0.82479  1.0000
  H   H1233     1.0  0.48129  0.28515  0.99065  1.0000
  Fe  Fe104     1.0  0.24237  0.36830  0.96044  1.0000
  S   S209      1.0  0.28267  0.48447  0.96145  1.0000
  H   H1234     1.0  0.36441  0.14892  0.95760  1.0000
  H   H1235     1.0  0.39836  0.10357  0.98146  1.0000
  C   C1539     1.0  0.35251  0.11420  0.97697  1.0000
  H   H1236     1.0  0.48268  0.10206  0.93973  1.0000
  C   C1540     1.0  0.35304  0.17769  0.95838  1.0000
  H   H1237     1.0  0.48955  0.16830  0.97815  1.0000
  H   H1238     1.0  0.37577  0.31062  0.96762  1.0000
  H   H1239     1.0  0.25125  0.39224  0.98975  1.0000
  C   C1541     1.0  0.41156  0.99933  0.66251  1.0000
  C   C1542     1.0  0.46853  0.99726  0.70594  1.0000
  C   C1543     1.0  0.48686  0.21809  0.86818  1.0000
  H   H1240     1.0  0.41633  0.06979  0.99154  1.0000
  C   C1544     1.0  0.33522  0.99632  0.69558  1.0000
  C   C1545     1.0  0.31541  0.39623  0.98195  1.0000
  Fe  Fe105     1.0  0.40199  0.63777  0.11671  1.0000
  S   S210      1.0  0.40049  0.61022  0.13508  1.0000
  S   S211      1.0  0.38477  0.66414  0.12522  1.0000
  Fe  Fe106     1.0  0.43103  0.62102  0.08802  1.0000
  S   S212      1.0  0.43226  0.59214  0.10406  1.0000
  S   S213      1.0  0.44881  0.62854  0.06098  1.0000
  Fe  Fe107     1.0  0.40100  0.59800  0.10835  1.0000
  S   S214      1.0  0.38468  0.57644  0.10065  1.0000
  Fe  Fe108     1.0  0.43166  0.60703  0.12902  1.0000
  S   S215      1.0  0.44915  0.59857  0.15261  1.0000
  S   S216      1.0  0.40009  0.62603  0.09040  1.0000
  S   S217      1.0  0.43293  0.63521  0.11260  1.0000
  Fe  Fe109     1.0  0.42140  0.76230  0.10741  1.0000
  S   S218      1.0  0.39371  0.77965  0.11301  1.0000
  S   S219      1.0  0.43157  0.73175  0.10632  1.0000
  Fe  Fe110     1.0  0.44101  0.79634  0.09304  1.0000
  S   S220      1.0  0.41532  0.81649  0.09798  1.0000
  S   S221      1.0  0.46753  0.80294  0.07583  1.0000
  Fe  Fe111     1.0  0.40997  0.79794  0.12538  1.0000
  S   S222      1.0  0.39741  0.81042  0.15221  1.0000
  Fe  Fe112     1.0  0.40153  0.79675  0.08520  1.0000
  S   S223      1.0  0.38523  0.80970  0.06115  1.0000
  S   S224      1.0  0.43716  0.77931  0.12129  1.0000
  S   S225      1.0  0.42757  0.77787  0.07902  1.0000
  H   H1241     1.0  0.37561  0.93838  0.32418  1.0000
  Fe  Fe113     1.0  0.44238  0.84310  0.28181  1.0000
  S   S226      1.0  0.44158  0.86054  0.25387  1.0000
  S   S227      1.0  0.46955  0.83224  0.29275  1.0000
  Fe  Fe114     1.0  0.40085  0.84226  0.28813  1.0000
  S   S228      1.0  0.39719  0.85851  0.25971  1.0000
  Fe  Fe115     1.0  0.42293  0.84063  0.24830  1.0000
  S   S229      1.0  0.43407  0.82779  0.22117  1.0000
  Fe  Fe116     1.0  0.41621  0.87674  0.26747  1.0000
  S   S230      1.0  0.40577  0.90765  0.26562  1.0000
  S   S231      1.0  0.42468  0.82253  0.27613  1.0000
  S   S232      1.0  0.41885  0.86119  0.29610  1.0000
  H   H1242     1.0  0.30997  0.57409  0.06699  1.0000
  S   S233      1.0  0.45589  0.97318  0.25060  1.0000
  Fe  Fe117     1.0  0.28170  0.54938  0.11489  1.0000
  S   S234      1.0  0.28713  0.54298  0.08531  1.0000
  S   S235      1.0  0.30145  0.56151  0.12993  1.0000
  Fe  Fe118     1.0  0.27392  0.51688  0.09612  1.0000
  H   H1243     1.0  0.40676  0.94611  0.32390  1.0000
  H   H1244     1.0  0.38381  0.54397  0.14389  1.0000
  S   S236      1.0  0.27071  0.52206  0.12588  1.0000
  H   H1245     1.0  0.27860  0.60673  0.00401  1.0000
  H   H1246     1.0  0.42238  0.64054  0.15480  1.0000
  H   H1247     1.0  0.41692  0.58173  0.04264  1.0000
  C   C1546     1.0  0.43282  0.59554  0.01899  1.0000
  C   C1547     1.0  0.48639  0.70111  0.20082  1.0000
  H   H1248     1.0  0.45018  0.90143  0.28827  1.0000
  H   H1249     1.0  0.47840  0.76306  0.20827  1.0000
  C   C1548     1.0  0.29903  0.57223  0.04158  1.0000
  C   C1549     1.0  0.42053  0.92508  0.26270  1.0000
  C   C1550     1.0  0.41312  0.94290  0.26746  1.0000
  C   C1551     1.0  0.42407  0.95756  0.26435  1.0000
  C   C1552     1.0  0.44244  0.95456  0.25614  1.0000
  C   C1553     1.0  0.45002  0.93662  0.25171  1.0000
  C   C1554     1.0  0.43911  0.92184  0.25509  1.0000
  H   H1250     1.0  0.39877  0.94545  0.27335  1.0000
  H   H1251     1.0  0.41816  0.97133  0.26782  1.0000
  H   H1252     1.0  0.46428  0.93423  0.24548  1.0000
  H   H1253     1.0  0.44492  0.90811  0.25144  1.0000
  C   C1555     1.0  0.42350  0.82321  0.20214  1.0000
  C   C1556     1.0  0.40442  0.82703  0.20154  1.0000
  C   C1557     1.0  0.39673  0.82300  0.18618  1.0000
  C   C1558     1.0  0.40794  0.81496  0.17131  1.0000
  C   C1559     1.0  0.42700  0.81094  0.17201  1.0000
  C   C1560     1.0  0.43474  0.81527  0.18719  1.0000
  H   H1254     1.0  0.39557  0.83310  0.21290  1.0000
  H   H1255     1.0  0.38196  0.82614  0.18582  1.0000
  H   H1256     1.0  0.43578  0.80468  0.16077  1.0000
  H   H1257     1.0  0.44954  0.81227  0.18745  1.0000
  C   C1561     1.0  0.35700  0.66916  0.01434  1.0000
  Fe  Fe119     1.0  0.25790  0.55634  0.08327  1.0000
  H   H1258     1.0  0.38646  0.81601  0.99291  1.0000
  C   C1562     1.0  0.47791  0.81440  0.10644  1.0000
  H   H1259     1.0  0.24312  0.53950  0.17391  1.0000
  C   C1563     1.0  0.40513  0.63890  0.01839  1.0000
  H   H1260     1.0  0.46356  0.81493  0.11247  1.0000
  C   C1564     1.0  0.38651  0.80046  0.03967  1.0000
  C   C1565     1.0  0.38485  0.78160  0.03921  1.0000
  C   C1566     1.0  0.38343  0.77528  0.02214  1.0000
  C   C1567     1.0  0.38423  0.78758  0.00528  1.0000
  C   C1568     1.0  0.38642  0.80628  0.00567  1.0000
  C   C1569     1.0  0.38713  0.81274  0.02281  1.0000
  H   H1261     1.0  0.38382  0.77210  0.05212  1.0000
  H   H1262     1.0  0.38136  0.76089  0.02206  1.0000
  C   C1570     1.0  0.37258  0.60691  0.01825  1.0000
  H   H1263     1.0  0.38770  0.82748  0.02305  1.0000
  C   C1571     1.0  0.36094  0.57425  0.10813  1.0000
  C   C1572     1.0  0.35212  0.57919  0.12537  1.0000
  C   C1573     1.0  0.33383  0.57544  0.13168  1.0000
  C   C1574     1.0  0.32402  0.56702  0.12074  1.0000
  C   C1575     1.0  0.33262  0.56272  0.10319  1.0000
  C   C1576     1.0  0.35105  0.56606  0.09705  1.0000
  H   H1264     1.0  0.35956  0.58541  0.13409  1.0000
  H   H1265     1.0  0.32730  0.57892  0.14523  1.0000
  H   H1266     1.0  0.32523  0.55630  0.09461  1.0000
  H   H1267     1.0  0.35774  0.56215  0.08371  1.0000
  C   C1577     1.0  0.44408  0.61488  0.04491  1.0000
  C   C1578     1.0  0.43223  0.60128  0.05094  1.0000
  C   C1579     1.0  0.42665  0.59167  0.03799  1.0000
  C   C1580     1.0  0.44530  0.60861  0.01292  1.0000
  C   C1581     1.0  0.45094  0.61832  0.02594  1.0000
  H   H1268     1.0  0.42669  0.59866  0.06549  1.0000
  H   H1269     1.0  0.37139  0.87851  0.30124  1.0000
  H   H1270     1.0  0.46004  0.62892  0.02127  1.0000
  H   H1271     1.0  0.47383  0.57785  0.17631  1.0000
  C   C1582     1.0  0.39629  0.68400  0.11818  1.0000
  C   C1583     1.0  0.41268  0.68287  0.10585  1.0000
  C   C1584     1.0  0.42310  0.69787  0.10208  1.0000
  C   C1585     1.0  0.41686  0.71437  0.11003  1.0000
  C   C1586     1.0  0.39969  0.71619  0.12118  1.0000
  C   C1587     1.0  0.38949  0.70087  0.12542  1.0000
  H   H1272     1.0  0.41742  0.67042  0.09927  1.0000
  H   H1273     1.0  0.43603  0.69673  0.09289  1.0000
  H   H1274     1.0  0.39453  0.72909  0.12695  1.0000
  H   H1275     1.0  0.37660  0.70191  0.13470  1.0000
  C   C1588     1.0  0.45110  0.50833  0.12676  1.0000
  H   H1276     1.0  0.48395  0.71700  0.01905  1.0000
  C   C1589     1.0  0.47958  0.97319  0.30685  1.0000
  C   C1590     1.0  0.42846  0.87457  0.18900  1.0000
  C   C1591     1.0  0.48343  0.84411  0.22213  1.0000
  H   H1277     1.0  0.41086  0.86556  0.21403  1.0000
  C   C1592     1.0  0.25291  0.55606  0.01177  1.0000
  H   H1278     1.0  0.41803  0.90699  0.30304  1.0000
  H   H1279     1.0  0.48270  0.67226  0.20071  1.0000
  C   C1593     1.0  0.47853  0.80379  0.25060  1.0000
  H   H1280     1.0  0.42600  0.86325  0.18195  1.0000
  C   C1594     1.0  0.42254  0.84073  0.05248  1.0000
  H   H1281     1.0  0.28840  0.56394  0.04853  1.0000
  H   H1282     1.0  0.47499  0.81790  0.25429  1.0000
  H   H1283     1.0  0.46720  0.58462  0.07320  1.0000
  C   C1595     1.0  0.29000  0.63122  0.04178  1.0000
  H   H1284     1.0  0.48150  0.80127  0.03669  1.0000
  C   C1596     1.0  0.48330  0.80969  0.08833  1.0000
  C   C1597     1.0  0.48521  0.72722  0.14828  1.0000
  H   H1285     1.0  0.41879  0.55661  0.06562  1.0000
  H   H1286     1.0  0.48276  0.65748  0.03232  1.0000
  C   C1598     1.0  0.48150  0.66839  0.11455  1.0000
  H   H1287     1.0  0.30501  0.51796  0.01479  1.0000
  C   C1599     1.0  0.44965  0.54041  0.09663  1.0000
  H   H1288     1.0  0.32675  0.88973  0.28994  1.0000
  H   H1289     1.0  0.47450  0.86870  0.12676  1.0000
  H   H1290     1.0  0.46550  0.87148  0.27833  1.0000
  C   C1600     1.0  0.43679  0.78594  0.02970  1.0000
  H   H1291     1.0  0.24116  0.50594  0.17349  1.0000
  H   H1292     1.0  0.28056  0.63249  0.03144  1.0000
  C   C1601     1.0  0.47905  0.70025  0.13519  1.0000
  H   H1293     1.0  0.35504  0.63220  0.01051  1.0000
  P   P54       1.0  0.44991  0.88741  0.15594  1.0000
  C   C1602     1.0  0.47424  0.72337  0.06882  1.0000
  C   C1603     1.0  0.46432  0.74044  0.06240  1.0000
  S   S237      1.0  0.24503  0.52969  0.09148  1.0000
  C   C1604     1.0  0.41574  0.71221  0.00525  1.0000
  H   H1294     1.0  0.46734  0.71091  0.07238  1.0000
  H   H1295     1.0  0.44973  0.74125  0.06127  1.0000
  C   C1605     1.0  0.44577  0.78468  0.99659  1.0000
  C   C1606     1.0  0.28817  0.50444  0.16679  1.0000
  C   C1607     1.0  0.41008  0.70543  0.04547  1.0000
  C   C1608     1.0  0.41739  0.71910  0.05283  1.0000
  C   C1609     1.0  0.40699  0.72846  0.06709  1.0000
  C   C1610     1.0  0.38934  0.72406  0.07435  1.0000
  C   C1611     1.0  0.38197  0.71040  0.06723  1.0000
  C   C1612     1.0  0.39223  0.70116  0.05280  1.0000
  H   H1296     1.0  0.44921  0.66207  0.03227  1.0000
  H   H1297     1.0  0.47022  0.74069  0.10577  1.0000
  H   H1298     1.0  0.43094  0.72288  0.04742  1.0000
  H   H1299     1.0  0.41263  0.73906  0.07270  1.0000
  H   H1300     1.0  0.38141  0.73122  0.08556  1.0000
  H   H1301     1.0  0.36818  0.70721  0.07277  1.0000
  H   H1302     1.0  0.48170  0.99394  0.21723  1.0000
  C   C1613     1.0  0.46694  0.79030  0.25839  1.0000
  C   C1614     1.0  0.43637  0.87488  0.14446  1.0000
  H   H1303     1.0  0.45455  0.79416  0.26766  1.0000
  C   C1615     1.0  0.48424  0.87663  0.16904  1.0000
  C   C1616     1.0  0.46595  0.53908  0.08389  1.0000
  C   C1617     1.0  0.44551  0.50038  0.14513  1.0000
  C   C1618     1.0  0.43223  0.55746  0.14666  1.0000
  C   C1619     1.0  0.48435  0.60732  0.13657  1.0000
  C   C1620     1.0  0.36218  0.90820  0.29925  1.0000
  C   C1621     1.0  0.47123  0.66160  0.08632  1.0000
  C   C1622     1.0  0.46718  0.66674  0.10436  1.0000
  C   C1623     1.0  0.44480  0.79399  0.01232  1.0000
  C   C1624     1.0  0.48456  0.70792  0.14974  1.0000
  C   C1625     1.0  0.44812  0.94847  0.12674  1.0000
  C   C1626     1.0  0.40770  0.65232  0.00279  1.0000
  C   C1627     1.0  0.43840  0.76776  0.99827  1.0000
  H   H1304     1.0  0.46012  0.65992  0.07871  1.0000
  H   H1305     1.0  0.45287  0.66939  0.11029  1.0000
  C   C1628     1.0  0.45365  0.84776  0.05216  1.0000
  C   C1629     1.0  0.42984  0.84574  0.13581  1.0000
  C   C1630     1.0  0.44309  0.90208  0.18997  1.0000
  C   C1631     1.0  0.42259  0.89027  0.21677  1.0000
  C   C1632     1.0  0.44828  0.55040  0.05803  1.0000
  H   H1306     1.0  0.43621  0.79273  0.04199  1.0000
  C   C1633     1.0  0.48556  0.68696  0.02578  1.0000
  H   H1307     1.0  0.45026  0.72177  0.01812  1.0000
  C   C1634     1.0  0.27073  0.49812  0.16928  1.0000
  H   H1308     1.0  0.41870  0.82405  0.03187  1.0000
  C   C1635     1.0  0.43204  0.55171  0.07060  1.0000
  H   H1309     1.0  0.39718  0.88165  0.12313  1.0000
  S   S238      1.0  0.25301  0.56452  0.11240  1.0000
  C   C1636     1.0  0.46841  0.95946  0.30605  1.0000
  C   C1637     1.0  0.47361  0.94686  0.29295  1.0000
  H   H1310     1.0  0.35489  0.52652  0.12293  1.0000
  C   C1638     1.0  0.48567  0.84833  0.28653  1.0000
  H   H1311     1.0  0.24256  0.90842  0.31814  1.0000
  C   C1639     1.0  0.47373  0.87659  0.15446  1.0000
  C   C1640     1.0  0.28624  0.62038  0.05908  1.0000
  C   C1641     1.0  0.29847  0.61844  0.07240  1.0000
  C   C1642     1.0  0.31451  0.62722  0.06838  1.0000
  C   C1643     1.0  0.31830  0.63831  0.05108  1.0000
  C   C1644     1.0  0.30599  0.64011  0.03776  1.0000
  P   P55       1.0  0.34008  0.64775  0.04544  1.0000
  C   C1645     1.0  0.34054  0.66677  0.02638  1.0000
  C   C1646     1.0  0.34442  0.65795  0.06515  1.0000
  C   C1647     1.0  0.36596  0.66730  0.08307  1.0000
  C   C1648     1.0  0.36262  0.65879  0.06815  1.0000
  C   C1649     1.0  0.35695  0.62793  0.04032  1.0000
  C   C1650     1.0  0.36107  0.62337  0.02196  1.0000
  C   C1651     1.0  0.27295  0.53611  0.16980  1.0000
  C   C1652     1.0  0.37993  0.59481  0.03283  1.0000
  C   C1653     1.0  0.37605  0.59930  0.05110  1.0000
  C   C1654     1.0  0.36451  0.61572  0.05490  1.0000
  H   H1312     1.0  0.27405  0.89250  0.32094  1.0000
  H   H1313     1.0  0.27401  0.61320  0.06206  1.0000
  H   H1314     1.0  0.29569  0.60977  0.08571  1.0000
  H   H1315     1.0  0.32408  0.62510  0.07869  1.0000
  C   C1655     1.0  0.28912  0.52357  0.16696  1.0000
  H   H1316     1.0  0.38004  0.66775  0.08554  1.0000
  H   H1317     1.0  0.37419  0.65288  0.05901  1.0000
  H   H1318     1.0  0.31243  0.67930  0.03409  1.0000
  C   C1656     1.0  0.31486  0.49733  0.12325  1.0000
  C   C1657     1.0  0.25460  0.51070  0.17230  1.0000
  H   H1319     1.0  0.38874  0.58200  0.02989  1.0000
  H   H1320     1.0  0.38188  0.58993  0.06238  1.0000
  H   H1321     1.0  0.36126  0.61861  0.06926  1.0000
  C   C1658     1.0  0.32271  0.87913  0.30127  1.0000
  C   C1659     1.0  0.48447  0.87691  0.22392  1.0000
  C   C1660     1.0  0.39746  0.72114  0.00562  1.0000
  H   H1322     1.0  0.44070  0.50922  0.15606  1.0000
  H   H1323     1.0  0.34448  0.52268  0.09309  1.0000
  C   C1661     1.0  0.42972  0.76026  0.01549  1.0000
  H   H1324     1.0  0.26044  0.54438  0.00513  1.0000
  H   H1325     1.0  0.40068  0.66805  0.16382  1.0000
  C   C1662     1.0  0.47171  0.54027  0.12703  1.0000
  C   C1663     1.0  0.37219  0.89155  0.30646  1.0000
  H   H1326     1.0  0.42096  0.73444  0.26222  1.0000
  H   H1327     1.0  0.47614  0.89659  0.30734  1.0000
  H   H1328     1.0  0.46895  0.56712  0.10957  1.0000
  C   C1664     1.0  0.30047  0.57725  0.02222  1.0000
  C   C1665     1.0  0.39909  0.56107  0.15599  1.0000
  C   C1666     1.0  0.44739  0.90183  0.30321  1.0000
  H   H1329     1.0  0.47817  0.88268  0.18155  1.0000
  H   H1330     1.0  0.45203  0.91242  0.18348  1.0000
  H   H1331     1.0  0.48727  0.82104  0.13108  1.0000
  H   H1332     1.0  0.46475  0.93651  0.29202  1.0000
  H   H1333     1.0  0.36951  0.65965  0.01622  1.0000
  C   C1667     1.0  0.32117  0.49871  0.14020  1.0000
  C   C1668     1.0  0.42560  0.74511  0.25123  1.0000
  C   C1669     1.0  0.32498  0.58855  0.04290  1.0000
  H   H1334     1.0  0.45036  0.61141  0.99825  1.0000
  H   H1335     1.0  0.30880  0.64821  0.02425  1.0000
  H   H1336     1.0  0.31545  0.66616  0.07463  1.0000
  C   C1670     1.0  0.44927  0.91128  0.14437  1.0000
  C   C1671     1.0  0.33558  0.50947  0.13997  1.0000
  C   C1672     1.0  0.32959  0.86031  0.30020  1.0000
  C   C1673     1.0  0.46342  0.91648  0.13025  1.0000
  H   H1337     1.0  0.41990  0.54876  0.09898  1.0000
  H   H1338     1.0  0.47781  0.61662  0.12574  1.0000
  C   C1674     1.0  0.25582  0.55844  0.02997  1.0000
  C   C1675     1.0  0.41979  0.87583  0.20725  1.0000
  H   H1339     1.0  0.48822  0.89422  0.26979  1.0000
  C   C1676     1.0  0.46283  0.93501  0.12151  1.0000
  C   C1677     1.0  0.44595  0.65576  0.14786  1.0000
  H   H1340     1.0  0.26569  0.54864  0.03726  1.0000
  H   H1341     1.0  0.45491  0.64378  0.14299  1.0000
  H   H1342     1.0  0.42249  0.95383  0.14468  1.0000
  C   C1678     1.0  0.24625  0.57384  0.03840  1.0000
  C   C1679     1.0  0.42860  0.83053  0.03745  1.0000
  H   H1343     1.0  0.45991  0.56168  0.00528  1.0000
  H   H1344     1.0  0.30327  0.50330  0.19876  1.0000
  C   C1680     1.0  0.47548  0.78387  0.15653  1.0000
  C   C1681     1.0  0.46298  0.77181  0.16565  1.0000
  C   C1682     1.0  0.46393  0.76405  0.18436  1.0000
  C   C1683     1.0  0.47762  0.76863  0.19377  1.0000
  P   P56       1.0  0.44796  0.74813  0.19610  1.0000
  C   C1684     1.0  0.43927  0.75406  0.21928  1.0000
  C   C1685     1.0  0.42870  0.75080  0.18277  1.0000
  C   C1686     1.0  0.41260  0.76311  0.18722  1.0000
  C   C1687     1.0  0.39807  0.76552  0.17638  1.0000
  C   C1688     1.0  0.39953  0.75580  0.16098  1.0000
  C   C1689     1.0  0.41563  0.74379  0.15628  1.0000
  C   C1690     1.0  0.43022  0.74141  0.16700  1.0000
  C   C1691     1.0  0.43344  0.74024  0.23363  1.0000
  C   C1692     1.0  0.42914  0.77760  0.24033  1.0000
  C   C1693     1.0  0.43716  0.77276  0.22282  1.0000
  C   C1694     1.0  0.45903  0.72406  0.19768  1.0000
  C   C1695     1.0  0.40685  0.64301  0.03611  1.0000
  C   C1696     1.0  0.35754  0.68400  0.99977  1.0000
  C   C1697     1.0  0.45724  0.69080  0.19826  1.0000
  C   C1698     1.0  0.44869  0.70937  0.19734  1.0000
  C   C1699     1.0  0.41521  0.66937  0.15960  1.0000
  C   C1700     1.0  0.42915  0.76921  0.03124  1.0000
  H   H1345     1.0  0.47430  0.79004  0.14223  1.0000
  H   H1346     1.0  0.45245  0.76892  0.15803  1.0000
  H   H1347     1.0  0.31352  0.70557  0.00834  1.0000
  H   H1348     1.0  0.41130  0.77126  0.19872  1.0000
  H   H1349     1.0  0.38589  0.77545  0.17953  1.0000
  H   H1350     1.0  0.38835  0.75795  0.15245  1.0000
  H   H1351     1.0  0.41703  0.73665  0.14407  1.0000
  H   H1352     1.0  0.44284  0.73260  0.16269  1.0000
  H   H1353     1.0  0.42729  0.79214  0.24282  1.0000
  H   H1354     1.0  0.44130  0.78373  0.21198  1.0000
  H   H1355     1.0  0.45228  0.84762  0.15080  1.0000
  H   H1356     1.0  0.44922  0.67959  0.19766  1.0000
  H   H1357     1.0  0.43399  0.71219  0.19635  1.0000
  H   H1358     1.0  0.47381  0.60437  0.09569  1.0000
  H   H1359     1.0  0.32336  0.50103  0.22335  1.0000
  C   C1701     1.0  0.47567  0.67157  0.02934  1.0000
  C   C1702     1.0  0.43392  0.94340  0.14065  1.0000
  C   C1703     1.0  0.47630  0.70503  0.02182  1.0000
  C   C1704     1.0  0.43061  0.54409  0.13520  1.0000
  H   H1360     1.0  0.38689  0.56809  0.16354  1.0000
  C   C1705     1.0  0.43995  0.88789  0.18010  1.0000
  C   C1706     1.0  0.31122  0.57790  0.05195  1.0000
  H   H1361     1.0  0.43462  0.72577  0.23122  1.0000
  H   H1362     1.0  0.48952  0.73311  0.15948  1.0000
  C   C1707     1.0  0.45651  0.67423  0.02924  1.0000
  H   H1363     1.0  0.43649  0.91444  0.21571  1.0000
  H   H1364     1.0  0.38594  0.69117  0.04702  1.0000
  C   C1708     1.0  0.41246  0.66972  0.00478  1.0000
  H   H1365     1.0  0.41791  0.57646  0.16559  1.0000
  C   C1709     1.0  0.32497  0.68024  0.02437  1.0000
  H   H1366     1.0  0.44456  0.70221  0.15127  1.0000
  C   C1710     1.0  0.41654  0.56586  0.15705  1.0000
  H   H1367     1.0  0.32160  0.68085  0.10110  1.0000
  C   C1711     1.0  0.32345  0.50568  0.10632  1.0000
  C   C1712     1.0  0.44018  0.68853  0.15239  1.0000
  C   C1713     1.0  0.42742  0.65390  0.15437  1.0000
  H   H1368     1.0  0.48815  0.69905  0.16226  1.0000
  C   C1714     1.0  0.45971  0.83767  0.03700  1.0000
  C   C1715     1.0  0.42055  0.88427  0.13681  1.0000
  C   C1716     1.0  0.43271  0.54697  0.08977  1.0000
  H   H1369     1.0  0.46223  0.86631  0.21423  1.0000
  P   P57       1.0  0.42223  0.69572  0.02493  1.0000
  C   C1717     1.0  0.42911  0.90497  0.31169  1.0000
  H   H1370     1.0  0.42305  0.74780  0.01651  1.0000
  H   H1371     1.0  0.46530  0.76994  0.05347  1.0000
  C   C1718     1.0  0.39739  0.54743  0.14497  1.0000
  C   C1719     1.0  0.47794  0.71973  0.19961  1.0000
  C   C1720     1.0  0.41415  0.85518  0.12829  1.0000
  C   C1721     1.0  0.43510  0.84917  0.05999  1.0000
  H   H1372     1.0  0.33917  0.85632  0.28823  1.0000
  C   C1722     1.0  0.31117  0.88428  0.31720  1.0000
  H   H1373     1.0  0.41651  0.89911  0.13724  1.0000
  C   C1723     1.0  0.41312  0.53870  0.13490  1.0000
  C   C1724     1.0  0.43444  0.92489  0.14939  1.0000
  C   C1725     1.0  0.35118  0.67519  0.09496  1.0000
  H   H1374     1.0  0.40536  0.84745  0.12246  1.0000
  C   C1726     1.0  0.42336  0.76380  0.25454  1.0000
  H   H1375     1.0  0.47379  0.93895  0.11065  1.0000
  H   H1376     1.0  0.33462  0.59270  0.05090  1.0000
  H   H1377     1.0  0.44766  0.55439  0.04317  1.0000
  C   C1727     1.0  0.48786  0.76667  0.24317  1.0000
  C   C1728     1.0  0.47941  0.80872  0.00710  1.0000
  C   C1729     1.0  0.44704  0.69233  0.02529  1.0000
  C   C1730     1.0  0.44069  0.85542  0.14426  1.0000
  P   P58       1.0  0.47640  0.67565  0.13763  1.0000
  H   H1378     1.0  0.42218  0.76357  0.04454  1.0000
  C   C1731     1.0  0.47158  0.77178  0.25468  1.0000
  H   H1379     1.0  0.46265  0.76136  0.26096  1.0000
  H   H1380     1.0  0.47535  0.98328  0.31671  1.0000
  H   H1381     1.0  0.40812  0.84175  0.05850  1.0000
  C   C1732     1.0  0.32962  0.66620  0.07694  1.0000
  H   H1382     1.0  0.40222  0.62518  0.01668  1.0000
  S   S239      1.0  0.37495  0.83588  0.30780  1.0000
  H   H1383     1.0  0.46344  0.85414  0.05807  1.0000
  H   H1384     1.0  0.37580  0.60345  0.00408  1.0000
  C   C1733     1.0  0.47735  0.55756  0.11877  1.0000
  C   C1734     1.0  0.33815  0.51582  0.10618  1.0000
  C   C1735     1.0  0.36339  0.92497  0.30587  1.0000
  H   H1385     1.0  0.41565  0.89136  0.23082  1.0000
  C   C1736     1.0  0.47305  0.75660  0.05808  1.0000
  P   P59       1.0  0.45475  0.81552  0.01022  1.0000
  H   H1386     1.0  0.35380  0.90814  0.28826  1.0000
  P   P60       1.0  0.45077  0.53343  0.12141  1.0000
  C   C1737     1.0  0.32557  0.69521  0.00988  1.0000
  C   C1738     1.0  0.40951  0.87443  0.12878  1.0000
  C   C1739     1.0  0.48004  0.73899  0.13244  1.0000
  C   C1740     1.0  0.44731  0.82846  0.02991  1.0000
  C   C1741     1.0  0.41450  0.67389  0.02255  1.0000
  H   H1387     1.0  0.41391  0.66293  0.05195  1.0000
  C   C1742     1.0  0.46526  0.54414  0.06469  1.0000
  C   C1743     1.0  0.34411  0.51785  0.12301  1.0000
  C   C1744     1.0  0.47991  0.86694  0.27973  1.0000
  H   H1388     1.0  0.29118  0.57228  0.01439  1.0000
  H   H1389     1.0  0.38737  0.71904  0.01783  1.0000
  H   H1390     1.0  0.33706  0.60174  0.01662  1.0000
  H   H1391     1.0  0.41154  0.52814  0.12644  1.0000
  C   C1745     1.0  0.32625  0.59382  0.02356  1.0000
  H   H1392     1.0  0.41196  0.69880  0.16209  1.0000
  H   H1393     1.0  0.41705  0.76767  0.26807  1.0000
  H   H1394     1.0  0.35383  0.68168  0.10660  1.0000
  S   S240      1.0  0.42389  0.58443  0.00327  1.0000
  H   H1395     1.0  0.42321  0.92122  0.16005  1.0000
  H   H1396     1.0  0.43047  0.85666  0.07195  1.0000
  C   C1746     1.0  0.41176  0.66034  0.03821  1.0000
  H   H1397     1.0  0.46229  0.50220  0.09880  1.0000
  C   C1747     1.0  0.45715  0.70771  0.02144  1.0000
  H   H1398     1.0  0.31838  0.50468  0.09332  1.0000
  H   H1399     1.0  0.47409  0.83694  0.03107  1.0000
  C   C1748     1.0  0.47401  0.71220  0.11929  1.0000
  C   C1749     1.0  0.33302  0.67469  0.09187  1.0000
  C   C1750     1.0  0.47349  0.59718  0.15093  1.0000
  C   C1751     1.0  0.29218  0.51199  0.01891  1.0000
  H   H1400     1.0  0.27384  0.55095  0.16911  1.0000
  H   H1401     1.0  0.40503  0.63246  0.04814  1.0000
  C   C1752     1.0  0.47460  0.73148  0.11790  1.0000
  C   C1753     1.0  0.43437  0.90329  0.20821  1.0000
  H   H1402     1.0  0.30234  0.52896  0.16425  1.0000
  H   H1403     1.0  0.44555  0.56159  0.14754  1.0000
  C   C1754     1.0  0.28347  0.50595  0.00553  1.0000
  C   C1755     1.0  0.31387  0.58847  0.01314  1.0000
  C   C1756     1.0  0.45260  0.67304  0.14702  1.0000
  C   C1757     1.0  0.42159  0.68668  0.15861  1.0000
  C   C1758     1.0  0.46201  0.89914  0.31396  1.0000
  H   H1404     1.0  0.46890  0.70678  0.10827  1.0000
  H   H1405     1.0  0.43324  0.83078  0.13548  1.0000
  C   C1759     1.0  0.48020  0.59038  0.07102  1.0000
  C   C1760     1.0  0.34180  0.69700  0.99749  1.0000
  H   H1406     1.0  0.47803  0.89136  0.22239  1.0000
  H   H1407     1.0  0.47921  0.53412  0.08881  1.0000
  C   C1761     1.0  0.47555  0.86284  0.21938  1.0000
  H   H1408     1.0  0.44770  0.96283  0.11998  1.0000
  H   H1409     1.0  0.35575  0.93790  0.30011  1.0000
  C   C1762     1.0  0.38381  0.89172  0.31994  1.0000
  H   H1410     1.0  0.48625  0.73063  0.20016  1.0000
  C   C1763     1.0  0.28427  0.51037  0.03761  1.0000
  H   H1411     1.0  0.30900  0.63074  0.99975  1.0000
  H   H1412     1.0  0.47614  0.83341  0.21873  1.0000
  H   H1413     1.0  0.45551  0.95888  0.31528  1.0000
  C   C1764     1.0  0.26770  0.50268  0.04295  1.0000
  H   H1414     1.0  0.47513  0.64022  0.16408  1.0000
  H   H1415     1.0  0.39165  0.87866  0.32506  1.0000
  H   H1416     1.0  0.30669  0.89900  0.31822  1.0000
  C   C1765     1.0  0.25569  0.52968  0.17250  1.0000
  C   C1766     1.0  0.48886  0.80204  0.02265  1.0000
  H   H1417     1.0  0.29093  0.51503  0.04808  1.0000
  C   C1767     1.0  0.32459  0.84659  0.31484  1.0000
  C   C1768     1.0  0.47607  0.68666  0.20002  1.0000
  H   H1418     1.0  0.47846  0.51522  0.14628  1.0000
  H   H1419     1.0  0.47999  0.75397  0.13146  1.0000
  H   H1420     1.0  0.47493  0.90635  0.12591  1.0000
  C   C1769     1.0  0.48384  0.60166  0.08364  1.0000
  C   C1770     1.0  0.48220  0.86875  0.13832  1.0000
  C   C1771     1.0  0.45769  0.49650  0.11299  1.0000
  C   C1772     1.0  0.48207  0.58560  0.16512  1.0000
  C   C1773     1.0  0.37494  0.92519  0.31943  1.0000
  C   C1774     1.0  0.26679  0.49844  0.01079  1.0000
  H   H1421     1.0  0.26182  0.50171  0.05749  1.0000
  Fe  Fe120     1.0  0.24234  0.53667  0.12089  1.0000
  C   C1775     1.0  0.48257  0.52848  0.13946  1.0000
  H   H1422     1.0  0.33995  0.51186  0.15285  1.0000
  H   H1423     1.0  0.47786  0.54325  0.05495  1.0000
  S   S241      1.0  0.25077  0.57914  0.05998  1.0000
  H   H1424     1.0  0.33042  0.83207  0.31419  1.0000
  C   C1776     1.0  0.48999  0.94791  0.28068  1.0000
  C   C1777     1.0  0.48841  0.64498  0.16331  1.0000
  H   H1425     1.0  0.32856  0.99296  0.32198  1.0000
  C   C1778     1.0  0.48930  0.78807  0.16583  1.0000
  H   H1426     1.0  0.48947  0.57908  0.04528  1.0000
  C   C1779     1.0  0.31710  0.49584  0.19676  1.0000
  C   C1780     1.0  0.49033  0.78050  0.18449  1.0000
  C   C1781     1.0  0.48960  0.65840  0.07819  1.0000
  C   C1782     1.0  0.25898  0.49632  0.02966  1.0000
  P   P61       1.0  0.40984  0.99107  0.55350  1.0000
  S   S242      1.0  0.34267  0.97727  0.63676  1.0000
  S   S243      1.0  0.30984  0.98156  0.42119  1.0000
  Fe  Fe121     1.0  0.32931  0.85233  0.45602  1.0000
  S   S244      1.0  0.31793  0.88186  0.44626  1.0000
  S   S245      1.0  0.32272  0.84364  0.48724  1.0000
  Fe  Fe122     1.0  0.34270  0.84396  0.41551  1.0000
  S   S246      1.0  0.33180  0.87280  0.40336  1.0000
  S   S247      1.0  0.35888  0.82324  0.39665  1.0000
  Fe  Fe123     1.0  0.34406  0.88187  0.42621  1.0000
  S   S248      1.0  0.36188  0.90496  0.41958  1.0000
  Fe  Fe124     1.0  0.30668  0.86953  0.42450  1.0000
  S   S249      1.0  0.27838  0.88163  0.41641  1.0000
  S   S250      1.0  0.35652  0.85324  0.43756  1.0000
  S   S251      1.0  0.31650  0.83973  0.43527  1.0000
  Fe  Fe125     1.0  0.32303  0.85315  0.61278  1.0000
  S   S252      1.0  0.35398  0.84665  0.60633  1.0000
  H   H1427     1.0  0.26449  0.84885  0.47959  1.0000
  Fe  Fe126     1.0  0.32391  0.89445  0.60129  1.0000
  S   S253      1.0  0.35459  0.89127  0.59376  1.0000
  S   S254      1.0  0.30794  0.92303  0.59627  1.0000
  Fe  Fe127     1.0  0.35036  0.86678  0.58006  1.0000
  S   S255      1.0  0.36489  0.86298  0.55083  1.0000
  S   S256      1.0  0.31952  0.87148  0.58575  1.0000
  C   C1783     1.0  0.25963  0.86845  0.42253  1.0000
  C   C1784     1.0  0.26201  0.84979  0.43085  1.0000
  H   H1428     1.0  0.37197  0.99135  0.64819  1.0000
  H   H1429     1.0  0.42001  0.86970  0.34492  1.0000
  C   C1785     1.0  0.28967  0.96415  0.36419  1.0000
  C   C1786     1.0  0.27723  0.96762  0.39631  1.0000
  H   H1430     1.0  0.27563  0.84306  0.43348  1.0000
  C   C1787     1.0  0.38409  0.98878  0.65543  1.0000
  H   H1431     1.0  0.45919  0.85628  0.38657  1.0000
  C   C1788     1.0  0.33426  0.85098  0.50402  1.0000
  C   C1789     1.0  0.35308  0.85304  0.50059  1.0000
  C   C1790     1.0  0.36223  0.85672  0.51507  1.0000
  C   C1791     1.0  0.35264  0.85891  0.53290  1.0000
  C   C1792     1.0  0.33371  0.85737  0.53612  1.0000
  C   C1793     1.0  0.32465  0.85323  0.52181  1.0000
  H   H1432     1.0  0.36072  0.85109  0.48702  1.0000
  H   H1433     1.0  0.37692  0.85745  0.51260  1.0000
  H   H1434     1.0  0.32614  0.85888  0.54974  1.0000
  H   H1435     1.0  0.31011  0.85171  0.52451  1.0000
  C   C1794     1.0  0.28236  0.83110  0.62203  1.0000
  C   C1795     1.0  0.27283  0.84558  0.61071  1.0000
  H   H1436     1.0  0.28022  0.85637  0.60243  1.0000
  C   C1796     1.0  0.32443  0.96026  0.42118  1.0000
  C   C1797     1.0  0.34353  0.95964  0.42078  1.0000
  C   C1798     1.0  0.35509  0.94260  0.42025  1.0000
  C   C1799     1.0  0.34751  0.92617  0.42013  1.0000
  C   C1800     1.0  0.32846  0.92672  0.42044  1.0000
  C   C1801     1.0  0.31691  0.94375  0.42102  1.0000
  H   H1437     1.0  0.34953  0.97229  0.42030  1.0000
  H   H1438     1.0  0.36985  0.94213  0.42002  1.0000
  H   H1439     1.0  0.32261  0.91408  0.41998  1.0000
  H   H1440     1.0  0.30216  0.94401  0.42152  1.0000
  C   C1802     1.0  0.33147  0.96259  0.62650  1.0000
  C   C1803     1.0  0.33563  0.94319  0.63093  1.0000
  C   C1804     1.0  0.32813  0.93101  0.62185  1.0000
  C   C1805     1.0  0.31629  0.93822  0.60845  1.0000
  C   C1806     1.0  0.31172  0.95763  0.60431  1.0000
  C   C1807     1.0  0.31922  0.96983  0.61345  1.0000
  H   H1441     1.0  0.37744  0.99290  0.49827  1.0000
  H   H1442     1.0  0.33178  0.91605  0.62504  1.0000
  H   H1443     1.0  0.30271  0.96319  0.59378  1.0000
  H   H1444     1.0  0.35028  0.98270  0.59226  1.0000
  C   C1808     1.0  0.24953  0.84981  0.48226  1.0000
  C   C1809     1.0  0.37997  0.81706  0.34278  1.0000
  C   C1810     1.0  0.37565  0.81421  0.36239  1.0000
  C   C1811     1.0  0.36521  0.82836  0.37206  1.0000
  C   C1812     1.0  0.35977  0.84575  0.36190  1.0000
  C   C1813     1.0  0.36379  0.84847  0.34219  1.0000
  C   C1814     1.0  0.25823  0.89322  0.36723  1.0000
  H   H1445     1.0  0.37998  0.80073  0.37004  1.0000
  H   H1446     1.0  0.35220  0.85697  0.36915  1.0000
  P   P62       1.0  0.25158  0.90542  0.63728  1.0000
  P   P63       1.0  0.30651  0.80103  0.55727  1.0000
  C   C1815     1.0  0.30779  0.84814  0.37893  1.0000
  C   C1816     1.0  0.29202  0.85723  0.37115  1.0000
  H   H1447     1.0  0.29482  0.76415  0.55471  1.0000
  C   C1817     1.0  0.25915  0.96944  0.39182  1.0000
  H   H1448     1.0  0.30258  0.83627  0.57340  1.0000
  C   C1818     1.0  0.30691  0.83171  0.39153  1.0000
  C   C1819     1.0  0.39998  0.93092  0.35146  1.0000
  C   C1820     1.0  0.24187  0.87702  0.41916  1.0000
  C   C1821     1.0  0.39641  0.93254  0.37069  1.0000
  C   C1822     1.0  0.32662  0.79844  0.58771  1.0000
  C   C1823     1.0  0.39434  0.87738  0.47446  1.0000
  S   S257      1.0  0.30627  0.82927  0.62344  1.0000
  H   H1449     1.0  0.43726  0.95353  0.65831  1.0000
  H   H1450     1.0  0.34512  0.93753  0.64100  1.0000
  C   C1824     1.0  0.27269  0.81724  0.63278  1.0000
  C   C1825     1.0  0.28796  0.76921  0.56748  1.0000
  C   C1826     1.0  0.27556  0.75840  0.57909  1.0000
  C   C1827     1.0  0.45384  0.95180  0.56593  1.0000
  C   C1828     1.0  0.31235  0.92891  0.47143  1.0000
  C   C1829     1.0  0.40310  0.94705  0.33873  1.0000
  H   H1451     1.0  0.38777  0.90519  0.50898  1.0000
  H   H1452     1.0  0.34331  0.77006  0.49219  1.0000
  C   C1830     1.0  0.36465  0.95631  0.58476  1.0000
  H   H1453     1.0  0.26147  0.82733  0.39267  1.0000
  C   C1831     1.0  0.24669  0.83977  0.43572  1.0000
  C   C1832     1.0  0.29345  0.83804  0.56270  1.0000
  H   H1454     1.0  0.36620  0.95613  0.45348  1.0000
  Fe  Fe128     1.0  0.35525  0.87167  0.62079  1.0000
  C   C1833     1.0  0.29100  0.78644  0.57225  1.0000
  H   H1455     1.0  0.35154  0.90353  0.52057  1.0000
  H   H1456     1.0  0.28262  0.80639  0.59219  1.0000
  H   H1457     1.0  0.30818  0.97916  0.52839  1.0000
  H   H1458     1.0  0.25440  0.98111  0.52906  1.0000
  C   C1834     1.0  0.39136  0.95203  0.48994  1.0000
  C   C1835     1.0  0.37604  0.98623  0.57491  1.0000
  C   C1836     1.0  0.25368  0.81783  0.63253  1.0000
  S   S258      1.0  0.32454  0.87665  0.62916  1.0000
  H   H1459     1.0  0.41537  0.96588  0.48945  1.0000
  H   H1460     1.0  0.36894  0.81018  0.59110  1.0000
  C   C1837     1.0  0.33969  0.98322  0.37312  1.0000
  H   H1461     1.0  0.28829  0.89642  0.57635  1.0000
  C   C1838     1.0  0.26578  0.76486  0.59531  1.0000
  H   H1462     1.0  0.26269  0.93756  0.41949  1.0000
  H   H1463     1.0  0.45720  0.94125  0.57752  1.0000
  C   C1839     1.0  0.28232  0.85518  0.55935  1.0000
  C   C1840     1.0  0.34209  0.80067  0.59581  1.0000
  C   C1841     1.0  0.26600  0.95871  0.62662  1.0000
  C   C1842     1.0  0.25444  0.90274  0.61278  1.0000
  C   C1843     1.0  0.33597  0.77579  0.50451  1.0000
  C   C1844     1.0  0.25361  0.84606  0.61027  1.0000
  C   C1845     1.0  0.37658  0.95847  0.46167  1.0000
  C   C1846     1.0  0.27446  0.83304  0.38869  1.0000
  H   H1464     1.0  0.34058  0.81675  0.54284  1.0000
  H   H1465     1.0  0.26209  0.88844  0.38110  1.0000
  H   H1466     1.0  0.36764  0.82064  0.55732  1.0000
  H   H1467     1.0  0.38534  0.98005  0.52962  1.0000
  H   H1468     1.0  0.34304  0.90365  0.55444  1.0000
  C   C1847     1.0  0.34629  0.91647  0.54571  1.0000
  P   P64       1.0  0.36122  0.93301  0.49007  1.0000
  C   C1848     1.0  0.28148  0.89721  0.65841  1.0000
  H   H1469     1.0  0.40572  0.87570  0.50033  1.0000
  H   H1470     1.0  0.31578  0.98478  0.61014  1.0000
  C   C1849     1.0  0.37356  0.91085  0.48433  1.0000
  H   H1471     1.0  0.39177  0.95129  0.39168  1.0000
  H   H1472     1.0  0.34124  0.93296  0.56856  1.0000
  C   C1850     1.0  0.32929  0.92440  0.47858  1.0000
  C   C1851     1.0  0.33952  0.93867  0.48054  1.0000
  H   H1473     1.0  0.26179  0.87124  0.54308  1.0000
  C   C1852     1.0  0.46657  0.95403  0.54982  1.0000
  H   H1474     1.0  0.27250  0.96744  0.61488  1.0000
  H   H1475     1.0  0.34705  0.96323  0.33296  1.0000
  C   C1853     1.0  0.40136  0.96459  0.34495  1.0000
  P   P65       1.0  0.24865  0.98631  0.56906  1.0000
  C   C1854     1.0  0.39473  0.95011  0.37686  1.0000
  C   C1855     1.0  0.38602  0.90047  0.49603  1.0000
  C   C1856     1.0  0.27543  0.84922  0.37573  1.0000
  H   H1476     1.0  0.27992  0.80605  0.64155  1.0000
  H   H1477     1.0  0.41453  0.84132  0.36698  1.0000
  C   C1857     1.0  0.35122  0.91645  0.52645  1.0000
  C   C1858     1.0  0.38225  0.87265  0.38765  1.0000
  C   C1859     1.0  0.39331  0.85572  0.38507  1.0000
  C   C1860     1.0  0.24703  0.90435  0.33185  1.0000
  C   C1861     1.0  0.47183  0.84950  0.34105  1.0000
  C   C1862     1.0  0.39908  0.88824  0.35995  1.0000
  C   C1863     1.0  0.38472  0.88873  0.37491  1.0000
  H   H1478     1.0  0.26961  0.96381  0.34561  1.0000
  H   H1479     1.0  0.39578  0.97975  0.36881  1.0000
  C   C1864     1.0  0.43213  0.97669  0.55207  1.0000
  C   C1865     1.0  0.25941  0.90400  0.57369  1.0000
  H   H1480     1.0  0.44695  0.84655  0.36006  1.0000
  C   C1866     1.0  0.25418  0.92936  0.63954  1.0000
  H   H1481     1.0  0.24526  0.87426  0.46201  1.0000
  H   H1482     1.0  0.33762  0.92550  0.37858  1.0000
  C   C1867     1.0  0.29971  0.90550  0.37451  1.0000
  H   H1483     1.0  0.45690  0.89803  0.64483  1.0000
  H   H1484     1.0  0.24639  0.80711  0.64114  1.0000
  H   H1485     1.0  0.37147  0.87318  0.39938  1.0000
  H   H1486     1.0  0.39093  0.84319  0.39472  1.0000
  H   H1487     1.0  0.26234  0.86425  0.64178  1.0000
  H   H1488     1.0  0.47208  0.96927  0.52235  1.0000
  H   H1489     1.0  0.37528  0.90138  0.37680  1.0000
  H   H1490     1.0  0.39522  0.92041  0.38109  1.0000
  S   S259      1.0  0.37760  0.87395  0.63880  1.0000
  C   C1868     1.0  0.30612  0.87056  0.33207  1.0000
  H   H1491     1.0  0.34287  0.98061  0.38734  1.0000
  C   C1869     1.0  0.25653  0.96761  0.37349  1.0000
  H   H1492     1.0  0.27339  0.74507  0.57539  1.0000
  H   H1493     1.0  0.43747  0.90317  0.35675  1.0000
  P   P66       1.0  0.29385  0.87768  0.35383  1.0000
  C   C1870     1.0  0.26937  0.84335  0.53554  1.0000
  C   C1871     1.0  0.33195  0.95749  0.47647  1.0000
  C   C1872     1.0  0.34541  0.93297  0.55365  1.0000
  C   C1873     1.0  0.48597  0.85990  0.37104  1.0000
  C   C1874     1.0  0.29271  0.82342  0.55236  1.0000
  C   C1875     1.0  0.34087  0.81203  0.55763  1.0000
  H   H1494     1.0  0.38168  0.93239  0.57447  1.0000
  H   H1495     1.0  0.27886  0.81473  0.53147  1.0000
  H   H1496     1.0  0.35446  0.95700  0.36569  1.0000
  H   H1497     1.0  0.41355  0.98250  0.45732  1.0000
  H   H1498     1.0  0.26140  0.90471  0.55858  1.0000
  C   C1876     1.0  0.27037  0.97317  0.56092  1.0000
  C   C1877     1.0  0.27381  0.95368  0.56567  1.0000
  C   C1878     1.0  0.28937  0.94349  0.55677  1.0000
  C   C1879     1.0  0.30156  0.95261  0.54319  1.0000
  C   C1880     1.0  0.29864  0.97207  0.53887  1.0000
  C   C1881     1.0  0.28314  0.98234  0.54772  1.0000
  H   H1499     1.0  0.30434  0.92619  0.39091  1.0000
  H   H1500     1.0  0.26318  0.85536  0.36942  1.0000
  H   H1501     1.0  0.29206  0.92846  0.56042  1.0000
  H   H1502     1.0  0.31326  0.94454  0.53599  1.0000
  H   H1503     1.0  0.26000  0.84549  0.52507  1.0000
  C   C1882     1.0  0.31049  0.91718  0.38048  1.0000
  C   C1883     1.0  0.45839  0.89976  0.33322  1.0000
  H   H1504     1.0  0.40208  0.86429  0.47078  1.0000
  C   C1884     1.0  0.37210  0.90464  0.46733  1.0000
  C   C1885     1.0  0.38962  0.97041  0.45357  1.0000
  H   H1505     1.0  0.26446  0.94624  0.57595  1.0000
  C   C1886     1.0  0.32745  0.77306  0.53810  1.0000
  C   C1887     1.0  0.35556  0.93293  0.51500  1.0000
  C   C1888     1.0  0.31499  0.96194  0.46939  1.0000
  C   C1889     1.0  0.37713  0.94950  0.48006  1.0000
  C   C1890     1.0  0.38227  0.88783  0.46257  1.0000
  C   C1891     1.0  0.33722  0.90452  0.36069  1.0000
  H   H1506     1.0  0.33922  0.96877  0.47853  1.0000
  H   H1507     1.0  0.40568  0.95084  0.55685  1.0000
  H   H1508     1.0  0.39243  0.94470  0.50388  1.0000
  H   H1509     1.0  0.33444  0.90978  0.48237  1.0000
  H   H1510     1.0  0.32087  0.85354  0.37499  1.0000
  H   H1511     1.0  0.36321  0.91279  0.45767  1.0000
  C   C1892     1.0  0.39638  0.88381  0.49107  1.0000
  H   H1512     1.0  0.38080  0.88296  0.44958  1.0000
  C   C1893     1.0  0.29019  0.82432  0.39663  1.0000
  H   H1513     1.0  0.30484  0.91782  0.46932  1.0000
  H   H1514     1.0  0.46976  0.89769  0.34151  1.0000
  C   C1894     1.0  0.30526  0.94767  0.46672  1.0000
  C   C1895     1.0  0.40978  0.87093  0.35711  1.0000
  C   C1896     1.0  0.27454  0.89906  0.58373  1.0000
  C   C1897     1.0  0.38022  0.94743  0.57465  1.0000
  C   C1898     1.0  0.35702  0.80831  0.58480  1.0000
  C   C1899     1.0  0.27208  0.89823  0.60322  1.0000
  H   H1515     1.0  0.34833  0.96240  0.54843  1.0000
  C   C1900     1.0  0.40679  0.85476  0.36956  1.0000
  H   H1516     1.0  0.27958  0.96820  0.41049  1.0000
  C   C1901     1.0  0.26913  0.88991  0.64923  1.0000
  C   C1902     1.0  0.26836  0.78217  0.59990  1.0000
  C   C1903     1.0  0.26259  0.94083  0.62440  1.0000
  C   C1904     1.0  0.32656  0.89259  0.35494  1.0000
  C   C1905     1.0  0.32923  0.91675  0.37356  1.0000
  C   C1906     1.0  0.39705  0.96614  0.36401  1.0000
  H   H1517     1.0  0.42699  0.96109  0.57968  1.0000
  H   H1518     1.0  0.40052  0.83817  0.64517  1.0000
  C   C1907     1.0  0.44012  0.90287  0.34177  1.0000
  H   H1519     1.0  0.32633  0.80223  0.48911  1.0000
  H   H1520     1.0  0.33330  0.88282  0.34550  1.0000
  C   C1908     1.0  0.37384  0.83410  0.33251  1.0000
  C   C1909     1.0  0.44506  0.97885  0.53594  1.0000
  H   H1521     1.0  0.25607  0.75654  0.60418  1.0000
  C   C1910     1.0  0.46088  0.85012  0.35834  1.0000
  H   H1522     1.0  0.25108  0.79010  0.56402  1.0000
  C   C1911     1.0  0.24967  0.93600  0.65701  1.0000
  H   H1523     1.0  0.24627  0.85719  0.60154  1.0000
  H   H1524     1.0  0.35862  0.86150  0.33437  1.0000
  H   H1525     1.0  0.45776  0.93240  0.63849  1.0000
  C   C1912     1.0  0.31708  0.79094  0.53638  1.0000
  H   H1526     1.0  0.24742  0.81853  0.58014  1.0000
  H   H1527     1.0  0.24860  0.82536  0.44217  1.0000
  H   H1528     1.0  0.38900  0.97745  0.43944  1.0000
  C   C1913     1.0  0.34205  0.97349  0.34248  1.0000
  C   C1914     1.0  0.35633  0.81414  0.56576  1.0000
  H   H1529     1.0  0.31923  0.82473  0.39734  1.0000
  H   H1530     1.0  0.26696  0.93594  0.61095  1.0000
  H   H1531     1.0  0.30629  0.96464  0.38603  1.0000
  C   C1915     1.0  0.30760  0.89307  0.36163  1.0000
  H   H1532     1.0  0.38728  0.80568  0.33551  1.0000
  C   C1916     1.0  0.24856  0.93636  0.42561  1.0000
  H   H1533     1.0  0.31528  0.79259  0.59661  1.0000
  H   H1534     1.0  0.34231  0.79686  0.61073  1.0000
  C   C1917     1.0  0.29240  0.96542  0.38248  1.0000
  C   C1918     1.0  0.26107  0.96536  0.64390  1.0000
  C   C1919     1.0  0.46219  0.96756  0.53485  1.0000
  C   C1920     1.0  0.46786  0.85548  0.37328  1.0000
  H   H1535     1.0  0.29239  0.95118  0.46071  1.0000
  C   C1921     1.0  0.40449  0.96386  0.48174  1.0000
  C   C1922     1.0  0.39385  0.95792  0.56483  1.0000
  H   H1536     1.0  0.47983  0.94524  0.54891  1.0000
  C   C1923     1.0  0.28019  0.82602  0.53912  1.0000
  C   C1924     1.0  0.40350  0.97320  0.46363  1.0000
  H   H1537     1.0  0.28946  0.81181  0.40669  1.0000
  C   C1925     1.0  0.33665  0.76542  0.52221  1.0000
  H   H1538     1.0  0.30957  0.97646  0.46555  1.0000
  H   H1539     1.0  0.28540  0.90598  0.38044  1.0000
  C   C1926     1.0  0.27077  0.87040  0.64942  1.0000
  H   H1540     1.0  0.46629  0.84572  0.32933  1.0000
  C   C1927     1.0  0.32594  0.80404  0.56850  1.0000
  H   H1541     1.0  0.35420  0.94816  0.59252  1.0000
  H   H1542     1.0  0.30148  0.96232  0.35356  1.0000
  H   H1543     1.0  0.30957  0.84068  0.34194  1.0000
  C   C1928     1.0  0.27036  0.85791  0.54571  1.0000
  H   H1544     1.0  0.28307  0.86635  0.56732  1.0000
  H   H1545     1.0  0.26053  0.78741  0.61225  1.0000
  C   C1929     1.0  0.27174  0.96502  0.35974  1.0000
  C   C1930     1.0  0.42535  0.90532  0.33108  1.0000
  C   C1931     1.0  0.34619  0.96995  0.36088  1.0000
  H   H1546     1.0  0.34461  0.75163  0.52363  1.0000
  C   C1932     1.0  0.31706  0.80147  0.51860  1.0000
  H   H1547     1.0  0.35179  0.90388  0.35546  1.0000
  C   C1933     1.0  0.35427  0.94958  0.52298  1.0000
  H   H1548     1.0  0.35676  0.96264  0.51428  1.0000
  P   P67       1.0  0.40191  0.90856  0.34263  1.0000
  H   H1549     1.0  0.32867  0.76514  0.55178  1.0000
  H   H1550     1.0  0.24969  0.82536  0.50272  1.0000
  C   C1934     1.0  0.34939  0.94953  0.54229  1.0000
  C   C1935     1.0  0.32629  0.79384  0.50274  1.0000
  C   C1936     1.0  0.39216  0.97733  0.56552  1.0000
  H   H1551     1.0  0.25555  0.90798  0.43831  1.0000
  C   C1937     1.0  0.27085  0.88989  0.35125  1.0000
  H   H1552     1.0  0.31059  0.81584  0.51683  1.0000
  C   C1938     1.0  0.28090  0.79292  0.58845  1.0000
  H   H1553     1.0  0.28403  0.89478  0.61074  1.0000
  C   C1939     1.0  0.36244  0.97573  0.58465  1.0000
  C   C1940     1.0  0.43671  0.96309  0.56709  1.0000
  H   H1554     1.0  0.26371  0.97926  0.64550  1.0000
  H   H1555     1.0  0.40341  0.97704  0.33499  1.0000
  C   C1941     1.0  0.24404  0.83210  0.62128  1.0000
  C   C1942     1.0  0.44851  0.92664  0.65016  1.0000
  C   C1943     1.0  0.24458  0.91951  0.43635  1.0000
  C   C1944     1.0  0.26500  0.89539  0.33352  1.0000
  H   H1556     1.0  0.28150  0.91212  0.65784  1.0000
  C   C1945     1.0  0.31281  0.85162  0.33066  1.0000
  C   C1946     1.0  0.24278  0.80273  0.55873  1.0000
  C   C1947     1.0  0.24176  0.90826  0.58315  1.0000
  C   C1948     1.0  0.39170  0.99197  0.52222  1.0000
  C   C1949     1.0  0.33166  0.99041  0.33628  1.0000
  H   H1557     1.0  0.24279  0.96834  0.36966  1.0000
  C   C1950     1.0  0.24352  0.98850  0.42590  1.0000
  H   H1558     1.0  0.44200  0.98917  0.52414  1.0000
  H   H1559     1.0  0.42612  0.99219  0.58792  1.0000
  C   C1951     1.0  0.24108  0.83651  0.49529  1.0000
  C   C1952     1.0  0.24076  0.81871  0.56778  1.0000
  H   H1560     1.0  0.33777  0.99418  0.52917  1.0000
  C   C1953     1.0  0.44808  0.90728  0.65376  1.0000
  C   C1954     1.0  0.39787  0.82923  0.65832  1.0000
  H   H1561     1.0  0.25618  0.76345  0.64372  1.0000
  H   H1562     1.0  0.37108  0.82465  0.65295  1.0000
  C   C1955     1.0  0.25289  0.95401  0.65910  1.0000
  C   C1956     1.0  0.24250  0.76588  0.65143  1.0000
  C   C1957     1.0  0.48991  0.85388  0.33878  1.0000
  C   C1958     1.0  0.28383  0.85845  0.65918  1.0000
  H   H1563     1.0  0.28514  0.84345  0.65895  1.0000
  C   C1959     1.0  0.38561  0.90860  0.32628  1.0000
  Fe  Fe129     1.0  0.43420  0.87888  0.75196  1.0000
  S   S260      1.0  0.42601  0.88194  0.78236  1.0000
  S   S261      1.0  0.46275  0.88122  0.73635  1.0000
  Fe  Fe130     1.0  0.39585  0.87133  0.74565  1.0000
  S   S262      1.0  0.38480  0.87352  0.77586  1.0000
  S   S263      1.0  0.37427  0.86647  0.72781  1.0000
  Fe  Fe131     1.0  0.40026  0.89848  0.77229  1.0000
  S   S264      1.0  0.38614  0.92622  0.78055  1.0000
  Fe  Fe132     1.0  0.41140  0.85672  0.78347  1.0000
  S   S265      1.0  0.41507  0.83057  0.80484  1.0000
  S   S266      1.0  0.40956  0.89740  0.74174  1.0000
  S   S267      1.0  0.42141  0.85242  0.75354  1.0000
  Fe  Fe133     1.0  0.40867  0.63670  0.95151  1.0000
  S   S268      1.0  0.42001  0.62529  0.92449  1.0000
  S   S269      1.0  0.39186  0.66509  0.95412  1.0000
  Fe  Fe134     1.0  0.42336  0.60109  0.97488  1.0000
  S   S270      1.0  0.43594  0.58734  0.94981  1.0000
  C   C1960     1.0  0.45775  0.84559  0.98184  1.0000
  Fe  Fe135     1.0  0.44574  0.61522  0.93872  1.0000
  S   S271      1.0  0.47461  0.62115  0.92489  1.0000
  Fe  Fe136     1.0  0.40893  0.59847  0.93845  1.0000
  S   S272      1.0  0.39504  0.57653  0.92773  1.0000
  S   S273      1.0  0.43473  0.62820  0.96478  1.0000
  S   S274      1.0  0.39602  0.61070  0.96447  1.0000
  Fe  Fe137     1.0  0.43157  0.80009  0.93632  1.0000
  S   S275      1.0  0.40294  0.81512  0.94133  1.0000
  S   S276      1.0  0.45534  0.81270  0.94285  1.0000
  Fe  Fe138     1.0  0.41854  0.76569  0.92563  1.0000
  S   S277      1.0  0.38871  0.77836  0.92944  1.0000
  S   S278      1.0  0.43076  0.73688  0.91804  1.0000
  Fe  Fe139     1.0  0.39925  0.80506  0.91442  1.0000
  S   S279      1.0  0.38772  0.82716  0.89203  1.0000
  H   H1564     1.0  0.47466  0.96052  0.79150  1.0000
  S   S280      1.0  0.42849  0.79165  0.90876  1.0000
  C   C1961     1.0  0.34254  0.90781  0.77882  1.0000
  Fe  Fe140     1.0  0.28867  0.55172  0.93097  1.0000
  S   S281      1.0  0.25912  0.56533  0.93008  1.0000
  S   S282      1.0  0.31036  0.57175  0.91991  1.0000
  Fe  Fe141     1.0  0.27553  0.51451  0.94889  1.0000
  H   H1565     1.0  0.25765  0.49939  0.88582  1.0000
  C   C1962     1.0  0.30971  0.87285  0.84772  1.0000
  Fe  Fe142     1.0  0.25296  0.53914  0.92066  1.0000
  C   C1963     1.0  0.26873  0.51853  0.86292  1.0000
  H   H1566     1.0  0.28797  0.60263  0.89549  1.0000
  S   S283      1.0  0.28307  0.52653  0.91891  1.0000
  S   S284      1.0  0.28332  0.53866  0.96093  1.0000
  C   C1964     1.0  0.43034  0.94829  0.79122  1.0000
  C   C1965     1.0  0.40338  0.96869  0.67665  1.0000
  C   C1966     1.0  0.46134  0.98168  0.84244  1.0000
  H   H1567     1.0  0.33002  0.86739  0.76944  1.0000
  H   H1568     1.0  0.46216  0.81733  0.89597  1.0000
  C   C1967     1.0  0.38042  0.92686  0.68698  1.0000
  C   C1968     1.0  0.47625  0.80116  0.93341  1.0000
  C   C1969     1.0  0.43683  0.93859  0.66146  1.0000
  H   H1569     1.0  0.46068  0.67703  0.98603  1.0000
  H   H1570     1.0  0.44236  0.96341  0.85792  1.0000
  C   C1970     1.0  0.38854  0.93540  0.69926  1.0000
  H   H1571     1.0  0.38756  0.82824  0.72114  1.0000
  H   H1572     1.0  0.46404  0.78223  0.92023  1.0000
  C   C1971     1.0  0.45161  0.85822  0.96691  1.0000
  C   C1972     1.0  0.31355  0.99333  0.67461  1.0000
  H   H1573     1.0  0.45531  0.82030  0.79608  1.0000
  C   C1973     1.0  0.37102  0.57546  0.92737  1.0000
  C   C1974     1.0  0.36480  0.55787  0.92848  1.0000
  C   C1975     1.0  0.34610  0.55642  0.92728  1.0000
  C   C1976     1.0  0.33345  0.57259  0.92428  1.0000
  C   C1977     1.0  0.33974  0.59017  0.92284  1.0000
  C   C1978     1.0  0.35831  0.59162  0.92460  1.0000
  H   H1574     1.0  0.37454  0.54527  0.93029  1.0000
  H   H1575     1.0  0.34164  0.54279  0.92804  1.0000
  H   H1576     1.0  0.33024  0.60282  0.92015  1.0000
  H   H1577     1.0  0.36291  0.60526  0.92321  1.0000
  C   C1979     1.0  0.40284  0.68492  0.94408  1.0000
  C   C1980     1.0  0.42150  0.68307  0.93648  1.0000
  C   C1981     1.0  0.42989  0.69908  0.92850  1.0000
  C   C1982     1.0  0.41972  0.71705  0.92806  1.0000
  C   C1983     1.0  0.40104  0.71885  0.93555  1.0000
  C   C1984     1.0  0.39269  0.70287  0.94368  1.0000
  H   H1578     1.0  0.42945  0.66931  0.93663  1.0000
  H   H1579     1.0  0.44432  0.69753  0.92266  1.0000
  H   H1580     1.0  0.39297  0.73256  0.93493  1.0000
  H   H1581     1.0  0.37825  0.70442  0.94945  1.0000
  H   H1582     1.0  0.24405  0.92708  0.66912  1.0000
  H   H1583     1.0  0.45193  0.79067  0.98300  1.0000
  H   H1584     1.0  0.45286  0.92939  0.73796  1.0000
  C   C1985     1.0  0.40991  0.83052  0.82941  1.0000
  C   C1986     1.0  0.40140  0.84657  0.83717  1.0000
  C   C1987     1.0  0.39521  0.84545  0.85649  1.0000
  C   C1988     1.0  0.39789  0.82844  0.86832  1.0000
  C   C1989     1.0  0.40734  0.81260  0.86071  1.0000
  C   C1990     1.0  0.41323  0.81363  0.84132  1.0000
  H   H1585     1.0  0.39886  0.85960  0.82814  1.0000
  H   H1586     1.0  0.38795  0.85771  0.86227  1.0000
  H   H1587     1.0  0.40937  0.79938  0.86964  1.0000
  H   H1588     1.0  0.41980  0.80112  0.83546  1.0000
  C   C1991     1.0  0.37544  0.86878  0.70302  1.0000
  C   C1992     1.0  0.39102  0.87400  0.69112  1.0000
  H   H1589     1.0  0.37808  0.96185  0.66873  1.0000
  C   C1993     1.0  0.41525  0.98257  0.67428  1.0000
  C   C1994     1.0  0.36044  0.86711  0.67548  1.0000
  C   C1995     1.0  0.36017  0.86535  0.69508  1.0000
  H   H1590     1.0  0.40274  0.87688  0.69700  1.0000
  P   P68       1.0  0.47801  0.82258  0.85636  1.0000
  H   H1591     1.0  0.46039  0.54411  0.95162  1.0000
  H   H1592     1.0  0.34804  0.86130  0.70414  1.0000
  C   C1996     1.0  0.41887  0.93552  0.78826  1.0000
  C   C1997     1.0  0.40129  0.94201  0.78299  1.0000
  C   C1998     1.0  0.39545  0.96134  0.78024  1.0000
  H   H1593     1.0  0.42349  0.92066  0.79043  1.0000
  H   H1594     1.0  0.38189  0.96644  0.77614  1.0000
  C   C1999     1.0  0.48101  0.94939  0.82909  1.0000
  H   H1595     1.0  0.30743  0.55960  0.97706  1.0000
  C   C2000     1.0  0.35875  0.50886  0.87626  1.0000
  C   C2001     1.0  0.32923  0.98612  0.68335  1.0000
  H   H1596     1.0  0.31234  0.85898  0.84340  1.0000
  H   H1597     1.0  0.45949  0.89832  0.77049  1.0000
  C   C2002     1.0  0.42375  0.84349  0.97009  1.0000
  C   C2003     1.0  0.45501  0.96431  0.84836  1.0000
  C   C2004     1.0  0.36545  0.91693  0.69365  1.0000
  H   H1598     1.0  0.42330  0.83252  0.66751  1.0000
  C   C2005     1.0  0.46324  0.82749  0.80349  1.0000
  H   H1599     1.0  0.30406  0.89099  0.67504  1.0000
  C   C2006     1.0  0.42003  0.95030  0.71034  1.0000
  C   C2007     1.0  0.43673  0.95635  0.74074  1.0000
  C   C2008     1.0  0.44231  0.93993  0.73247  1.0000
  C   C2009     1.0  0.43401  0.93691  0.71729  1.0000
  H   H1600     1.0  0.41586  0.90566  0.69219  1.0000
  C   C2010     1.0  0.47280  0.57299  0.91788  1.0000
  H   H1601     1.0  0.44304  0.95875  0.75252  1.0000
  H   H1602     1.0  0.40306  0.97681  0.71436  1.0000
  H   H1603     1.0  0.36477  0.80431  0.68311  1.0000
  H   H1604     1.0  0.44378  0.94318  0.79562  1.0000
  H   H1605     1.0  0.36176  0.63268  0.94905  1.0000
  C   C2011     1.0  0.43192  0.85922  0.87127  1.0000
  C   C2012     1.0  0.42751  0.85313  0.89027  1.0000
  C   C2013     1.0  0.43880  0.83840  0.89914  1.0000
  C   C2014     1.0  0.45430  0.82942  0.88897  1.0000
  C   C2015     1.0  0.45887  0.83536  0.86982  1.0000
  C   C2016     1.0  0.44752  0.85044  0.86107  1.0000
  H   H1606     1.0  0.43934  0.74719  0.68576  1.0000
  C   C2017     1.0  0.48665  0.55068  0.95719  1.0000
  C   C2018     1.0  0.32333  0.88496  0.84356  1.0000
  C   C2019     1.0  0.45597  0.77313  0.87070  1.0000
  C   C2020     1.0  0.45801  0.79205  0.86526  1.0000
  C   C2021     1.0  0.40719  0.81484  0.68835  1.0000
  C   C2022     1.0  0.46490  0.94815  0.84176  1.0000
  H   H1607     1.0  0.46486  0.75751  0.95678  1.0000
  H   H1608     1.0  0.46825  0.87021  0.69322  1.0000
  C   C2023     1.0  0.46616  0.82056  0.82194  1.0000
  C   C2024     1.0  0.32229  0.55818  0.97676  1.0000
  H   H1609     1.0  0.42282  0.87026  0.86427  1.0000
  H   H1610     1.0  0.41500  0.85938  0.89802  1.0000
  H   H1611     1.0  0.43514  0.83348  0.91380  1.0000
  C   C2025     1.0  0.47630  0.98780  0.72161  1.0000
  H   H1612     1.0  0.45010  0.85511  0.84626  1.0000
  C   C2026     1.0  0.33744  0.89504  0.76859  1.0000
  H   H1613     1.0  0.44227  0.76875  0.87357  1.0000
  H   H1614     1.0  0.44577  0.80217  0.86381  1.0000
  P   P69       1.0  0.34542  0.87771  0.83072  1.0000
  C   C2027     1.0  0.27784  0.59906  0.95261  1.0000
  H   H1615     1.0  0.28358  0.53639  0.84157  1.0000
  H   H1616     1.0  0.40814  0.97777  0.82463  1.0000
  C   C2028     1.0  0.24551  0.59759  0.88484  1.0000
  C   C2029     1.0  0.34399  0.64792  0.96938  1.0000
  H   H1617     1.0  0.24928  0.95909  0.67257  1.0000
  H   H1618     1.0  0.25279  0.76788  0.67715  1.0000
  C   C2030     1.0  0.46885  0.66708  0.95934  1.0000
  H   H1619     1.0  0.43205  0.72881  0.96051  1.0000
  H   H1620     1.0  0.47937  0.84143  0.67809  1.0000
  H   H1621     1.0  0.48015  0.76547  0.71291  1.0000
  H   H1622     1.0  0.36641  0.84865  0.80886  1.0000
  H   H1623     1.0  0.24913  0.61198  0.99075  1.0000
  C   C2031     1.0  0.43464  0.85712  0.96098  1.0000
  Fe  Fe143     1.0  0.39560  0.78727  0.95584  1.0000
  H   H1624     1.0  0.41749  0.84847  0.71559  1.0000
  H   H1625     1.0  0.42087  0.79685  0.77400  1.0000
  C   C2032     1.0  0.33399  0.87726  0.77740  1.0000
  C   C2033     1.0  0.28872  0.89653  0.86298  1.0000
  C   C2034     1.0  0.41421  0.96653  0.71907  1.0000
  C   C2035     1.0  0.47890  0.75215  0.95936  1.0000
  H   H1626     1.0  0.33627  0.89883  0.75383  1.0000
  C   C2036     1.0  0.44715  0.83145  0.99062  1.0000
  C   C2037     1.0  0.40720  0.97415  0.78252  1.0000
  C   C2038     1.0  0.43620  0.89983  0.66885  1.0000
  C   C2039     1.0  0.46592  0.84281  0.68643  1.0000
  C   C2040     1.0  0.33934  0.51157  0.87967  1.0000
  H   H1627     1.0  0.48371  0.59748  0.95926  1.0000
  C   C2041     1.0  0.45963  0.85908  0.69476  1.0000
  H   H1628     1.0  0.34729  0.60367  0.95852  1.0000
  C   C2042     1.0  0.42252  0.72677  0.97325  1.0000
  C   C2043     1.0  0.32084  0.63096  0.98907  1.0000
  C   C2044     1.0  0.30209  0.51698  0.85777  1.0000
  H   H1629     1.0  0.41469  0.67969  0.99232  1.0000
  P   P70       1.0  0.40908  0.94654  0.69086  1.0000
  C   C2045     1.0  0.48680  0.95599  0.78220  1.0000
  H   H1630     1.0  0.29907  0.92279  0.86256  1.0000
  H   H1631     1.0  0.32940  0.91289  0.84509  1.0000
  H   H1632     1.0  0.32625  0.53030  0.96902  1.0000
  C   C2046     1.0  0.27862  0.60439  0.98969  1.0000
  H   H1633     1.0  0.29601  0.57232  0.88292  1.0000
  S   S285      1.0  0.37968  0.77990  0.98458  1.0000
  H   H1634     1.0  0.42993  0.86676  0.94933  1.0000
  H   H1635     1.0  0.38387  0.52118  0.87504  1.0000
  C   C2047     1.0  0.35043  0.63211  0.96037  1.0000
  C   C2048     1.0  0.45495  0.82825  0.68904  1.0000
  H   H1636     1.0  0.41933  0.77709  0.68884  1.0000
  C   C2049     1.0  0.27747  0.59666  0.89017  1.0000
  C   C2050     1.0  0.25020  0.58031  0.87787  1.0000
  H   H1637     1.0  0.46033  0.79554  0.71616  1.0000
  C   C2051     1.0  0.33081  0.57286  0.98082  1.0000
  S   S286      1.0  0.24544  0.52549  0.94987  1.0000
  H   H1638     1.0  0.30594  0.85656  0.67593  1.0000
  C   C2052     1.0  0.34227  0.61563  0.96588  1.0000
  H   H1639     1.0  0.34531  0.92161  0.77207  1.0000
  C   C2053     1.0  0.31928  0.90312  0.84869  1.0000
  C   C2054     1.0  0.47747  0.98296  0.82980  1.0000
  C   C2055     1.0  0.29461  0.59596  0.96007  1.0000
  H   H1640     1.0  0.46019  0.80814  0.82853  1.0000
  H   H1641     1.0  0.34864  0.86436  0.66958  1.0000
  H   H1642     1.0  0.38979  0.81457  0.78007  1.0000
  C   C2056     1.0  0.48728  0.96684  0.82283  1.0000
  C   C2057     1.0  0.29504  0.59793  0.97882  1.0000
  C   C2058     1.0  0.44210  0.86107  0.70512  1.0000
  C   C2059     1.0  0.36364  0.81444  0.84589  1.0000
  C   C2060     1.0  0.35403  0.82506  0.85955  1.0000
  C   C2061     1.0  0.34822  0.84416  0.85483  1.0000
  C   C2062     1.0  0.35182  0.85276  0.83632  1.0000
  C   C2063     1.0  0.36334  0.88878  0.83752  1.0000
  C   C2064     1.0  0.36331  0.89074  0.85640  1.0000
  C   C2065     1.0  0.37738  0.89887  0.86187  1.0000
  C   C2066     1.0  0.39162  0.90501  0.84854  1.0000
  C   C2067     1.0  0.39189  0.90283  0.82978  1.0000
  C   C2068     1.0  0.37794  0.89457  0.82432  1.0000
  H   H1643     1.0  0.36873  0.79982  0.84973  1.0000
  H   H1644     1.0  0.35185  0.81867  0.87399  1.0000
  H   H1645     1.0  0.34142  0.85227  0.86579  1.0000
  H   H1646     1.0  0.35262  0.88568  0.86696  1.0000
  H   H1647     1.0  0.37736  0.90018  0.87649  1.0000
  H   H1648     1.0  0.40253  0.91131  0.85274  1.0000
  H   H1649     1.0  0.40294  0.90745  0.81939  1.0000
  H   H1650     1.0  0.37876  0.89256  0.80981  1.0000
  H   H1651     1.0  0.34873  0.91278  0.80530  1.0000
  C   C2069     1.0  0.48942  0.76334  0.96636  1.0000
  C   C2070     1.0  0.26185  0.60756  0.98216  1.0000
  C   C2071     1.0  0.30207  0.90882  0.85849  1.0000
  C   C2072     1.0  0.30360  0.50233  0.87263  1.0000
  H   H1652     1.0  0.28211  0.86911  0.86088  1.0000
  H   H1653     1.0  0.33310  0.85833  0.80296  1.0000
  C   C2073     1.0  0.33602  0.87209  0.79634  1.0000
  C   C2074     1.0  0.48913  0.76558  0.87001  1.0000
  C   C2075     1.0  0.42459  0.96762  0.78820  1.0000
  H   H1654     1.0  0.41056  0.84265  0.96561  1.0000
  H   H1655     1.0  0.45991  0.93471  0.84621  1.0000
  H   H1656     1.0  0.45777  0.65849  0.96096  1.0000
  H   H1657     1.0  0.48172  0.62564  0.98957  1.0000
  C   C2076     1.0  0.44385  0.75777  0.69242  1.0000
  C   C2077     1.0  0.42463  0.93122  0.67648  1.0000
  H   H1658     1.0  0.35686  0.58105  0.98503  1.0000
  C   C2078     1.0  0.47977  0.54397  0.90424  1.0000
  C   C2079     1.0  0.32772  0.61480  0.98060  1.0000
  H   H1659     1.0  0.46454  0.54226  0.88155  1.0000
  S   S287      1.0  0.43919  0.98335  0.79192  1.0000
  C   C2080     1.0  0.28471  0.52496  0.85289  1.0000
  H   H1660     1.0  0.41805  0.98211  0.74083  1.0000
  C   C2081     1.0  0.48150  0.66765  0.94308  1.0000
  H   H1661     1.0  0.47852  0.72619  0.94894  1.0000
  H   H1662     1.0  0.48181  0.74053  0.83066  1.0000
  H   H1663     1.0  0.24832  0.60633  0.95817  1.0000
  H   H1664     1.0  0.48532  0.69753  0.98182  1.0000
  C   C2082     1.0  0.46972  0.84417  0.79488  1.0000
  H   H1665     1.0  0.48181  0.81257  0.97693  1.0000
  H   H1666     1.0  0.40266  0.98906  0.78021  1.0000
  C   C2083     1.0  0.36889  0.52337  0.87744  1.0000
  C   C2084     1.0  0.35975  0.54067  0.88195  1.0000
  C   C2085     1.0  0.34046  0.54350  0.88522  1.0000
  C   C2086     1.0  0.33028  0.52898  0.88433  1.0000
  C   C2087     1.0  0.47593  0.83012  0.83184  1.0000
  C   C2088     1.0  0.35862  0.91518  0.71266  1.0000
  H   H1667     1.0  0.46772  0.98559  0.73496  1.0000
  H   H1668     1.0  0.37310  0.83002  0.75348  1.0000
  H   H1669     1.0  0.45263  0.59387  0.90559  1.0000
  C   C2089     1.0  0.40433  0.73570  0.97386  1.0000
  H   H1670     1.0  0.38746  0.93999  0.72821  1.0000
  C   C2090     1.0  0.47046  0.67764  0.97339  1.0000
  C   C2091     1.0  0.26838  0.57132  0.87702  1.0000
  H   H1671     1.0  0.45360  0.99423  0.84743  1.0000
  H   H1672     1.0  0.46707  0.84977  0.78072  1.0000
  C   C2092     1.0  0.38764  0.97204  0.66724  1.0000
  Fe  Fe144     1.0  0.25374  0.55060  0.95931  1.0000
  H   H1673     1.0  0.36161  0.92200  0.73975  1.0000
  H   H1674     1.0  0.45997  0.81584  0.68232  1.0000
  H   H1675     1.0  0.36757  0.55186  0.88317  1.0000
  H   H1676     1.0  0.33341  0.55689  0.88884  1.0000
  H   H1677     1.0  0.31537  0.53134  0.88757  1.0000
  C   C2093     1.0  0.36209  0.84212  0.82283  1.0000
  H   H1678     1.0  0.27763  0.59695  0.93824  1.0000
  C   C2094     1.0  0.46016  0.57990  0.90518  1.0000
  H   H1679     1.0  0.48841  0.93680  0.82384  1.0000
  H   H1680     1.0  0.27168  0.55762  0.87239  1.0000
  H   H1681     1.0  0.47612  0.77520  0.82685  1.0000
  H   H1682     1.0  0.37601  0.81496  0.81720  1.0000
  H   H1683     1.0  0.43838  0.92399  0.71124  1.0000
  C   C2095     1.0  0.34208  0.88451  0.80645  1.0000
  C   C2096     1.0  0.47395  0.89537  0.76528  1.0000
  H   H1684     1.0  0.37022  0.68548  0.99027  1.0000
  C   C2097     1.0  0.36765  0.82296  0.82754  1.0000
  P   P71       1.0  0.31690  0.59375  0.98804  1.0000
  H   H1685     1.0  0.30724  0.59175  0.95131  1.0000
  H   H1686     1.0  0.35050  0.66060  0.96512  1.0000
  H   H1687     1.0  0.34757  0.90676  0.71790  1.0000
  H   H1688     1.0  0.33704  0.97288  0.68013  1.0000
  C   C2098     1.0  0.41075  0.82603  0.67111  1.0000
  C   C2099     1.0  0.36653  0.92372  0.72494  1.0000
  C   C2100     1.0  0.46695  0.55085  0.89165  1.0000
  C   C2101     1.0  0.38126  0.82154  0.66270  1.0000
  H   H1689     1.0  0.27540  0.90094  0.87060  1.0000
  C   C2102     1.0  0.34467  0.90266  0.79771  1.0000
  C   C2103     1.0  0.28745  0.49582  0.88249  1.0000
  H   H1690     1.0  0.35956  0.91000  0.68417  1.0000
  C   C2104     1.0  0.29251  0.87858  0.85753  1.0000
  H   H1691     1.0  0.43568  0.88486  0.67149  1.0000
  C   C2105     1.0  0.33290  0.54142  0.97247  1.0000
  C   C2106     1.0  0.38134  0.93390  0.71829  1.0000
  H   H1692     1.0  0.42745  0.98040  0.68138  1.0000
  S   S288      1.0  0.42475  0.77311  0.95252  1.0000
  H   H1693     1.0  0.43550  0.79447  0.74172  1.0000
  C   C2107     1.0  0.48455  0.68906  0.97102  1.0000
  C   C2108     1.0  0.25924  0.60558  0.89124  1.0000
  H   H1694     1.0  0.39981  0.74487  0.96182  1.0000
  C   C2109     1.0  0.37609  0.87224  0.66358  1.0000
  C   C2110     1.0  0.39135  0.87567  0.67154  1.0000
  H   H1695     1.0  0.44369  0.55092  0.98227  1.0000
  C   C2111     1.0  0.47926  0.88735  0.74872  1.0000
  H   H1696     1.0  0.48325  0.90599  0.78789  1.0000
  C   C2112     1.0  0.43779  0.82975  0.70041  1.0000
  C   C2113     1.0  0.43113  0.84658  0.70771  1.0000
  P   P72       1.0  0.42380  0.81078  0.70494  1.0000
  H   H1697     1.0  0.46001  0.86884  0.95993  1.0000
  C   C2114     1.0  0.43829  0.78864  0.70276  1.0000
  C   C2115     1.0  0.43252  0.77480  0.69421  1.0000
  C   C2116     1.0  0.46100  0.75440  0.69916  1.0000
  C   C2117     1.0  0.46684  0.76806  0.70772  1.0000
  C   C2118     1.0  0.45555  0.78509  0.70954  1.0000
  C   C2119     1.0  0.48454  0.94737  0.76695  1.0000
  H   H1698     1.0  0.47089  0.94485  0.76500  1.0000
  C   C2120     1.0  0.42265  0.96959  0.73410  1.0000
  H   H1699     1.0  0.48345  0.77727  0.96932  1.0000
  C   C2121     1.0  0.41243  0.81062  0.72877  1.0000
  C   C2122     1.0  0.39476  0.82064  0.73244  1.0000
  C   C2123     1.0  0.38650  0.82177  0.75086  1.0000
  C   C2124     1.0  0.39588  0.81310  0.76580  1.0000
  C   C2125     1.0  0.41345  0.80311  0.76234  1.0000
  C   C2126     1.0  0.42171  0.80185  0.74393  1.0000
  H   H1700     1.0  0.43712  0.87380  0.71137  1.0000
  H   H1701     1.0  0.38774  0.79785  0.70557  1.0000
  C   C2127     1.0  0.45713  0.56880  0.89215  1.0000
  C   C2128     1.0  0.47929  0.85385  0.80468  1.0000
  H   H1702     1.0  0.40349  0.87964  0.66246  1.0000
  C   C2129     1.0  0.47564  0.79793  0.86227  1.0000
  C   C2130     1.0  0.28203  0.57952  0.88308  1.0000
  C   C2131     1.0  0.29556  0.86583  0.66873  1.0000
  C   C2132     1.0  0.39069  0.80670  0.69245  1.0000
  C   C2133     1.0  0.29447  0.88522  0.66824  1.0000
  H   H1703     1.0  0.30939  0.98570  0.66457  1.0000
  C   C2134     1.0  0.48673  0.73439  0.95492  1.0000
  H   H1704     1.0  0.44711  0.57413  0.88252  1.0000
  H   H1705     1.0  0.46979  0.74534  0.87800  1.0000
  H   H1706     1.0  0.38593  0.92747  0.67230  1.0000
  H   H1707     1.0  0.31435  0.52234  0.85009  1.0000
  H   H1708     1.0  0.48919  0.85498  0.83062  1.0000
  H   H1709     1.0  0.32963  0.50065  0.91700  1.0000
  C   C2135     1.0  0.47669  0.78677  0.92254  1.0000
  H   H1710     1.0  0.46978  0.74122  0.69771  1.0000
  C   C2136     1.0  0.35002  0.57025  0.98122  1.0000
  C   C2137     1.0  0.46785  0.54838  0.96168  1.0000
  C   C2138     1.0  0.46747  0.55824  0.99206  1.0000
  C   C2139     1.0  0.37770  0.81020  0.67972  1.0000
  C   C2140     1.0  0.47150  0.75991  0.87319  1.0000
  H   H1711     1.0  0.43899  0.76064  0.98618  1.0000
  H   H1712     1.0  0.36613  0.49555  0.87293  1.0000
  C   C2141     1.0  0.45835  0.55211  0.97907  1.0000
  H   H1713     1.0  0.28958  0.50707  0.99103  1.0000
  H   H1714     1.0  0.48423  0.86682  0.79806  1.0000
  C   C2142     1.0  0.48742  0.89983  0.77505  1.0000
  H   H1715     1.0  0.44219  0.70785  0.98793  1.0000
  C   C2143     1.0  0.26140  0.60457  0.96374  1.0000
  C   C2144     1.0  0.42478  0.91170  0.68039  1.0000
  H   H1716     1.0  0.48712  0.53002  0.90364  1.0000
  C   C2145     1.0  0.48230  0.84694  0.82307  1.0000
  C   C2146     1.0  0.48616  0.56046  0.98776  1.0000
  C   C2147     1.0  0.48276  0.55504  0.91748  1.0000
  H   H1717     1.0  0.24170  0.66646  0.85144  1.0000
  H   H1718     1.0  0.48017  0.65943  0.93219  1.0000
  H   H1719     1.0  0.37555  0.55194  0.97634  1.0000
  H   H1720     1.0  0.25521  0.52515  0.85963  1.0000
  C   C2148     1.0  0.32904  0.64742  0.98358  1.0000
  H   H1721     1.0  0.25576  0.61845  0.89751  1.0000
  H   H1722     1.0  0.40615  0.64918  0.98908  1.0000
  C   C2149     1.0  0.35209  0.53916  0.97233  1.0000
  H   H1723     1.0  0.47485  0.58168  0.92804  1.0000
  H   H1724     1.0  0.36036  0.52634  0.96861  1.0000
  C   C2150     1.0  0.36064  0.55358  0.97668  1.0000
  C   C2151     1.0  0.27010  0.50396  0.87769  1.0000
  H   H1725     1.0  0.42134  0.82020  0.99171  1.0000
  H   H1726     1.0  0.48486  0.96102  0.89479  1.0000
  H   H1727     1.0  0.24646  0.63297  0.86393  1.0000
  C   C2152     1.0  0.48907  0.80852  0.98905  1.0000
  H   H1728     1.0  0.48599  0.51259  0.95737  1.0000
  C   C2153     1.0  0.42996  0.83068  0.98485  1.0000
  H   H1729     1.0  0.32378  0.65987  0.99018  1.0000
  C   C2154     1.0  0.48990  0.76819  0.82302  1.0000
  C   C2155     1.0  0.39893  0.99081  0.82524  1.0000
  H   H1730     1.0  0.37453  0.97827  0.82417  1.0000
  C   C2156     1.0  0.42823  0.71501  0.98888  1.0000
  H   H1731     1.0  0.37776  0.73986  0.99033  1.0000
  C   C2157     1.0  0.39183  0.73283  0.98997  1.0000
  H   H1732     1.0  0.47075  0.84679  0.98652  1.0000
  H   H1733     1.0  0.34231  0.70861  0.98628  1.0000
  C   C2158     1.0  0.37996  0.99113  0.82503  1.0000
  H   H1734     1.0  0.34768  0.99095  0.70195  1.0000
  C   C2159     1.0  0.24061  0.76839  0.67028  1.0000
  S   S289      1.0  0.71880  0.34081  0.11795  1.0000
  C   C2160     1.0  0.65952  0.17186  0.10249  1.0000
  Fe  Fe145     1.0  0.56046  0.14888  0.10944  1.0000
  S   S290      1.0  0.57521  0.11974  0.11493  1.0000
  S   S291      1.0  0.53001  0.15725  0.11643  1.0000
  Fe  Fe146     1.0  0.59576  0.16608  0.09616  1.0000
  S   S292      1.0  0.61370  0.13850  0.10089  1.0000
  S   S293      1.0  0.60651  0.19312  0.08336  1.0000
  Fe  Fe147     1.0  0.59251  0.12770  0.08724  1.0000
  S   S294      1.0  0.60173  0.10746  0.06574  1.0000
  Fe  Fe148     1.0  0.59492  0.13306  0.12803  1.0000
  S   S295      1.0  0.60122  0.12711  0.15828  1.0000
  S   S296      1.0  0.57582  0.15566  0.08091  1.0000
  S   S297      1.0  0.57880  0.16184  0.12400  1.0000
  Fe  Fe149     1.0  0.57635  0.31618  0.11520  1.0000
  S   S298      1.0  0.58707  0.29074  0.10109  1.0000
  S   S299      1.0  0.54673  0.32973  0.11347  1.0000
  Fe  Fe150     1.0  0.61525  0.32097  0.12404  1.0000
  S   S300      1.0  0.62873  0.29557  0.11094  1.0000
  S   S301      1.0  0.63127  0.34091  0.13475  1.0000
  Fe  Fe151     1.0  0.61091  0.30618  0.08830  1.0000
  S   S302      1.0  0.62409  0.30829  0.05850  1.0000
  Fe  Fe152     1.0  0.60384  0.28222  0.12499  1.0000
  S   S303      1.0  0.60647  0.25233  0.13884  1.0000
  S   S304      1.0  0.59897  0.33260  0.10020  1.0000
  S   S305      1.0  0.59146  0.30671  0.14040  1.0000
  H   H1735     1.0  0.50387  0.17994  0.06025  1.0000
  Fe  Fe153     1.0  0.61210  0.04610  0.24172  1.0000
  S   S306      1.0  0.60282  0.06827  0.26059  1.0000
  S   S307      1.0  0.62321  0.05131  0.21080  1.0000
  C   C2161     1.0  0.53311  0.02323  0.24130  1.0000
  C   C2162     1.0  0.55497  0.06847  0.31600  1.0000
  Fe  Fe154     1.0  0.61586  0.04803  0.28321  1.0000
  S   S308      1.0  0.63614  0.05646  0.30055  1.0000
  C   C2163     1.0  0.49438  0.10081  0.19944  1.0000
  C   C2164     1.0  0.64381  0.13769  0.02862  1.0000
  H   H1736     1.0  0.69982  0.35587  0.99901  1.0000
  C   C2165     1.0  0.54311  0.25764  0.01744  1.0000
  C   C2166     1.0  0.70285  0.48386  0.07084  1.0000
  C   C2167     1.0  0.51205  0.02552  0.20075  1.0000
  C   C2168     1.0  0.62985  0.16774  0.01405  1.0000
  C   C2169     1.0  0.51518  0.01961  0.24853  1.0000
  C   C2170     1.0  0.53121  0.05576  0.27554  1.0000
  C   C2171     1.0  0.49853  0.33927  0.06530  1.0000
  C   C2172     1.0  0.51988  0.02833  0.29419  1.0000
  C   C2173     1.0  0.53460  0.03841  0.28645  1.0000
  C   C2174     1.0  0.65067  0.15761  0.11364  1.0000
  H   H1737     1.0  0.54855  0.03285  0.28912  1.0000
  C   C2175     1.0  0.61677  0.29369  0.04486  1.0000
  C   C2176     1.0  0.62111  0.29700  0.02546  1.0000
  C   C2177     1.0  0.73181  0.32486  0.16134  1.0000
  C   C2178     1.0  0.60557  0.27091  0.02206  1.0000
  C   C2179     1.0  0.60123  0.26746  0.04150  1.0000
  C   C2180     1.0  0.60688  0.27887  0.05294  1.0000
  H   H1738     1.0  0.62852  0.30854  0.01917  1.0000
  H   H1739     1.0  0.67916  0.34851  0.22112  1.0000
  H   H1740     1.0  0.59364  0.25595  0.04771  1.0000
  H   H1741     1.0  0.60382  0.27600  0.06793  1.0000
  C   C2181     1.0  0.52743  0.31709  0.11880  1.0000
  C   C2182     1.0  0.52850  0.29905  0.12881  1.0000
  C   C2183     1.0  0.51243  0.29013  0.13390  1.0000
  H   H1742     1.0  0.49981  0.10576  0.18524  1.0000
  C   C2184     1.0  0.53783  0.11453  0.00151  1.0000
  C   C2185     1.0  0.52697  0.10006  0.00835  1.0000
  H   H1743     1.0  0.54153  0.29230  0.13324  1.0000
  C   C2186     1.0  0.53419  0.24461  0.05536  1.0000
  H   H1744     1.0  0.54029  0.05128  0.16622  1.0000
  H   H1745     1.0  0.51544  0.99572  0.20983  1.0000
  C   C2187     1.0  0.60531  0.10508  0.17221  1.0000
  C   C2188     1.0  0.61535  0.08943  0.16473  1.0000
  C   C2189     1.0  0.62054  0.07296  0.17668  1.0000
  C   C2190     1.0  0.61539  0.07182  0.19613  1.0000
  C   C2191     1.0  0.60460  0.08714  0.20350  1.0000
  C   C2192     1.0  0.59991  0.10382  0.19165  1.0000
  H   H1746     1.0  0.61974  0.09026  0.14984  1.0000
  H   H1747     1.0  0.62880  0.06112  0.17084  1.0000
  H   H1748     1.0  0.60041  0.08630  0.21841  1.0000
  H   H1749     1.0  0.59222  0.11586  0.19759  1.0000
  C   C2193     1.0  0.59749  0.12597  0.02933  1.0000
  C   C2194     1.0  0.60474  0.11008  0.04087  1.0000
  C   C2195     1.0  0.61471  0.09494  0.03249  1.0000
  H   H1750     1.0  0.58988  0.13783  0.03564  1.0000
  H   H1751     1.0  0.62039  0.08265  0.04116  1.0000
  C   C2196     1.0  0.60579  0.20962  0.09893  1.0000
  C   C2197     1.0  0.60258  0.20456  0.11828  1.0000
  C   C2198     1.0  0.60255  0.21779  0.13048  1.0000
  C   C2199     1.0  0.60542  0.23624  0.12336  1.0000
  C   C2200     1.0  0.60823  0.24143  0.10399  1.0000
  C   C2201     1.0  0.60857  0.22812  0.09182  1.0000
  H   H1752     1.0  0.60069  0.19031  0.12391  1.0000
  H   H1753     1.0  0.60048  0.21365  0.14544  1.0000
  H   H1754     1.0  0.61083  0.25552  0.09836  1.0000
  H   H1755     1.0  0.61088  0.23221  0.07688  1.0000
  C   C2202     1.0  0.51811  0.14493  0.10434  1.0000
  C   C2203     1.0  0.52779  0.13089  0.09420  1.0000
  C   C2204     1.0  0.51820  0.12047  0.08512  1.0000
  H   H1756     1.0  0.50652  0.20181  0.17363  1.0000
  C   C2205     1.0  0.51433  0.08523  0.15538  1.0000
  C   C2206     1.0  0.49445  0.36955  0.07671  1.0000
  H   H1757     1.0  0.54267  0.12790  0.09346  1.0000
  H   H1758     1.0  0.52570  0.10943  0.07748  1.0000
  H   H1759     1.0  0.66547  0.30782  0.04410  1.0000
  C   C2207     1.0  0.49976  0.21198  0.16355  1.0000
  C   C2208     1.0  0.69441  0.34135  0.12273  1.0000
  C   C2209     1.0  0.68678  0.32461  0.12356  1.0000
  C   C2210     1.0  0.66748  0.32434  0.12684  1.0000
  C   C2211     1.0  0.65560  0.34078  0.12986  1.0000
  C   C2212     1.0  0.66326  0.35748  0.12944  1.0000
  C   C2213     1.0  0.68254  0.35784  0.12559  1.0000
  H   H1760     1.0  0.69586  0.31173  0.12173  1.0000
  H   H1761     1.0  0.66178  0.31137  0.12748  1.0000
  H   H1762     1.0  0.65418  0.37025  0.13183  1.0000
  H   H1763     1.0  0.68819  0.37086  0.12488  1.0000
  H   H1764     1.0  0.51832  0.27106  0.18979  1.0000
  H   H1765     1.0  0.67708  0.33864  0.25523  1.0000
  C   C2214     1.0  0.69822  0.39221  0.16115  1.0000
  C   C2215     1.0  0.70131  0.39639  0.19282  1.0000
  H   H1766     1.0  0.52262  0.01497  0.30265  1.0000
  C   C2216     1.0  0.69420  0.48977  0.14106  1.0000
  H   H1767     1.0  0.71988  0.32161  0.15600  1.0000
  H   H1768     1.0  0.52692  0.29935  0.08331  1.0000
  H   H1769     1.0  0.57565  0.08699  0.30675  1.0000
  H   H1770     1.0  0.59334  0.38419  0.02478  1.0000
  H   H1771     1.0  0.52680  0.02593  0.19792  1.0000
  H   H1772     1.0  0.58430  0.05433  0.19778  1.0000
  C   C2217     1.0  0.67589  0.41517  0.00832  1.0000
  C   C2218     1.0  0.63912  0.21441  0.04983  1.0000
  C   C2219     1.0  0.63852  0.23348  0.04327  1.0000
  C   C2220     1.0  0.64706  0.24499  0.05213  1.0000
  C   C2221     1.0  0.65620  0.23740  0.06762  1.0000
  C   C2222     1.0  0.65659  0.21824  0.07453  1.0000
  C   C2223     1.0  0.64819  0.20679  0.06531  1.0000
  P   P73       1.0  0.66963  0.20797  0.09357  1.0000
  C   C2224     1.0  0.65779  0.18977  0.10815  1.0000
  C   C2225     1.0  0.69198  0.19738  0.08375  1.0000
  C   C2226     1.0  0.63342  0.14087  0.04574  1.0000
  C   C2227     1.0  0.60011  0.12634  0.00954  1.0000
  C   C2228     1.0  0.49251  0.12448  0.00272  1.0000
  C   C2229     1.0  0.50797  0.29939  0.06314  1.0000
  C   C2230     1.0  0.69930  0.20322  0.06525  1.0000
  C   C2231     1.0  0.64708  0.19304  0.12525  1.0000
  C   C2232     1.0  0.63820  0.17874  0.13633  1.0000
  C   C2233     1.0  0.63989  0.16107  0.13049  1.0000
  H   H1773     1.0  0.64634  0.25985  0.04715  1.0000
  S   S309      1.0  0.54933  0.06915  0.26680  1.0000
  C   C2234     1.0  0.67251  0.22595  0.10723  1.0000
  C   C2235     1.0  0.65712  0.23824  0.11352  1.0000
  C   C2236     1.0  0.65902  0.25194  0.12440  1.0000
  C   C2237     1.0  0.67644  0.25390  0.12862  1.0000
  C   C2238     1.0  0.69196  0.24194  0.12216  1.0000
  C   C2239     1.0  0.69002  0.22794  0.11158  1.0000
  H   H1774     1.0  0.63210  0.20559  0.04326  1.0000
  H   H1775     1.0  0.63123  0.23934  0.03143  1.0000
  H   H1776     1.0  0.66284  0.24656  0.07414  1.0000
  H   H1777     1.0  0.64815  0.19203  0.07026  1.0000
  H   H1778     1.0  0.65749  0.29681  0.07758  1.0000
  C   C2240     1.0  0.53181  0.06251  0.19251  1.0000
  H   H1779     1.0  0.69169  0.21419  0.05656  1.0000
  H   H1780     1.0  0.64516  0.20661  0.13006  1.0000
  H   H1781     1.0  0.62957  0.18150  0.14925  1.0000
  H   H1782     1.0  0.64810  0.48661  0.11309  1.0000
  H   H1783     1.0  0.63264  0.15013  0.13892  1.0000
  H   H1784     1.0  0.65189  0.14390  0.10910  1.0000
  H   H1785     1.0  0.64355  0.23702  0.11026  1.0000
  H   H1786     1.0  0.64685  0.26086  0.12972  1.0000
  H   H1787     1.0  0.67785  0.26462  0.13698  1.0000
  H   H1788     1.0  0.70547  0.24341  0.12551  1.0000
  H   H1789     1.0  0.70220  0.21876  0.10689  1.0000
  C   C2241     1.0  0.71906  0.31465  0.24192  1.0000
  H   H1790     1.0  0.50935  0.33975  0.10586  1.0000
  C   C2242     1.0  0.53188  0.24334  0.02277  1.0000
  C   C2243     1.0  0.49440  0.08898  0.13105  1.0000
  H   H1791     1.0  0.69695  0.17864  0.10904  1.0000
  H   H1792     1.0  0.57592  0.09763  0.02320  1.0000
  P   P74       1.0  0.50732  0.06471  0.19081  1.0000
  C   C2244     1.0  0.50079  0.31603  0.99894  1.0000
  C   C2245     1.0  0.56850  0.11120  0.25283  1.0000
  C   C2246     1.0  0.55707  0.11492  0.26927  1.0000
  C   C2247     1.0  0.56412  0.12191  0.28322  1.0000
  C   C2248     1.0  0.58273  0.12475  0.28094  1.0000
  C   C2249     1.0  0.59448  0.12038  0.26472  1.0000
  C   C2250     1.0  0.58705  0.11414  0.25045  1.0000
  P   P75       1.0  0.61859  0.12382  0.26187  1.0000
  C   C2251     1.0  0.62115  0.14715  0.25017  1.0000
  C   C2252     1.0  0.62641  0.12044  0.28468  1.0000
  C   C2253     1.0  0.63768  0.13258  0.28932  1.0000
  C   C2254     1.0  0.49888  0.14891  0.10503  1.0000
  C   C2255     1.0  0.68921  0.33358  0.24613  1.0000
  C   C2256     1.0  0.66368  0.44002  0.12016  1.0000
  C   C2257     1.0  0.62132  0.10540  0.29798  1.0000
  C   C2258     1.0  0.63841  0.15120  0.24074  1.0000
  C   C2259     1.0  0.64043  0.16914  0.23133  1.0000
  C   C2260     1.0  0.62526  0.18317  0.23132  1.0000
  C   C2261     1.0  0.60806  0.17929  0.24079  1.0000
  C   C2262     1.0  0.60599  0.16135  0.25021  1.0000
  C   C2263     1.0  0.63210  0.10699  0.24764  1.0000
  C   C2264     1.0  0.63270  0.11023  0.22806  1.0000
  C   C2265     1.0  0.64231  0.09687  0.21702  1.0000
  C   C2266     1.0  0.65127  0.08013  0.22540  1.0000
  C   C2267     1.0  0.65103  0.07693  0.24480  1.0000
  C   C2268     1.0  0.64165  0.09035  0.25587  1.0000
  H   H1793     1.0  0.56306  0.10549  0.24214  1.0000
  H   H1794     1.0  0.54283  0.11207  0.27123  1.0000
  C   C2269     1.0  0.53615  0.32444  0.04808  1.0000
  H   H1795     1.0  0.58795  0.13017  0.29191  1.0000
  H   H1796     1.0  0.59559  0.11102  0.23766  1.0000
  H   H1797     1.0  0.64187  0.14425  0.27939  1.0000
  H   H1798     1.0  0.56957  0.33056  0.07364  1.0000
  H   H1799     1.0  0.61299  0.09557  0.29460  1.0000
  H   H1800     1.0  0.65030  0.14044  0.24061  1.0000
  H   H1801     1.0  0.65376  0.17213  0.22397  1.0000
  H   H1802     1.0  0.62680  0.19705  0.22394  1.0000
  H   H1803     1.0  0.59629  0.19016  0.24075  1.0000
  H   H1804     1.0  0.59253  0.15863  0.25739  1.0000
  H   H1805     1.0  0.62530  0.12281  0.22131  1.0000
  H   H1806     1.0  0.64217  0.09912  0.20199  1.0000
  H   H1807     1.0  0.65794  0.06941  0.21688  1.0000
  H   H1808     1.0  0.65768  0.06379  0.25137  1.0000
  H   H1809     1.0  0.64154  0.08731  0.27084  1.0000
  C   C2270     1.0  0.64240  0.20307  0.99655  1.0000
  H   H1810     1.0  0.61928  0.28810  0.99909  1.0000
  C   C2271     1.0  0.72307  0.37367  0.02510  1.0000
  H   H1811     1.0  0.70255  0.31700  0.26865  1.0000
  C   C2272     1.0  0.66423  0.23019  0.00114  1.0000
  H   H1812     1.0  0.67968  0.29695  0.09995  1.0000
  H   H1813     1.0  0.50799  0.18353  0.01278  1.0000
  H   H1814     1.0  0.69106  0.47633  0.07182  1.0000
  C   C2273     1.0  0.54439  0.32759  0.06334  1.0000
  H   H1815     1.0  0.58927  0.32607  0.04358  1.0000
  H   H1816     1.0  0.51485  0.19488  0.11513  1.0000
  H   H1817     1.0  0.50847  0.24592  0.12695  1.0000
  Fe  Fe155     1.0  0.60056  0.01514  0.27267  1.0000
  H   H1818     1.0  0.52657  0.07272  0.02501  1.0000
  H   H1819     1.0  0.53583  0.03747  0.23654  1.0000
  C   C2274     1.0  0.70354  0.32137  0.25368  1.0000
  H   H1820     1.0  0.70413  0.45852  0.10855  1.0000
  H   H1821     1.0  0.65287  0.12462  0.02751  1.0000
  S   S310      1.0  0.58645  0.03205  0.24932  1.0000
  C   C2275     1.0  0.59649  0.20935  0.00538  1.0000
  C   C2276     1.0  0.54535  0.25899  0.04997  1.0000
  H   H1822     1.0  0.50021  0.14403  0.14919  1.0000
  C   C2277     1.0  0.69046  0.33920  0.22683  1.0000
  C   C2278     1.0  0.51307  0.27501  0.08923  1.0000
  H   H1823     1.0  0.66760  0.16890  0.08937  1.0000
  H   H1824     1.0  0.51046  0.07614  0.26346  1.0000
  C   C2279     1.0  0.67698  0.47480  0.10987  1.0000
  H   H1825     1.0  0.69056  0.47583  0.14158  1.0000
  H   H1826     1.0  0.61352  0.16005  0.06045  1.0000
  C   C2280     1.0  0.61560  0.28558  0.01407  1.0000
  H   H1827     1.0  0.56387  0.12469  0.00129  1.0000
  H   H1828     1.0  0.66000  0.34725  0.09281  1.0000
  C   C2281     1.0  0.62146  0.15752  0.04714  1.0000
  H   H1829     1.0  0.52844  0.07263  0.21957  1.0000
  C   C2282     1.0  0.68271  0.44082  0.11636  1.0000
  C   C2283     1.0  0.72080  0.38393  0.04019  1.0000
  C   C2284     1.0  0.70229  0.18324  0.09469  1.0000
  C   C2285     1.0  0.68933  0.45812  0.11118  1.0000
  C   C2286     1.0  0.70081  0.30727  0.07881  1.0000
  S   S311      1.0  0.62735  0.02693  0.26339  1.0000
  S   S312      1.0  0.58970  0.03521  0.29361  1.0000
  H   H1830     1.0  0.56166  0.06759  0.22258  1.0000
  C   C2287     1.0  0.72291  0.35503  0.06155  1.0000
  C   C2288     1.0  0.51035  0.32574  0.11336  1.0000
  C   C2289     1.0  0.51179  0.00135  0.25569  1.0000
  C   C2290     1.0  0.66725  0.32606  0.00499  1.0000
  H   H1831     1.0  0.71530  0.47408  0.04486  1.0000
  C   C2291     1.0  0.65128  0.45657  0.11884  1.0000
  C   C2292     1.0  0.73466  0.46488  0.13821  1.0000
  C   C2293     1.0  0.72071  0.37462  0.05838  1.0000
  H   H1832     1.0  0.72265  0.34806  0.07580  1.0000
  H   H1833     1.0  0.65263  0.13892  0.31044  1.0000
  C   C2294     1.0  0.60008  0.36861  0.00125  1.0000
  C   C2295     1.0  0.67097  0.30121  0.07263  1.0000
  Fe  Fe156     1.0  0.73551  0.36500  0.11749  1.0000
  C   C2296     1.0  0.67553  0.30736  0.05367  1.0000
  P   P76       1.0  0.51249  0.21846  0.04834  1.0000
  C   C2297     1.0  0.65788  0.47394  0.11376  1.0000
  C   C2298     1.0  0.52501  0.19577  0.04422  1.0000
  C   C2299     1.0  0.54306  0.19425  0.03465  1.0000
  C   C2300     1.0  0.55319  0.17662  0.03273  1.0000
  C   C2301     1.0  0.54538  0.16035  0.04032  1.0000
  C   C2302     1.0  0.52743  0.16171  0.04979  1.0000
  C   C2303     1.0  0.51738  0.17930  0.05201  1.0000
  H   H1834     1.0  0.53613  0.32953  0.07664  1.0000
  H   H1835     1.0  0.66271  0.18322  0.01029  1.0000
  C   C2304     1.0  0.69357  0.34339  0.99875  1.0000
  H   H1836     1.0  0.63536  0.34438  0.04397  1.0000
  S   S313      1.0  0.72683  0.42877  0.14074  1.0000
  H   H1837     1.0  0.49340  0.25473  0.03404  1.0000
  C   C2305     1.0  0.62266  0.37542  0.01946  1.0000
  C   C2306     1.0  0.70618  0.33283  0.21497  1.0000
  H   H1838     1.0  0.51823  0.30118  0.01890  1.0000
  C   C2307     1.0  0.50806  0.31325  0.01594  1.0000
  C   C2308     1.0  0.57450  0.32564  0.04479  1.0000
  C   C2309     1.0  0.51311  0.06274  0.27195  1.0000
  H   H1839     1.0  0.63653  0.45594  0.12194  1.0000
  H   H1840     1.0  0.62387  0.09063  0.32557  1.0000
  H   H1841     1.0  0.52858  0.20119  0.08225  1.0000
  H   H1842     1.0  0.65289  0.32508  0.01025  1.0000
  H   H1843     1.0  0.54957  0.20659  0.02916  1.0000
  H   H1844     1.0  0.56724  0.17557  0.02563  1.0000
  H   H1845     1.0  0.55331  0.14666  0.03913  1.0000
  H   H1846     1.0  0.52145  0.14909  0.05585  1.0000
  C   C2310     1.0  0.67467  0.34274  0.00491  1.0000
  C   C2311     1.0  0.73088  0.29329  0.02537  1.0000
  H   H1847     1.0  0.62545  0.08353  0.00697  1.0000
  Fe  Fe157     1.0  0.57778  0.05326  0.26920  1.0000
  H   H1848     1.0  0.68595  0.36885  0.03907  1.0000
  H   H1849     1.0  0.63526  0.33801  0.07807  1.0000
  H   H1850     1.0  0.53088  0.23979  0.07008  1.0000
  H   H1851     1.0  0.69611  0.31813  0.03254  1.0000
  C   C2312     1.0  0.51714  0.29190  0.07871  1.0000
  H   H1852     1.0  0.62569  0.38180  0.03098  1.0000
  H   H1853     1.0  0.72437  0.46455  0.00912  1.0000
  C   C2313     1.0  0.49944  0.04198  0.19838  1.0000
  C   C2314     1.0  0.57865  0.21860  0.00393  1.0000
  C   C2315     1.0  0.50567  0.00825  0.20745  1.0000
  C   C2316     1.0  0.49895  0.12416  0.08611  1.0000
  C   C2317     1.0  0.73544  0.44918  0.12892  1.0000
  C   C2318     1.0  0.49984  0.26541  0.08435  1.0000
  H   H1854     1.0  0.73649  0.28290  0.07317  1.0000
  H   H1855     1.0  0.65092  0.14859  0.99998  1.0000
  H   H1856     1.0  0.55521  0.12484  0.29593  1.0000
  C   C2319     1.0  0.53424  0.08446  0.02013  1.0000
  C   C2320     1.0  0.55174  0.08377  0.02562  1.0000
  C   C2321     1.0  0.69282  0.31324  0.04722  1.0000
  H   H1857     1.0  0.71011  0.30784  0.08885  1.0000
  H   H1858     1.0  0.73223  0.27423  0.00505  1.0000
  C   C2322     1.0  0.54757  0.00848  0.24052  1.0000
  C   C2323     1.0  0.50229  0.32602  0.02895  1.0000
  C   C2324     1.0  0.56366  0.05238  0.18030  1.0000
  C   C2325     1.0  0.54747  0.32186  0.03110  1.0000
  H   H1859     1.0  0.57524  0.32019  0.01648  1.0000
  C   C2326     1.0  0.66801  0.39881  0.01551  1.0000
  H   H1860     1.0  0.56143  0.01123  0.23471  1.0000
  H   H1861     1.0  0.73007  0.30501  0.24777  1.0000
  C   C2327     1.0  0.61753  0.09541  0.01303  1.0000
  C   C2328     1.0  0.50088  0.23679  0.13739  1.0000
  C   C2329     1.0  0.54478  0.05513  0.17847  1.0000
  H   H1862     1.0  0.67247  0.24072  0.00311  1.0000
  H   H1863     1.0  0.55721  0.07186  0.03492  1.0000
  H   H1864     1.0  0.72727  0.34645  0.01626  1.0000
  C   C2330     1.0  0.71955  0.17486  0.08714  1.0000
  H   H1865     1.0  0.51971  0.26978  0.10159  1.0000
  C   C2331     1.0  0.63690  0.36538  0.00847  1.0000
  C   C2332     1.0  0.69842  0.40402  0.17456  1.0000
  C   C2333     1.0  0.54993  0.26539  0.03105  1.0000
  H   H1866     1.0  0.71987  0.28702  0.03448  1.0000
  C   C2334     1.0  0.51422  0.20647  0.08623  1.0000
  C   C2335     1.0  0.65801  0.33128  0.17503  1.0000
  C   C2336     1.0  0.66066  0.31210  0.17367  1.0000
  C   C2337     1.0  0.67743  0.30136  0.17723  1.0000
  C   C2338     1.0  0.69163  0.30985  0.18199  1.0000
  C   C2339     1.0  0.68929  0.32925  0.18275  1.0000
  C   C2340     1.0  0.67221  0.33984  0.17960  1.0000
  P   P77       1.0  0.70723  0.33985  0.19007  1.0000
  C   C2341     1.0  0.70327  0.36499  0.18443  1.0000
  H   H1867     1.0  0.63435  0.13028  0.05785  1.0000
  C   C2342     1.0  0.72034  0.32024  0.22260  1.0000
  H   H1868     1.0  0.72211  0.19926  0.04342  1.0000
  H   H1869     1.0  0.52672  0.23743  0.01206  1.0000
  C   C2343     1.0  0.66931  0.38430  0.00446  1.0000
  C   C2344     1.0  0.70073  0.37276  0.16604  1.0000
  H   H1870     1.0  0.54686  0.26257  0.00277  1.0000
  S   S314      1.0  0.72797  0.39427  0.10375  1.0000
  C   C2345     1.0  0.64381  0.12963  0.30695  1.0000
  C   C2346     1.0  0.53805  0.06717  0.20835  1.0000
  H   H1871     1.0  0.51318  0.27653  0.14226  1.0000
  H   H1872     1.0  0.72341  0.38096  0.01098  1.0000
  H   H1873     1.0  0.64500  0.33958  0.17216  1.0000
  H   H1874     1.0  0.64968  0.30568  0.16971  1.0000
  H   H1875     1.0  0.67939  0.28646  0.17633  1.0000
  H   H1876     1.0  0.70445  0.30132  0.18503  1.0000
  H   H1877     1.0  0.66972  0.35471  0.18064  1.0000
  C   C2347     1.0  0.73180  0.49234  0.05374  1.0000
  C   C2348     1.0  0.61956  0.17084  0.03139  1.0000
  H   H1878     1.0  0.69664  0.39816  0.14685  1.0000
  H   H1879     1.0  0.70108  0.36373  0.15540  1.0000
  P   P78       1.0  0.72847  0.31927  0.05080  1.0000
  H   H1880     1.0  0.55896  0.27620  0.02692  1.0000
  H   H1881     1.0  0.57367  0.04672  0.16946  1.0000
  C   C2349     1.0  0.51024  0.09285  0.13742  1.0000
  H   H1882     1.0  0.72856  0.46443  0.15266  1.0000
  C   C2350     1.0  0.55834  0.24670  0.09854  1.0000
  C   C2351     1.0  0.56412  0.23172  0.08819  1.0000
  C   C2352     1.0  0.56017  0.21375  0.09573  1.0000
  C   C2353     1.0  0.55099  0.21058  0.11387  1.0000
  C   C2354     1.0  0.54561  0.22544  0.12463  1.0000
  C   C2355     1.0  0.54887  0.24364  0.11658  1.0000
  P   P79       1.0  0.53496  0.22114  0.14862  1.0000
  C   C2356     1.0  0.54448  0.19794  0.15839  1.0000
  C   C2357     1.0  0.53998  0.23897  0.16135  1.0000
  C   C2358     1.0  0.55777  0.24447  0.15866  1.0000
  C   C2359     1.0  0.56127  0.25939  0.16713  1.0000
  C   C2360     1.0  0.54708  0.26895  0.17836  1.0000
  C   C2361     1.0  0.52940  0.26345  0.18132  1.0000
  C   C2362     1.0  0.52585  0.24849  0.17293  1.0000
  C   C2363     1.0  0.55991  0.19539  0.16820  1.0000
  C   C2364     1.0  0.56776  0.17731  0.17477  1.0000
  C   C2365     1.0  0.56028  0.16167  0.17163  1.0000
  C   C2366     1.0  0.54497  0.16406  0.16188  1.0000
  C   C2367     1.0  0.53716  0.18208  0.15521  1.0000
  C   C2368     1.0  0.51015  0.22292  0.14948  1.0000
  C   C2369     1.0  0.70586  0.31255  0.05962  1.0000
  P   P80       1.0  0.51161  0.32235  0.05104  1.0000
  C   C2370     1.0  0.72557  0.34458  0.04645  1.0000
  C   C2371     1.0  0.68352  0.30130  0.08521  1.0000
  C   C2372     1.0  0.49463  0.28964  0.05833  1.0000
  H   H1883     1.0  0.56163  0.26061  0.09282  1.0000
  H   H1884     1.0  0.57204  0.23391  0.07446  1.0000
  H   H1885     1.0  0.56494  0.20208  0.08781  1.0000
  H   H1886     1.0  0.54859  0.19642  0.11950  1.0000
  H   H1887     1.0  0.54459  0.25547  0.12436  1.0000
  H   H1888     1.0  0.56884  0.23759  0.14957  1.0000
  H   H1889     1.0  0.57493  0.26379  0.16467  1.0000
  H   H1890     1.0  0.54975  0.28077  0.18456  1.0000
  C   C2373     1.0  0.56231  0.09836  0.01901  1.0000
  H   H1891     1.0  0.51192  0.24485  0.17514  1.0000
  H   H1892     1.0  0.56619  0.20722  0.17049  1.0000
  H   H1893     1.0  0.57994  0.17535  0.18189  1.0000
  H   H1894     1.0  0.56673  0.14766  0.17622  1.0000
  H   H1895     1.0  0.53965  0.15191  0.15875  1.0000
  H   H1896     1.0  0.52577  0.18354  0.14703  1.0000
  C   C2374     1.0  0.49838  0.05249  0.27948  1.0000
  H   H1897     1.0  0.53502  0.16089  0.00379  1.0000
  H   H1898     1.0  0.68530  0.36252  0.07354  1.0000
  H   H1899     1.0  0.61016  0.18353  0.03300  1.0000
  C   C2375     1.0  0.52736  0.23669  0.04179  1.0000
  C   C2376     1.0  0.64607  0.34512  0.06953  1.0000
  C   C2377     1.0  0.66012  0.35019  0.07786  1.0000
  C   C2378     1.0  0.67442  0.35880  0.06687  1.0000
  C   C2379     1.0  0.67463  0.36248  0.04746  1.0000
  C   C2380     1.0  0.66016  0.35806  0.03903  1.0000
  C   C2381     1.0  0.64617  0.34885  0.05016  1.0000
  P   P81       1.0  0.66037  0.36258  0.01398  1.0000
  P   P82       1.0  0.50449  0.10108  0.00088  1.0000
  H   H1900     1.0  0.51929  0.10185  0.12842  1.0000
  C   C2382     1.0  0.56342  0.32823  0.06169  1.0000
  C   C2383     1.0  0.72667  0.18062  0.06866  1.0000
  C   C2384     1.0  0.50647  0.20266  0.10486  1.0000
  H   H1901     1.0  0.52647  0.08875  0.16014  1.0000
  H   H1902     1.0  0.73230  0.31454  0.21373  1.0000
  C   C2385     1.0  0.64231  0.15119  0.01292  1.0000
  C   C2386     1.0  0.56970  0.05680  0.19622  1.0000
  C   C2387     1.0  0.71658  0.19482  0.05775  1.0000
  C   C2388     1.0  0.65853  0.19777  0.00521  1.0000
  C   C2389     1.0  0.66938  0.21130  0.00751  1.0000
  H   H1903     1.0  0.66108  0.39747  0.02971  1.0000
  H   H1904     1.0  0.54181  0.31947  0.01896  1.0000
  H   H1905     1.0  0.55055  0.26519  0.06044  1.0000
  S   S315      1.0  0.59867  0.25693  0.00758  1.0000
  C   C2390     1.0  0.72982  0.33337  0.17771  1.0000
  H   H1906     1.0  0.69243  0.42808  0.11767  1.0000
  H   H1907     1.0  0.65856  0.42659  0.12427  1.0000
  C   C2391     1.0  0.55693  0.06426  0.21019  1.0000
  C   C2392     1.0  0.55544  0.11365  0.00683  1.0000
  C   C2393     1.0  0.70386  0.37692  0.19775  1.0000
  C   C2394     1.0  0.60431  0.37685  0.01596  1.0000
  H   H1908     1.0  0.68168  0.20714  0.01438  1.0000
  H   H1909     1.0  0.74001  0.17404  0.06280  1.0000
  H   H1910     1.0  0.71955  0.39911  0.03775  1.0000
  H   H1911     1.0  0.50392  0.03100  0.24890  1.0000
  C   C2395     1.0  0.56655  0.32240  0.02952  1.0000
  H   H1912     1.0  0.71916  0.38261  0.07002  1.0000
  H   H1913     1.0  0.70193  0.40560  0.20303  1.0000
  H   H1914     1.0  0.67523  0.42616  0.01700  1.0000
  H   H1915     1.0  0.72735  0.16382  0.09560  1.0000
  C   C2396     1.0  0.50173  0.03539  0.29084  1.0000
  H   H1916     1.0  0.51832  0.35930  0.05871  1.0000
  C   C2397     1.0  0.50323  0.21618  0.07279  1.0000
  H   H1917     1.0  0.60417  0.21291  0.01566  1.0000
  H   H1918     1.0  0.69965  0.48465  0.16975  1.0000
  C   C2398     1.0  0.72542  0.35406  0.02818  1.0000
  H   H1919     1.0  0.59464  0.13855  0.00068  1.0000
  H   H1920     1.0  0.57283  0.22886  0.01325  1.0000
  C   C2399     1.0  0.51578  0.18596  0.99910  1.0000
  C   C2400     1.0  0.71653  0.48262  0.05544  1.0000
  H   H1921     1.0  0.49978  0.38241  0.07773  1.0000
  H   H1922     1.0  0.49783  0.99883  0.26133  1.0000
  H   H1923     1.0  0.54708  0.07380  0.30449  1.0000
  C   C2401     1.0  0.50506  0.35627  0.06615  1.0000
  C   C2402     1.0  0.50272  0.07342  0.16706  1.0000
  C   C2403     1.0  0.62748  0.10252  0.31556  1.0000
  C   C2404     1.0  0.61009  0.11086  0.00138  1.0000
  H   H1924     1.0  0.70662  0.37133  0.21181  1.0000
  C   C2405     1.0  0.57097  0.07604  0.31738  1.0000
  H   H1925     1.0  0.69685  0.41909  0.17063  1.0000
  C   C2406     1.0  0.63876  0.11457  0.32004  1.0000
  H   H1926     1.0  0.67218  0.29809  0.99742  1.0000
  C   C2407     1.0  0.49546  0.08153  0.20583  1.0000
  C   C2408     1.0  0.73794  0.30872  0.02994  1.0000
  C   C2409     1.0  0.49533  0.29888  0.12850  1.0000
  C   C2410     1.0  0.73799  0.28583  0.00876  1.0000
  C   C2411     1.0  0.49444  0.31660  0.11801  1.0000
  C   C2412     1.0  0.49301  0.22477  0.03522  1.0000
  C   C2413     1.0  0.67825  0.31063  0.99803  1.0000
  H   H1927     1.0  0.58586  0.36952  0.99861  1.0000
  C   C2414     1.0  0.63793  0.05150  0.32496  1.0000
  C   C2415     1.0  0.73886  0.46349  0.01081  1.0000
  Fe  Fe158     1.0  0.74005  0.40369  0.12666  1.0000
  H   H1928     1.0  0.73724  0.44222  0.03488  1.0000
  H   H1929     1.0  0.49628  0.25268  0.09297  1.0000
  H   H1930     1.0  0.49729  0.09073  0.04156  1.0000
  C   C2416     1.0  0.53109  0.17313  0.99408  1.0000
  H   H1931     1.0  0.66349  0.06336  0.32213  1.0000
  H   H1932     1.0  0.49141  0.15996  0.11266  1.0000
  P   P83       1.0  0.62821  0.18559  0.99396  1.0000
  C   C2417     1.0  0.49074  0.27265  0.06880  1.0000
  C   C2418     1.0  0.49116  0.08396  0.01531  1.0000
  C   C2419     1.0  0.63260  0.35768  0.99335  1.0000
  C   C2420     1.0  0.60456  0.19638  0.99313  1.0000
  H   H1933     1.0  0.49124  0.09484  0.11712  1.0000
  C   C2421     1.0  0.70438  0.49474  0.08481  1.0000
  C   C2422     1.0  0.69935  0.49470  0.15721  1.0000
  Fe  Fe159     1.0  0.66456  0.04398  0.40571  1.0000
  S   S316      1.0  0.68775  0.02040  0.40290  1.0000
  S   S317      1.0  0.64053  0.04480  0.38866  1.0000
  Fe  Fe160     1.0  0.67957  0.05571  0.43953  1.0000
  S   S318      1.0  0.70387  0.03314  0.43815  1.0000
  S   S319      1.0  0.67853  0.07346  0.46309  1.0000
  Fe  Fe161     1.0  0.70603  0.04115  0.40707  1.0000
  H   H1934     1.0  0.52378  0.01338  0.38969  1.0000
  Fe  Fe162     1.0  0.68316  0.01511  0.43418  1.0000
  H   H1935     1.0  0.64373  0.11208  0.33360  1.0000
  S   S320      1.0  0.68319  0.06538  0.40821  1.0000
  S   S321      1.0  0.65865  0.03705  0.43720  1.0000
  Fe  Fe163     1.0  0.65806  0.06617  0.57248  1.0000
  S   S322      1.0  0.68721  0.05210  0.57104  1.0000
  S   S323      1.0  0.64184  0.07170  0.54756  1.0000
  Fe  Fe164     1.0  0.65580  0.06985  0.61470  1.0000
  S   S324      1.0  0.68517  0.05648  0.61569  1.0000
  S   S325      1.0  0.63656  0.08038  0.63975  1.0000
  Fe  Fe165     1.0  0.69185  0.07386  0.58811  1.0000
  S   S326      1.0  0.71731  0.08812  0.57735  1.0000
  Fe  Fe166     1.0  0.67783  0.03609  0.59863  1.0000
  C   C2423     1.0  0.68881  0.00890  0.51388  1.0000
  S   S327      1.0  0.66299  0.08913  0.58804  1.0000
  S   S328      1.0  0.64802  0.04842  0.59901  1.0000
  C   C2424     1.0  0.62567  0.00615  0.46991  1.0000
  H   H1936     1.0  0.49389  0.01784  0.34087  1.0000
  H   H1937     1.0  0.58858  0.01635  0.33966  1.0000
  H   H1938     1.0  0.71824  0.08187  0.61760  1.0000
  C   C2425     1.0  0.52686  0.02643  0.39322  1.0000
  C   C2426     1.0  0.66750  0.06817  0.48631  1.0000
  C   C2427     1.0  0.64888  0.07513  0.49084  1.0000
  C   C2428     1.0  0.64108  0.07529  0.50966  1.0000
  C   C2429     1.0  0.65182  0.06876  0.52426  1.0000
  C   C2430     1.0  0.67023  0.06097  0.51985  1.0000
  C   C2431     1.0  0.67803  0.06073  0.50098  1.0000
  H   H1939     1.0  0.64072  0.08135  0.47978  1.0000
  H   H1940     1.0  0.62685  0.08133  0.51287  1.0000
  H   H1941     1.0  0.67870  0.05585  0.53091  1.0000
  H   H1942     1.0  0.69243  0.05542  0.49784  1.0000
  H   H1943     1.0  0.51396  0.05517  0.42700  1.0000
  C   C2432     1.0  0.64102  0.00982  0.65606  1.0000
  H   H1944     1.0  0.71844  0.00898  0.47361  1.0000
  C   C2433     1.0  0.58879  0.00952  0.35392  1.0000
  C   C2434     1.0  0.57311  0.05945  0.65299  1.0000
  H   H1945     1.0  0.72746  0.04727  0.50438  1.0000
  H   H1946     1.0  0.56081  0.04554  0.61429  1.0000
  C   C2435     1.0  0.65433  0.05441  0.35121  1.0000
  C   C2436     1.0  0.64045  0.04679  0.36401  1.0000
  P   P84       1.0  0.73371  0.08599  0.50577  1.0000
  H   H1947     1.0  0.66582  0.05890  0.35628  1.0000
  C   C2437     1.0  0.61576  0.00834  0.53115  1.0000
  C   C2438     1.0  0.65393  0.99743  0.59910  1.0000
  C   C2439     1.0  0.68055  0.09946  0.63636  1.0000
  C   C2440     1.0  0.51946  0.02170  0.35001  1.0000
  C   C2441     1.0  0.57532  0.05467  0.34566  1.0000
  C   C2442     1.0  0.73491  0.08821  0.59126  1.0000
  H   H1948     1.0  0.70772  0.10789  0.48088  1.0000
  C   C2443     1.0  0.56276  0.05193  0.64186  1.0000
  C   C2444     1.0  0.59592  0.06524  0.62574  1.0000
  H   H1949     1.0  0.72103  0.03236  0.33973  1.0000
  C   C2445     1.0  0.72694  0.07422  0.47299  1.0000
  C   C2446     1.0  0.73667  0.06468  0.52193  1.0000
  C   C2447     1.0  0.69589  0.01356  0.49520  1.0000
  H   H1950     1.0  0.59028  0.05742  0.60002  1.0000
  H   H1951     1.0  0.71338  0.07214  0.48017  1.0000
  H   H1952     1.0  0.63852  0.00947  0.49355  1.0000
  H   H1953     1.0  0.51406  0.03548  0.35386  1.0000
  H   H1954     1.0  0.70714  0.02080  0.63163  1.0000
  H   H1955     1.0  0.58340  0.04955  0.35709  1.0000
  H   H1956     1.0  0.54987  0.04673  0.64769  1.0000
  C   C2448     1.0  0.62994  0.02135  0.64385  1.0000
  H   H1957     1.0  0.66899  0.09940  0.62876  1.0000
  C   C2449     1.0  0.61289  0.02426  0.54037  1.0000
  C   C2450     1.0  0.62597  0.02735  0.55122  1.0000
  C   C2451     1.0  0.69306  0.01100  0.65842  1.0000
  H   H1958     1.0  0.72799  0.01927  0.52796  1.0000
  C   C2452     1.0  0.54030  0.03630  0.38186  1.0000
  H   H1959     1.0  0.73529  0.08031  0.38435  1.0000
  H   H1960     1.0  0.62842  0.01969  0.46245  1.0000
  S   S329      1.0  0.73346  0.04050  0.38852  1.0000
  C   C2453     1.0  0.61757  0.01364  0.63534  1.0000
  H   H1961     1.0  0.63122  0.03621  0.64069  1.0000
  C   C2454     1.0  0.53788  0.01413  0.35186  1.0000
  C   C2455     1.0  0.73206  0.03200  0.53116  1.0000
  H   H1962     1.0  0.53797  0.07250  0.40734  1.0000
  H   H1963     1.0  0.62378  0.03969  0.55834  1.0000
  H   H1964     1.0  0.59810  0.07179  0.65293  1.0000
  H   H1965     1.0  0.60951  0.02247  0.62533  1.0000
  C   C2456     1.0  0.73168  0.08496  0.61078  1.0000
  P   P85       1.0  0.55271  0.02721  0.36113  1.0000
  C   C2457     1.0  0.70966  0.09590  0.50976  1.0000
  H   H1966     1.0  0.65222  0.01721  0.56105  1.0000
  C   C2458     1.0  0.70049  0.10567  0.49491  1.0000
  C   C2459     1.0  0.53479  0.05968  0.40335  1.0000
  C   C2460     1.0  0.69115  0.11427  0.63211  1.0000
  C   C2461     1.0  0.57330  0.01217  0.36742  1.0000
  H   H1967     1.0  0.60875  0.07051  0.61950  1.0000
  C   C2462     1.0  0.58980  0.06599  0.64473  1.0000
  C   C2463     1.0  0.68161  0.11220  0.49792  1.0000
  C   C2464     1.0  0.67188  0.10958  0.51586  1.0000
  C   C2465     1.0  0.68106  0.10061  0.53083  1.0000
  C   C2466     1.0  0.69986  0.09375  0.52783  1.0000
  H   H1968     1.0  0.55476  0.06068  0.37889  1.0000
  C   C2467     1.0  0.52129  0.04990  0.41445  1.0000
  H   H1969     1.0  0.73760  0.00091  0.38501  1.0000
  H   H1970     1.0  0.65680  0.01338  0.34823  1.0000
  H   H1971     1.0  0.73652  0.02052  0.55940  1.0000
  H   H1972     1.0  0.72759  0.12676  0.50660  1.0000
  C   C2468     1.0  0.51735  0.03326  0.40940  1.0000
  H   H1973     1.0  0.68796  0.12551  0.62106  1.0000
  C   C2469     1.0  0.64201  0.01464  0.55275  1.0000
  C   C2470     1.0  0.56894  0.05116  0.62284  1.0000
  C   C2471     1.0  0.64488  0.99864  0.54365  1.0000
  H   H1974     1.0  0.50696  0.02562  0.41805  1.0000
  C   C2472     1.0  0.62444  0.04321  0.33770  1.0000
  C   C2473     1.0  0.54428  0.05292  0.38714  1.0000
  C   C2474     1.0  0.63131  0.00031  0.48758  1.0000
  C   C2475     1.0  0.57384  0.00248  0.38557  1.0000
  C   C2476     1.0  0.62556  0.04113  0.35710  1.0000
  C   C2477     1.0  0.58110  0.06921  0.33227  1.0000
  H   H1975     1.0  0.65713  0.11411  0.51813  1.0000
  H   H1976     1.0  0.67345  0.09838  0.54469  1.0000
  H   H1977     1.0  0.70656  0.08658  0.53963  1.0000
  H   H1978     1.0  0.64829  0.01005  0.60505  1.0000
  H   H1979     1.0  0.66181  0.00082  0.38091  1.0000
  H   H1980     1.0  0.68799  0.02398  0.48616  1.0000
  H   H1981     1.0  0.61486  0.03505  0.36688  1.0000
  C   C2478     1.0  0.55951  0.04661  0.34412  1.0000
  H   H1982     1.0  0.60064  0.03435  0.53893  1.0000
  C   C2479     1.0  0.72248  0.01716  0.34229  1.0000
  C   C2480     1.0  0.54934  0.05369  0.32915  1.0000
  H   H1983     1.0  0.67441  0.11882  0.48623  1.0000
  C   C2481     1.0  0.58550  0.05785  0.61478  1.0000
  C   C2482     1.0  0.65724  0.99848  0.35284  1.0000
  H   H1984     1.0  0.61299  0.03876  0.33259  1.0000
  H   H1985     1.0  0.61689  0.99668  0.34840  1.0000
  C   C2483     1.0  0.65296  0.05691  0.33184  1.0000
  H   H1986     1.0  0.71437  0.04956  0.64184  1.0000
  H   H1987     1.0  0.59363  0.07493  0.33328  1.0000
  H   H1988     1.0  0.67549  0.01586  0.51935  1.0000
  H   H1989     1.0  0.56201  0.00392  0.39619  1.0000
  C   C2484     1.0  0.71316  0.00488  0.48809  1.0000
  C   C2485     1.0  0.70307  0.02346  0.64602  1.0000
  C   C2486     1.0  0.50794  0.01169  0.34282  1.0000
  H   H1990     1.0  0.72082  0.06630  0.44751  1.0000
  H   H1991     1.0  0.69326  0.01618  0.34987  1.0000
  H   H1992     1.0  0.68945  0.99878  0.65357  1.0000
  C   C2487     1.0  0.73110  0.07091  0.45439  1.0000
  C   C2488     1.0  0.73687  0.03269  0.54887  1.0000
  C   C2489     1.0  0.73987  0.08074  0.48195  1.0000
  C   C2490     1.0  0.60486  0.99818  0.35875  1.0000
  C   C2491     1.0  0.68498  0.08461  0.65019  1.0000
  C   C2492     1.0  0.73185  0.04793  0.51777  1.0000
  C   C2493     1.0  0.70683  0.00803  0.34807  1.0000
  C   C2494     1.0  0.71036  0.09970  0.65592  1.0000
  H   H1993     1.0  0.65678  0.00190  0.42401  1.0000
  H   H1994     1.0  0.57173  0.09794  0.65856  1.0000
  C   C2495     1.0  0.56721  0.00055  0.64943  1.0000
  H   H1995     1.0  0.67664  0.07323  0.65318  1.0000
  C   C2496     1.0  0.69897  0.99543  0.52545  1.0000
  H   H1996     1.0  0.57557  0.00641  0.63707  1.0000
  C   C2497     1.0  0.70600  0.11444  0.64196  1.0000
  H   H1997     1.0  0.71439  0.12581  0.63849  1.0000
  C   C2498     1.0  0.70717  0.03968  0.65187  1.0000
  S   S330      1.0  0.68796  0.00530  0.60420  1.0000
  H   H1998     1.0  0.60551  0.00618  0.52271  1.0000
  H   H1999     1.0  0.73123  0.99763  0.60609  1.0000
  C   C2499     1.0  0.54449  0.99631  0.34661  1.0000
  H   H2000     1.0  0.53722  0.04780  0.32728  1.0000
  C   C2500     1.0  0.74000  0.00671  0.34012  1.0000
  H   H2001     1.0  0.61299  0.99874  0.44771  1.0000
  C   C2501     1.0  0.63181  0.99540  0.53267  1.0000
  Fe  Fe167     1.0  0.58510  0.03039  0.78409  1.0000
  S   S331      1.0  0.57911  0.04067  0.75478  1.0000
  C   C2502     1.0  0.51581  0.03010  0.78732  1.0000
  Fe  Fe168     1.0  0.59765  0.06732  0.78966  1.0000
  S   S332      1.0  0.59314  0.08033  0.76021  1.0000
  S   S333      1.0  0.60802  0.08529  0.80831  1.0000
  Fe  Fe169     1.0  0.56664  0.06738  0.76612  1.0000
  S   S334      1.0  0.53882  0.08375  0.76119  1.0000
  Fe  Fe170     1.0  0.60615  0.05261  0.75093  1.0000
  S   S335      1.0  0.62828  0.04608  0.72627  1.0000
  S   S336      1.0  0.57032  0.05624  0.79589  1.0000
  S   S337      1.0  0.61297  0.04048  0.77997  1.0000
  S   S338      1.0  0.71903  0.33380  0.94412  1.0000
  C   C2503     1.0  0.69175  0.06820  0.69940  1.0000
  Fe  Fe171     1.0  0.59056  0.11278  0.91402  1.0000
  S   S339      1.0  0.57697  0.14211  0.90695  1.0000
  S   S340      1.0  0.58858  0.08978  0.89630  1.0000
  Fe  Fe172     1.0  0.59973  0.12208  0.95194  1.0000
  S   S341      1.0  0.58680  0.15199  0.94715  1.0000
  S   S342      1.0  0.61493  0.10982  0.97690  1.0000
  Fe  Fe173     1.0  0.56439  0.13975  0.93700  1.0000
  S   S343      1.0  0.53439  0.14865  0.94633  1.0000
  Fe  Fe174     1.0  0.60072  0.15123  0.91774  1.0000
  S   S344      1.0  0.61613  0.17319  0.89973  1.0000
  S   S345      1.0  0.57627  0.10980  0.94378  1.0000
  S   S346      1.0  0.61547  0.12195  0.92286  1.0000
  Fe  Fe175     1.0  0.61425  0.30648  0.95358  1.0000
  S   S347      1.0  0.62479  0.27575  0.95811  1.0000
  S   S348      1.0  0.63152  0.33091  0.95100  1.0000
  Fe  Fe176     1.0  0.57333  0.29836  0.95482  1.0000
  S   S349      1.0  0.58115  0.26720  0.95930  1.0000
  S   S350      1.0  0.54333  0.31191  0.95657  1.0000
  Fe  Fe177     1.0  0.59937  0.27335  0.97905  1.0000
  H   H2002     1.0  0.72561  0.08449  0.69924  1.0000
  Fe  Fe178     1.0  0.60557  0.27248  0.93790  1.0000
  S   S351      1.0  0.61540  0.25719  0.91294  1.0000
  S   S352      1.0  0.58998  0.30423  0.97628  1.0000
  S   S353      1.0  0.59651  0.30350  0.93170  1.0000
  C   C2504     1.0  0.49443  0.17900  0.87453  1.0000
  H   H2003     1.0  0.52512  0.20754  0.79318  1.0000
  C   C2505     1.0  0.50755  0.31280  0.94988  1.0000
  C   C2506     1.0  0.52562  0.30331  0.94757  1.0000
  C   C2507     1.0  0.52912  0.28768  0.93788  1.0000
  C   C2508     1.0  0.51466  0.28189  0.93034  1.0000
  H   H2004     1.0  0.51368  0.20045  0.82656  1.0000
  H   H2005     1.0  0.50491  0.32529  0.95672  1.0000
  H   H2006     1.0  0.54301  0.28042  0.93570  1.0000
  H   H2007     1.0  0.51757  0.27026  0.92225  1.0000
  C   C2509     1.0  0.61604  0.19592  0.90521  1.0000
  C   C2510     1.0  0.62391  0.20873  0.89122  1.0000
  C   C2511     1.0  0.62396  0.22719  0.89427  1.0000
  C   C2512     1.0  0.61618  0.23317  0.91136  1.0000
  C   C2513     1.0  0.60887  0.22026  0.92584  1.0000
  C   C2514     1.0  0.60858  0.20160  0.92266  1.0000
  H   H2008     1.0  0.62990  0.20437  0.87783  1.0000
  H   H2009     1.0  0.62997  0.23696  0.88318  1.0000
  H   H2010     1.0  0.60334  0.22464  0.93931  1.0000
  H   H2011     1.0  0.60280  0.19161  0.93364  1.0000
  C   C2515     1.0  0.52042  0.14224  0.93150  1.0000
  H   H2012     1.0  0.49707  0.14713  0.80984  1.0000
  C   C2516     1.0  0.50262  0.24268  0.96422  1.0000
  H   H2013     1.0  0.53384  0.08945  0.68436  1.0000
  C   C2517     1.0  0.51699  0.12793  0.90448  1.0000
  C   C2518     1.0  0.52823  0.13218  0.91676  1.0000
  C   C2519     1.0  0.61424  0.35918  0.98987  1.0000
  H   H2014     1.0  0.49923  0.18711  0.95009  1.0000
  H   H2015     1.0  0.52295  0.11967  0.89348  1.0000
  H   H2016     1.0  0.54286  0.12733  0.91496  1.0000
  C   C2520     1.0  0.50233  0.05888  0.69006  1.0000
  H   H2017     1.0  0.50457  0.13615  0.97535  1.0000
  H   H2018     1.0  0.50851  0.02930  0.68896  1.0000
  C   C2521     1.0  0.70117  0.48274  0.90668  1.0000
  C   C2522     1.0  0.64829  0.23554  0.99238  1.0000
  C   C2523     1.0  0.69460  0.33339  0.94629  1.0000
  C   C2524     1.0  0.68184  0.34962  0.94724  1.0000
  C   C2525     1.0  0.66267  0.34857  0.94863  1.0000
  C   C2526     1.0  0.65592  0.33128  0.94940  1.0000
  C   C2527     1.0  0.66867  0.31503  0.94859  1.0000
  C   C2528     1.0  0.68786  0.31613  0.94689  1.0000
  H   H2019     1.0  0.68677  0.36301  0.94655  1.0000
  H   H2020     1.0  0.65299  0.36127  0.94906  1.0000
  H   H2021     1.0  0.66378  0.30165  0.94907  1.0000
  H   H2022     1.0  0.69756  0.30349  0.94608  1.0000
  H   H2023     1.0  0.71096  0.43554  0.91835  1.0000
  C   C2529     1.0  0.50020  0.02319  0.78370  1.0000
  C   C2530     1.0  0.60158  0.08690  0.83263  1.0000
  C   C2531     1.0  0.59035  0.07478  0.84416  1.0000
  C   C2532     1.0  0.58650  0.07593  0.86356  1.0000
  C   C2533     1.0  0.59373  0.08920  0.87169  1.0000
  C   C2534     1.0  0.60460  0.10159  0.86011  1.0000
  C   C2535     1.0  0.60857  0.10035  0.84074  1.0000
  H   H2024     1.0  0.58488  0.06434  0.83819  1.0000
  H   H2025     1.0  0.57793  0.06640  0.87232  1.0000
  H   H2026     1.0  0.61020  0.11193  0.86610  1.0000
  H   H2027     1.0  0.61729  0.10978  0.83199  1.0000
  C   C2536     1.0  0.63042  0.05606  0.70234  1.0000
  C   C2537     1.0  0.53700  0.00017  0.74764  1.0000
  C   C2538     1.0  0.61949  0.07246  0.69590  1.0000
  H   H2028     1.0  0.65236  0.03466  0.69436  1.0000
  H   H2029     1.0  0.60943  0.07956  0.70569  1.0000
  C   C2539     1.0  0.51405  0.25300  0.97131  1.0000
  C   C2540     1.0  0.63493  0.07089  0.66383  1.0000
  C   C2541     1.0  0.64527  0.05633  0.89487  1.0000
  H   H2030     1.0  0.66821  0.08379  0.68676  1.0000
  C   C2542     1.0  0.52318  0.07179  0.75297  1.0000
  C   C2543     1.0  0.52950  0.05782  0.74148  1.0000
  C   C2544     1.0  0.65554  0.06661  0.88028  1.0000
  H   H2031     1.0  0.54415  0.05436  0.73749  1.0000
  C   C2545     1.0  0.56934  0.03134  0.70749  1.0000
  C   C2546     1.0  0.69799  0.05978  0.71638  1.0000
  C   C2547     1.0  0.68636  0.06094  0.73327  1.0000
  C   C2548     1.0  0.66841  0.07040  0.73333  1.0000
  C   C2549     1.0  0.66214  0.07885  0.71653  1.0000
  H   H2032     1.0  0.71164  0.05188  0.71653  1.0000
  H   H2033     1.0  0.69107  0.05416  0.74632  1.0000
  H   H2034     1.0  0.65915  0.07083  0.74633  1.0000
  H   H2035     1.0  0.53292  0.12629  0.99173  1.0000
  C   C2550     1.0  0.54508  0.23805  0.90199  1.0000
  C   C2551     1.0  0.49447  0.09885  0.94750  1.0000
  H   H2036     1.0  0.54187  0.02337  0.79813  1.0000
  C   C2552     1.0  0.57222  0.09757  0.67337  1.0000
  C   C2553     1.0  0.61693  0.04380  0.93209  1.0000
  C   C2554     1.0  0.52487  0.09065  0.96756  1.0000
  H   H2037     1.0  0.60052  0.01561  0.88545  1.0000
  C   C2555     1.0  0.49553  0.13898  0.98802  1.0000
  C   C2556     1.0  0.70155  0.04339  0.67034  1.0000
  H   H2038     1.0  0.63409  0.13833  0.95048  1.0000
  H   H2039     1.0  0.56944  0.19999  0.96676  1.0000
  C   C2557     1.0  0.51178  0.09208  0.93869  1.0000
  C   C2558     1.0  0.64638  0.00579  0.90537  1.0000
  H   H2040     1.0  0.54393  0.23988  0.88717  1.0000
  H   H2041     1.0  0.65637  0.04769  0.66060  1.0000
  C   C2559     1.0  0.53051  0.23201  0.91496  1.0000
  C   C2560     1.0  0.49092  0.19812  0.94220  1.0000
  C   C2561     1.0  0.56874  0.21516  0.99015  1.0000
  H   H2042     1.0  0.72206  0.10015  0.66312  1.0000
  C   C2562     1.0  0.52958  0.01800  0.79576  1.0000
  H   H2043     1.0  0.60021  0.18311  0.96960  1.0000
  C   C2563     1.0  0.54828  0.23275  0.94017  1.0000
  C   C2564     1.0  0.50819  0.18951  0.86488  1.0000
  C   C2565     1.0  0.63244  0.15850  0.96966  1.0000
  H   H2044     1.0  0.61333  0.09263  0.67201  1.0000
  H   H2045     1.0  0.52887  0.24984  0.96918  1.0000
  C   C2566     1.0  0.50641  0.26805  0.98102  1.0000
  C   C2567     1.0  0.65112  0.06844  0.86204  1.0000
  C   C2568     1.0  0.67369  0.07771  0.69961  1.0000
  H   H2046     1.0  0.51741  0.04477  0.78337  1.0000
  H   H2047     1.0  0.67989  0.00471  0.68661  1.0000
  H   H2048     1.0  0.65482  0.01656  0.89892  1.0000
  C   C2569     1.0  0.68764  0.01439  0.67693  1.0000
  H   H2049     1.0  0.58169  0.05597  0.92425  1.0000
  C   C2570     1.0  0.49776  0.05268  0.74040  1.0000
  H   H2050     1.0  0.70531  0.29994  0.98535  1.0000
  P   P86       1.0  0.53142  0.17859  0.85835  1.0000
  C   C2571     1.0  0.53406  0.15334  0.86036  1.0000
  C   C2572     1.0  0.53976  0.18527  0.83406  1.0000
  C   C2573     1.0  0.55782  0.17828  0.82694  1.0000
  C   C2574     1.0  0.56413  0.18212  0.80789  1.0000
  C   C2575     1.0  0.55241  0.19280  0.79576  1.0000
  C   C2576     1.0  0.53431  0.19952  0.80266  1.0000
  C   C2577     1.0  0.52793  0.19566  0.82170  1.0000
  C   C2578     1.0  0.55007  0.14290  0.86665  1.0000
  C   C2579     1.0  0.55351  0.12361  0.86611  1.0000
  C   C2580     1.0  0.54116  0.11448  0.85914  1.0000
  C   C2581     1.0  0.52509  0.12469  0.85300  1.0000
  C   C2582     1.0  0.52163  0.14412  0.85334  1.0000
  C   C2583     1.0  0.54493  0.18512  0.87450  1.0000
  C   C2584     1.0  0.53969  0.18052  0.89375  1.0000
  C   C2585     1.0  0.55018  0.18471  0.90666  1.0000
  C   C2586     1.0  0.56605  0.19339  0.90052  1.0000
  C   C2587     1.0  0.57127  0.19821  0.88138  1.0000
  C   C2588     1.0  0.56066  0.19426  0.86836  1.0000
  C   C2589     1.0  0.50432  0.11708  0.81037  1.0000
  P   P87       1.0  0.61713  0.03459  0.91029  1.0000
  C   C2590     1.0  0.61740  0.03179  0.94906  1.0000
  H   H2051     1.0  0.51834  0.22929  0.90973  1.0000
  H   H2052     1.0  0.62524  0.22658  0.98299  1.0000
  H   H2053     1.0  0.56696  0.16960  0.83607  1.0000
  H   H2054     1.0  0.57807  0.17659  0.80252  1.0000
  H   H2055     1.0  0.55729  0.19566  0.78098  1.0000
  C   C2591     1.0  0.52765  0.99902  0.80093  1.0000
  C   C2592     1.0  0.68840  0.47315  0.93867  1.0000
  H   H2056     1.0  0.56018  0.14959  0.87169  1.0000
  H   H2057     1.0  0.56571  0.11577  0.87131  1.0000
  H   H2058     1.0  0.54393  0.09946  0.85883  1.0000
  H   H2059     1.0  0.51538  0.11745  0.84800  1.0000
  H   H2060     1.0  0.50938  0.15189  0.84803  1.0000
  H   H2061     1.0  0.52773  0.17326  0.89880  1.0000
  H   H2062     1.0  0.54632  0.18056  0.92141  1.0000
  H   H2063     1.0  0.57447  0.19612  0.91055  1.0000
  H   H2064     1.0  0.58383  0.20459  0.87672  1.0000
  H   H2065     1.0  0.56496  0.19810  0.85364  1.0000
  C   C2593     1.0  0.62786  0.33293  0.89937  1.0000
  C   C2594     1.0  0.64002  0.31709  0.90481  1.0000
  C   C2595     1.0  0.63900  0.30003  0.89867  1.0000
  C   C2596     1.0  0.62578  0.29877  0.88714  1.0000
  C   C2597     1.0  0.61328  0.31453  0.88183  1.0000
  C   C2598     1.0  0.61461  0.33172  0.88782  1.0000
  P   P88       1.0  0.59579  0.31296  0.86729  1.0000
  C   C2599     1.0  0.60049  0.29090  0.85779  1.0000
  C   C2600     1.0  0.57282  0.31434  0.88030  1.0000
  C   C2601     1.0  0.55888  0.30635  0.87419  1.0000
  C   C2602     1.0  0.54093  0.30782  0.88376  1.0000
  C   C2603     1.0  0.53670  0.31741  0.89938  1.0000
  C   C2604     1.0  0.55046  0.32532  0.90560  1.0000
  C   C2605     1.0  0.56843  0.32384  0.89611  1.0000
  C   C2606     1.0  0.59621  0.27439  0.86921  1.0000
  C   C2607     1.0  0.59975  0.25721  0.86209  1.0000
  C   C2608     1.0  0.60773  0.25635  0.84359  1.0000
  C   C2609     1.0  0.61206  0.27270  0.83212  1.0000
  C   C2610     1.0  0.60846  0.28994  0.83917  1.0000
  C   C2611     1.0  0.59671  0.33210  0.84844  1.0000
  C   C2612     1.0  0.61380  0.33803  0.84063  1.0000
  C   C2613     1.0  0.61465  0.35279  0.82598  1.0000
  C   C2614     1.0  0.59847  0.36170  0.81898  1.0000
  C   C2615     1.0  0.58142  0.35584  0.82662  1.0000
  C   C2616     1.0  0.58051  0.34109  0.84129  1.0000
  H   H2066     1.0  0.62851  0.34603  0.90452  1.0000
  H   H2067     1.0  0.65004  0.31797  0.91404  1.0000
  H   H2068     1.0  0.64817  0.28763  0.90319  1.0000
  H   H2069     1.0  0.62532  0.28535  0.88269  1.0000
  H   H2070     1.0  0.60524  0.34413  0.88381  1.0000
  H   H2071     1.0  0.56182  0.29906  0.86197  1.0000
  H   H2072     1.0  0.53025  0.30149  0.87918  1.0000
  H   H2073     1.0  0.52281  0.31848  0.90686  1.0000
  H   H2074     1.0  0.54721  0.33237  0.91800  1.0000
  H   H2075     1.0  0.57874  0.33005  0.90131  1.0000
  H   H2076     1.0  0.59046  0.27476  0.88375  1.0000
  H   H2077     1.0  0.59669  0.24448  0.87106  1.0000
  H   H2078     1.0  0.61072  0.24295  0.83822  1.0000
  H   H2079     1.0  0.61834  0.27199  0.81780  1.0000
  H   H2080     1.0  0.61202  0.30238  0.83006  1.0000
  H   H2081     1.0  0.62649  0.33120  0.84584  1.0000
  H   H2082     1.0  0.62788  0.35732  0.82005  1.0000
  H   H2083     1.0  0.59914  0.37315  0.80763  1.0000
  H   H2084     1.0  0.56887  0.36276  0.82120  1.0000
  H   H2085     1.0  0.56716  0.33680  0.84699  1.0000
  H   H2086     1.0  0.57232  0.24663  0.89820  1.0000
  C   C2617     1.0  0.50131  0.14763  0.93418  1.0000
  C   C2618     1.0  0.51031  0.20144  0.98632  1.0000
  H   H2087     1.0  0.52177  0.03807  0.72578  1.0000
  C   C2619     1.0  0.69194  0.03045  0.68292  1.0000
  C   C2620     1.0  0.49648  0.29115  0.93306  1.0000
  C   C2621     1.0  0.51680  0.04857  0.73494  1.0000
  C   C2622     1.0  0.50411  0.07622  0.75812  1.0000
  H   H2088     1.0  0.57307  0.01084  0.73165  1.0000
  H   H2089     1.0  0.51999  0.00603  0.72552  1.0000
  H   H2090     1.0  0.58344  0.00833  0.66858  1.0000
  C   C2623     1.0  0.63706  0.15207  0.95223  1.0000
  C   C2624     1.0  0.53330  0.04275  0.68351  1.0000
  S   S354      1.0  0.73504  0.36997  0.97257  1.0000
  H   H2091     1.0  0.61800  0.01681  0.94946  1.0000
  C   C2625     1.0  0.53109  0.99652  0.73133  1.0000
  H   H2092     1.0  0.61505  0.08539  0.94901  1.0000
  H   H2093     1.0  0.61483  0.04348  0.86967  1.0000
  H   H2094     1.0  0.67809  0.37618  0.97679  1.0000
  H   H2095     1.0  0.57669  0.12654  0.67041  1.0000
  C   C2626     1.0  0.69170  0.48747  0.92387  1.0000
  C   C2627     1.0  0.70518  0.44997  0.91967  1.0000
  C   C2628     1.0  0.51420  0.04239  0.68740  1.0000
  H   H2096     1.0  0.55532  0.12767  0.80376  1.0000
  H   H2097     1.0  0.51661  0.08822  0.80894  1.0000
  P   P89       1.0  0.70603  0.06495  0.67746  1.0000
  C   C2629     1.0  0.59689  0.03524  0.68547  1.0000
  C   C2630     1.0  0.57791  0.04039  0.69079  1.0000
  C   C2631     1.0  0.62617  0.04971  0.87294  1.0000
  P   P90       1.0  0.56546  0.06016  0.67771  1.0000
  C   C2632     1.0  0.54071  0.05964  0.68239  1.0000
  C   C2633     1.0  0.57014  0.08107  0.68579  1.0000
  C   C2634     1.0  0.56992  0.08142  0.70505  1.0000
  C   C2635     1.0  0.57210  0.09789  0.71173  1.0000
  C   C2636     1.0  0.57473  0.11409  0.69924  1.0000
  H   H2098     1.0  0.51549  0.27603  0.98603  1.0000
  C   C2637     1.0  0.57952  0.01726  0.71846  1.0000
  H   H2099     1.0  0.61098  0.35287  0.97837  1.0000
  C   C2638     1.0  0.69690  0.31160  0.99139  1.0000
  H   H2100     1.0  0.65886  0.07662  0.85074  1.0000
  H   H2101     1.0  0.68090  0.47636  0.95196  1.0000
  H   H2102     1.0  0.65090  0.01570  0.66232  1.0000
  C   C2639     1.0  0.61705  0.03912  0.96585  1.0000
  H   H2103     1.0  0.49499  0.13064  0.77564  1.0000
  H   H2104     1.0  0.53686  0.08745  0.97498  1.0000
  C   C2640     1.0  0.63749  0.22206  0.98992  1.0000
  H   H2105     1.0  0.54054  0.08342  0.94166  1.0000
  C   C2641     1.0  0.64380  0.04729  0.68945  1.0000
  H   H2106     1.0  0.56789  0.06907  0.71501  1.0000
  H   H2107     1.0  0.57171  0.09804  0.72664  1.0000
  H   H2108     1.0  0.57662  0.12677  0.70446  1.0000
  H   H2109     1.0  0.60419  0.04254  0.67326  1.0000
  H   H2110     1.0  0.51340  0.09024  0.92403  1.0000
  C   C2642     1.0  0.59443  0.19286  0.97942  1.0000
  H   H2111     1.0  0.64906  0.05491  0.90886  1.0000
  C   C2643     1.0  0.60695  0.02107  0.69645  1.0000
  C   C2644     1.0  0.63659  0.05981  0.85836  1.0000
  H   H2112     1.0  0.69125  0.42976  0.98450  1.0000
  H   H2113     1.0  0.60274  0.99939  0.92598  1.0000
  C   C2645     1.0  0.50267  0.48915  0.94612  1.0000
  C   C2646     1.0  0.64847  0.18136  0.93916  1.0000
  C   C2647     1.0  0.64410  0.18777  0.95664  1.0000
  H   H2114     1.0  0.52947  0.15370  0.80602  1.0000
  C   C2648     1.0  0.49481  0.21671  0.93976  1.0000
  H   H2115     1.0  0.61535  0.07281  0.91944  1.0000
  H   H2116     1.0  0.64793  0.15874  0.92329  1.0000
  C   C2649     1.0  0.64498  0.16351  0.93696  1.0000
  C   C2650     1.0  0.51908  0.10254  0.80873  1.0000
  H   H2117     1.0  0.49730  0.16397  0.87783  1.0000
  C   C2651     1.0  0.73523  0.46028  0.95629  1.0000
  C   C2652     1.0  0.52864  0.07618  0.68504  1.0000
  H   H2118     1.0  0.65399  0.19046  0.92712  1.0000
  H   H2119     1.0  0.64634  0.20188  0.95784  1.0000
  C   C2653     1.0  0.50819  0.13562  0.80912  1.0000
  C   C2654     1.0  0.54110  0.12481  0.80552  1.0000
  H   H2120     1.0  0.71604  0.46056  0.89168  1.0000
  H   H2121     1.0  0.68731  0.03285  0.69725  1.0000
  C   C2655     1.0  0.50441  0.20917  0.86219  1.0000
  C   C2656     1.0  0.57477  0.11394  0.68008  1.0000
  S   S355      1.0  0.72763  0.42396  0.96144  1.0000
  C   C2657     1.0  0.57672  0.20237  0.97783  1.0000
  H   H2122     1.0  0.49522  0.15497  0.94583  1.0000
  C   C2658     1.0  0.63630  0.17627  0.97213  1.0000
  C   C2659     1.0  0.50955  0.07575  0.68891  1.0000
  H   H2123     1.0  0.66685  0.07327  0.88312  1.0000
  H   H2124     1.0  0.63311  0.06130  0.84421  1.0000
  C   C2660     1.0  0.53736  0.10642  0.80639  1.0000
  H   H2125     1.0  0.50702  0.99725  0.67421  1.0000
  C   C2661     1.0  0.49795  0.13364  0.90688  1.0000
  H   H2126     1.0  0.55002  0.05751  0.91692  1.0000
  H   H2127     1.0  0.64803  0.08572  0.71657  1.0000
  C   C2662     1.0  0.49296  0.30654  0.94305  1.0000
  H   H2128     1.0  0.54869  0.09514  0.80497  1.0000
  C   C2663     1.0  0.70460  0.32789  0.99196  1.0000
  C   C2664     1.0  0.50746  0.09739  0.97655  1.0000
  H   H2129     1.0  0.69241  0.40487  0.96444  1.0000
  H   H2130     1.0  0.54323  0.03835  0.89393  1.0000
  C   C2665     1.0  0.68545  0.40323  0.97866  1.0000
  H   H2131     1.0  0.53655  0.49179  0.90905  1.0000
  C   C2666     1.0  0.56107  0.24177  0.90813  1.0000
  C   C2667     1.0  0.69511  0.45449  0.93653  1.0000
  S   S356      1.0  0.57717  0.00248  0.79884  1.0000
  H   H2132     1.0  0.53054  0.01235  0.75419  1.0000
  P   P91       1.0  0.51250  0.22330  0.95134  1.0000
  C   C2668     1.0  0.53181  0.22970  0.93426  1.0000
  H   H2133     1.0  0.56859  0.01745  0.87820  1.0000
  H   H2134     1.0  0.62169  0.01765  0.69265  1.0000
  H   H2135     1.0  0.69301  0.44352  0.94814  1.0000
  C   C2669     1.0  0.63016  0.04819  0.89141  1.0000
  C   C2670     1.0  0.51690  0.48320  0.93255  1.0000
  C   C2671     1.0  0.64603  0.05459  0.67032  1.0000
  C   C2672     1.0  0.52020  0.20410  0.96833  1.0000
  C   C2673     1.0  0.53554  0.19110  0.96340  1.0000
  C   C2674     1.0  0.54106  0.17581  0.97633  1.0000
  H   H2136     1.0  0.52118  0.46834  0.93202  1.0000
  H   H2137     1.0  0.55500  0.03554  0.71246  1.0000
  H   H2138     1.0  0.61593  0.06424  0.97875  1.0000
  C   C2675     1.0  0.73028  0.06387  0.67988  1.0000
  C   C2676     1.0  0.62180  0.07986  0.67679  1.0000
  H   H2139     1.0  0.57499  0.24219  0.93188  1.0000
  C   C2677     1.0  0.56264  0.23912  0.92719  1.0000
  H   H2140     1.0  0.64329  0.35032  0.98432  1.0000
  C   C2678     1.0  0.70812  0.46408  0.90471  1.0000
  C   C2679     1.0  0.59834  0.01226  0.71305  1.0000
  H   H2141     1.0  0.51511  0.21760  0.85563  1.0000
  H   H2142     1.0  0.55009  0.23036  0.95479  1.0000
  H   H2143     1.0  0.54311  0.19254  0.94951  1.0000
  H   H2144     1.0  0.55270  0.16561  0.97232  1.0000
  C   C2680     1.0  0.52652  0.13944  0.80678  1.0000
  C   C2681     1.0  0.62767  0.01044  0.91215  1.0000
  C   C2682     1.0  0.52701  0.08816  0.94866  1.0000
  C   C2683     1.0  0.59357  0.03554  0.90551  1.0000
  C   C2684     1.0  0.57907  0.04713  0.91450  1.0000
  C   C2685     1.0  0.56099  0.04806  0.91036  1.0000
  C   C2686     1.0  0.55719  0.03732  0.89735  1.0000
  C   C2687     1.0  0.57148  0.02557  0.88851  1.0000
  C   C2688     1.0  0.58958  0.02461  0.89261  1.0000
  C   C2689     1.0  0.61595  0.06321  0.93225  1.0000
  C   C2690     1.0  0.61570  0.07043  0.94901  1.0000
  C   C2691     1.0  0.61621  0.05845  0.96581  1.0000
  C   C2692     1.0  0.49803  0.00429  0.78909  1.0000
  H   H2145     1.0  0.60643  0.00217  0.72215  1.0000
  H   H2146     1.0  0.61740  0.02984  0.97891  1.0000
  H   H2147     1.0  0.55504  0.22258  0.98889  1.0000
  Fe  Fe179     1.0  0.73680  0.35670  0.94631  1.0000
  C   C2693     1.0  0.61716  0.99609  0.92052  1.0000
  H   H2148     1.0  0.54229  0.02989  0.68159  1.0000
  H   H2149     1.0  0.50034  0.08844  0.69142  1.0000
  C   C2694     1.0  0.68479  0.41728  0.98997  1.0000
  H   H2150     1.0  0.49922  0.08688  0.76714  1.0000
  H   H2151     1.0  0.62548  0.14971  0.98103  1.0000
  C   C2695     1.0  0.57152  0.00179  0.66720  1.0000
  H   H2152     1.0  0.49819  0.21106  0.99034  1.0000
  C   C2696     1.0  0.73582  0.07566  0.69105  1.0000
  H   H2153     1.0  0.72611  0.46183  0.96916  1.0000
  C   C2697     1.0  0.49235  0.10170  0.96627  1.0000
  H   H2154     1.0  0.50592  0.30672  0.98861  1.0000
  C   C2698     1.0  0.67751  0.38691  0.98577  1.0000
  H   H2155     1.0  0.64410  0.25021  0.98770  1.0000
  C   C2699     1.0  0.49141  0.06651  0.75209  1.0000
  H   H2156     1.0  0.70350  0.49350  0.89492  1.0000
  H   H2157     1.0  0.71902  0.32870  0.98654  1.0000
  H   H2158     1.0  0.49589  0.47890  0.95608  1.0000
  C   C2700     1.0  0.73871  0.44289  0.94945  1.0000
  H   H2159     1.0  0.56426  0.99548  0.69677  1.0000
  C   C2701     1.0  0.70006  0.08448  0.65996  1.0000
  H   H2160     1.0  0.66255  0.49395  0.90358  1.0000
  H   H2161     1.0  0.74021  0.04415  0.65993  1.0000
  C   C2702     1.0  0.61243  0.86737  0.31837  1.0000
  Fe  Fe180     1.0  0.73153  0.56359  0.11950  1.0000
  S   S357      1.0  0.70387  0.57729  0.13311  1.0000
  C   C2703     1.0  0.51556  0.81941  0.19209  1.0000
  Fe  Fe181     1.0  0.56389  0.62880  0.09502  1.0000
  S   S358      1.0  0.57187  0.59880  0.10588  1.0000
  S   S359      1.0  0.55079  0.63607  0.06858  1.0000
  Fe  Fe182     1.0  0.57360  0.64310  0.12871  1.0000
  S   S360      1.0  0.58229  0.61385  0.14256  1.0000
  S   S361      1.0  0.57174  0.66875  0.14340  1.0000
  Fe  Fe183     1.0  0.59697  0.60851  0.11396  1.0000
  S   S362      1.0  0.62495  0.59276  0.10308  1.0000
  Fe  Fe184     1.0  0.55663  0.60691  0.13299  1.0000
  S   S363      1.0  0.53649  0.58925  0.15117  1.0000
  S   S364      1.0  0.58984  0.63834  0.10089  1.0000
  S   S365      1.0  0.54702  0.63629  0.12152  1.0000
  C   C2704     1.0  0.54998  0.59001  0.03528  1.0000
  Fe  Fe185     1.0  0.55541  0.80626  0.10992  1.0000
  S   S366      1.0  0.57341  0.82843  0.09774  1.0000
  S   S367      1.0  0.52693  0.81601  0.12385  1.0000
  Fe  Fe186     1.0  0.58618  0.77410  0.10306  1.0000
  S   S368      1.0  0.60656  0.79441  0.09177  1.0000
  S   S369      1.0  0.59613  0.74415  0.09727  1.0000
  Fe  Fe187     1.0  0.59377  0.81084  0.11541  1.0000
  S   S370      1.0  0.60889  0.82674  0.13189  1.0000
  Fe  Fe188     1.0  0.58413  0.80981  0.07534  1.0000
  S   S371      1.0  0.59324  0.81689  0.04413  1.0000
  S   S372      1.0  0.57540  0.78904  0.12827  1.0000
  S   S373      1.0  0.56416  0.78920  0.08601  1.0000
  C   C2705     1.0  0.73327  0.50340  0.06740  1.0000
  H   H2162     1.0  0.67413  0.51287  0.06739  1.0000
  C   C2706     1.0  0.49580  0.97450  0.29437  1.0000
  H   H2163     1.0  0.63098  0.55675  0.08188  1.0000
  Fe  Fe189     1.0  0.58640  0.85862  0.23640  1.0000
  S   S374      1.0  0.56780  0.88571  0.23200  1.0000
  S   S375      1.0  0.58583  0.83555  0.21845  1.0000
  Fe  Fe190     1.0  0.59621  0.86809  0.27348  1.0000
  S   S376      1.0  0.57800  0.89562  0.27156  1.0000
  Fe  Fe191     1.0  0.55734  0.88043  0.26241  1.0000
  H   H2164     1.0  0.50420  0.98534  0.29507  1.0000
  Fe  Fe192     1.0  0.58983  0.89898  0.24139  1.0000
  S   S377      1.0  0.59564  0.92750  0.22658  1.0000
  S   S378      1.0  0.57439  0.85228  0.26667  1.0000
  S   S379      1.0  0.60963  0.87222  0.24347  1.0000
  C   C2707     1.0  0.54334  0.93425  0.28637  1.0000
  C   C2708     1.0  0.65215  0.53497  0.07261  1.0000
  C   C2709     1.0  0.51739  0.85530  0.28322  1.0000
  C   C2710     1.0  0.51156  0.87392  0.27639  1.0000
  C   C2711     1.0  0.63267  0.76948  0.00392  1.0000
  H   H2165     1.0  0.63513  0.54839  0.11521  1.0000
  C   C2712     1.0  0.51489  0.89411  0.32136  1.0000
  H   H2166     1.0  0.53183  0.85078  0.28467  1.0000
  H   H2167     1.0  0.50008  0.70927  0.07685  1.0000
  C   C2713     1.0  0.56978  0.90956  0.12554  1.0000
  C   C2714     1.0  0.59878  0.96914  0.26702  1.0000
  C   C2715     1.0  0.59645  0.97564  0.24834  1.0000
  C   C2716     1.0  0.59564  0.96281  0.23589  1.0000
  C   C2717     1.0  0.59727  0.94348  0.24207  1.0000
  C   C2718     1.0  0.60011  0.93708  0.26060  1.0000
  C   C2719     1.0  0.60069  0.94985  0.27305  1.0000
  H   H2168     1.0  0.64490  0.81121  0.00399  1.0000
  H   H2169     1.0  0.59370  0.96788  0.22151  1.0000
  H   H2170     1.0  0.60223  0.92225  0.26532  1.0000
  H   H2171     1.0  0.60273  0.94471  0.28740  1.0000
  C   C2720     1.0  0.54135  0.94066  0.23952  1.0000
  H   H2172     1.0  0.53248  0.79360  0.00020  1.0000
  H   H2173     1.0  0.59420  0.90370  0.19751  1.0000
  H   H2174     1.0  0.57860  0.87294  0.14597  1.0000
  C   C2721     1.0  0.60222  0.82919  0.15594  1.0000
  C   C2722     1.0  0.59085  0.81733  0.16761  1.0000
  C   C2723     1.0  0.58612  0.81951  0.18669  1.0000
  C   C2724     1.0  0.59228  0.83382  0.19425  1.0000
  C   C2725     1.0  0.60357  0.84575  0.18259  1.0000
  C   C2726     1.0  0.60870  0.84326  0.16359  1.0000
  H   H2175     1.0  0.58596  0.80629  0.16201  1.0000
  H   H2176     1.0  0.57767  0.81006  0.19571  1.0000
  H   H2177     1.0  0.60859  0.85664  0.18828  1.0000
  H   H2178     1.0  0.61770  0.85228  0.15471  1.0000
  C   C2727     1.0  0.64348  0.54030  0.10488  1.0000
  C   C2728     1.0  0.55360  0.82395  0.00930  1.0000
  C   C2729     1.0  0.56215  0.82304  0.02556  1.0000
  C   C2730     1.0  0.58033  0.81425  0.02618  1.0000
  C   C2731     1.0  0.58937  0.80549  0.01082  1.0000
  H   H2179     1.0  0.60160  0.85748  0.00192  1.0000
  C   C2732     1.0  0.49265  0.66177  0.15232  1.0000
  H   H2180     1.0  0.55507  0.83001  0.03721  1.0000
  H   H2181     1.0  0.60340  0.79875  0.01118  1.0000
  H   H2182     1.0  0.60069  0.73914  0.01709  1.0000
  C   C2733     1.0  0.50998  0.81609  0.10939  1.0000
  C   C2734     1.0  0.72073  0.53527  0.01934  1.0000
  C   C2735     1.0  0.57726  0.63737  0.01604  1.0000
  C   C2736     1.0  0.57847  0.68969  0.13049  1.0000
  C   C2737     1.0  0.57679  0.70580  0.13941  1.0000
  C   C2738     1.0  0.58210  0.72266  0.12944  1.0000
  C   C2739     1.0  0.58903  0.72350  0.11046  1.0000
  C   C2740     1.0  0.59085  0.70733  0.10161  1.0000
  C   C2741     1.0  0.58555  0.69051  0.11157  1.0000
  H   H2183     1.0  0.57150  0.70518  0.15410  1.0000
  H   H2184     1.0  0.58115  0.73489  0.13650  1.0000
  H   H2185     1.0  0.59625  0.70787  0.08694  1.0000
  H   H2186     1.0  0.58692  0.67820  0.10462  1.0000
  H   H2187     1.0  0.53676  0.92477  0.28017  1.0000
  C   C2742     1.0  0.52756  0.81148  0.24820  1.0000
  C   C2743     1.0  0.50126  0.58362  0.16487  1.0000
  C   C2744     1.0  0.51228  0.59344  0.15062  1.0000
  H   H2188     1.0  0.61266  0.55107  0.00394  1.0000
  C   C2745     1.0  0.51184  0.76991  0.11495  1.0000
  C   C2746     1.0  0.53496  0.79980  0.27964  1.0000
  H   H2189     1.0  0.51220  0.61327  0.12545  1.0000
  C   C2747     1.0  0.51092  0.76165  0.09906  1.0000
  C   C2748     1.0  0.58643  0.62969  0.05255  1.0000
  C   C2749     1.0  0.56799  0.63461  0.04955  1.0000
  C   C2750     1.0  0.56333  0.63845  0.03134  1.0000
  H   H2190     1.0  0.59008  0.62614  0.06653  1.0000
  H   H2191     1.0  0.54899  0.64208  0.02917  1.0000
  C   C2751     1.0  0.68208  0.58122  0.12450  1.0000
  C   C2752     1.0  0.67991  0.57690  0.10694  1.0000
  C   C2753     1.0  0.66234  0.58053  0.10067  1.0000
  C   C2754     1.0  0.64676  0.58856  0.11178  1.0000
  C   C2755     1.0  0.64894  0.59270  0.12939  1.0000
  C   C2756     1.0  0.66651  0.58916  0.13563  1.0000
  H   H2192     1.0  0.69175  0.57083  0.09818  1.0000
  H   H2193     1.0  0.66085  0.57717  0.08705  1.0000
  H   H2194     1.0  0.63710  0.59829  0.13840  1.0000
  H   H2195     1.0  0.66801  0.59246  0.14928  1.0000
  H   H2196     1.0  0.53069  0.79388  0.29388  1.0000
  C   C2757     1.0  0.50948  0.85352  0.23352  1.0000
  C   C2758     1.0  0.65460  0.96025  0.30669  1.0000
  H   H2197     1.0  0.61454  0.62534  0.03971  1.0000
  C   C2759     1.0  0.51263  0.60723  0.06430  1.0000
  P   P92       1.0  0.52524  0.73843  0.07146  1.0000
  C   C2760     1.0  0.53568  0.71449  0.07650  1.0000
  C   C2761     1.0  0.53805  0.74928  0.05057  1.0000
  C   C2762     1.0  0.55307  0.75869  0.05173  1.0000
  C   C2763     1.0  0.56313  0.76670  0.03550  1.0000
  C   C2764     1.0  0.55846  0.76516  0.01795  1.0000
  C   C2765     1.0  0.54369  0.75562  0.01662  1.0000
  C   C2766     1.0  0.53343  0.74781  0.03284  1.0000
  C   C2767     1.0  0.53430  0.70555  0.09505  1.0000
  C   C2768     1.0  0.54319  0.68740  0.09919  1.0000
  C   C2769     1.0  0.55297  0.67786  0.08482  1.0000
  C   C2770     1.0  0.55387  0.68634  0.06629  1.0000
  C   C2771     1.0  0.54533  0.70466  0.06210  1.0000
  C   C2772     1.0  0.52630  0.75010  0.09145  1.0000
  H   H2198     1.0  0.54691  0.79979  0.15914  1.0000
  S   S380      1.0  0.52714  0.89050  0.27019  1.0000
  C   C2773     1.0  0.52806  0.76696  0.12329  1.0000
  C   C2774     1.0  0.54340  0.75552  0.11584  1.0000
  C   C2775     1.0  0.54256  0.74705  0.10005  1.0000
  C   C2776     1.0  0.58072  0.80613  0.99470  1.0000
  H   H2199     1.0  0.55719  0.75986  0.06508  1.0000
  H   H2200     1.0  0.57458  0.77414  0.03657  1.0000
  C   C2777     1.0  0.71101  0.94017  0.31095  1.0000
  H   H2201     1.0  0.56842  0.96757  0.30753  1.0000
  H   H2202     1.0  0.52203  0.74048  0.03153  1.0000
  H   H2203     1.0  0.52671  0.71270  0.10639  1.0000
  H   H2204     1.0  0.54282  0.68081  0.11358  1.0000
  H   H2205     1.0  0.55988  0.66386  0.08804  1.0000
  C   C2778     1.0  0.56989  0.92889  0.17034  1.0000
  H   H2206     1.0  0.50763  0.57432  0.17584  1.0000
  P   P93       1.0  0.51139  0.81522  0.23117  1.0000
  C   C2779     1.0  0.66240  0.97409  0.26869  1.0000
  H   H2207     1.0  0.52888  0.77391  0.13525  1.0000
  H   H2208     1.0  0.55613  0.75359  0.12200  1.0000
  H   H2209     1.0  0.55469  0.73825  0.09447  1.0000
  C   C2780     1.0  0.54729  0.87256  0.19364  1.0000
  C   C2781     1.0  0.54916  0.85742  0.18346  1.0000
  C   C2782     1.0  0.55988  0.85800  0.16596  1.0000
  C   C2783     1.0  0.53088  0.62234  0.00381  1.0000
  H   H2210     1.0  0.53953  0.87183  0.20749  1.0000
  H   H2211     1.0  0.54290  0.84496  0.18941  1.0000
  H   H2212     1.0  0.56175  0.84605  0.15827  1.0000
  H   H2213     1.0  0.50811  0.80099  0.27136  1.0000
  C   C2784     1.0  0.60996  0.84607  0.99539  1.0000
  C   C2785     1.0  0.66820  0.51558  0.09696  1.0000
  C   C2786     1.0  0.50175  0.80943  0.08034  1.0000
  C   C2787     1.0  0.51072  0.91275  0.31374  1.0000
  H   H2214     1.0  0.56310  0.80045  0.28416  1.0000
  H   H2215     1.0  0.51846  0.82236  0.16201  1.0000
  C   C2788     1.0  0.50167  0.63355  0.17322  1.0000
  H   H2216     1.0  0.52257  0.85028  0.23913  1.0000
  H   H2217     1.0  0.54600  0.98074  0.28597  1.0000
  H   H2218     1.0  0.51122  0.66662  0.11356  1.0000
  H   H2219     1.0  0.50307  0.82928  0.19284  1.0000
  P   P94       1.0  0.67497  0.58548  0.01236  1.0000
  H   H2220     1.0  0.57257  0.81462  0.25186  1.0000
  C   C2789     1.0  0.58732  0.58660  0.04090  1.0000
  H   H2221     1.0  0.49162  0.75223  0.24060  1.0000
  H   H2222     1.0  0.52972  0.62956  0.17956  1.0000
  C   C2790     1.0  0.51511  0.81257  0.09090  1.0000
  H   H2223     1.0  0.59413  0.93527  0.18077  1.0000
  C   C2791     1.0  0.52507  0.56906  0.02407  1.0000
  C   C2792     1.0  0.59578  0.63285  0.01912  1.0000
  C   C2793     1.0  0.65494  0.57501  0.00971  1.0000
  C   C2794     1.0  0.57361  0.58506  0.05622  1.0000
  H   H2224     1.0  0.52566  0.85539  0.15007  1.0000
  C   C2795     1.0  0.53983  0.95367  0.28122  1.0000
  C   C2796     1.0  0.62461  0.55743  0.00560  1.0000
  H   H2225     1.0  0.61607  0.89038  0.14212  1.0000
  H   H2226     1.0  0.55528  0.89949  0.19477  1.0000
  H   H2227     1.0  0.59519  0.99051  0.24352  1.0000
  C   C2797     1.0  0.58257  0.58903  0.02278  1.0000
  C   C2798     1.0  0.50380  0.60552  0.13647  1.0000
  C   C2799     1.0  0.55531  0.92692  0.29965  1.0000
  C   C2800     1.0  0.67326  0.97763  0.28164  1.0000
  C   C2801     1.0  0.63444  0.81988  0.99644  1.0000
  C   C2802     1.0  0.50435  0.84261  0.28859  1.0000
  H   H2228     1.0  0.56137  0.91105  0.09820  1.0000
  H   H2229     1.0  0.50831  0.88309  0.23469  1.0000
  H   H2230     1.0  0.53954  0.66990  0.00876  1.0000
  C   C2803     1.0  0.63749  0.88511  0.18110  1.0000
  C   C2804     1.0  0.49990  0.66529  0.10618  1.0000
  C   C2805     1.0  0.51047  0.66684  0.15156  1.0000
  C   C2806     1.0  0.49950  0.78010  0.23532  1.0000
  H   H2231     1.0  0.54552  0.97471  0.18951  1.0000
  C   C2807     1.0  0.56106  0.95823  0.30213  1.0000
  H   H2232     1.0  0.66503  0.97983  0.25409  1.0000
  H   H2233     1.0  0.50007  0.77904  0.12051  1.0000
  H   H2234     1.0  0.50906  0.91599  0.29905  1.0000
  C   C2808     1.0  0.70438  0.51247  0.15710  1.0000
  C   C2809     1.0  0.52301  0.81060  0.20835  1.0000
  C   C2810     1.0  0.69396  0.50266  0.12463  1.0000
  C   C2811     1.0  0.65687  0.52559  0.11038  1.0000
  H   H2235     1.0  0.57727  0.85396  0.30712  1.0000
  C   C2812     1.0  0.55847  0.81160  0.25599  1.0000
  C   C2813     1.0  0.59750  0.88045  0.32407  1.0000
  H   H2236     1.0  0.70772  0.53918  0.14101  1.0000
  C   C2814     1.0  0.52357  0.65550  0.16174  1.0000
  C   C2815     1.0  0.52219  0.80378  0.26672  1.0000
  C   C2816     1.0  0.50051  0.83928  0.22916  1.0000
  C   C2817     1.0  0.50160  0.73883  0.06731  1.0000
  H   H2237     1.0  0.50588  0.80603  0.06624  1.0000
  H   H2238     1.0  0.50093  0.78391  0.19178  1.0000
  H   H2239     1.0  0.69800  0.53113  0.11261  1.0000
  C   C2818     1.0  0.53885  0.79726  0.20662  1.0000
  C   C2819     1.0  0.50084  0.86111  0.13684  1.0000
  H   H2240     1.0  0.53982  0.83140  0.00868  1.0000
  H   H2241     1.0  0.55012  0.82208  0.22898  1.0000
  C   C2820     1.0  0.51010  0.94100  0.22174  1.0000
  C   C2821     1.0  0.52689  0.93081  0.21548  1.0000
  C   C2822     1.0  0.52431  0.95014  0.24645  1.0000
  C   C2823     1.0  0.50892  0.95101  0.23690  1.0000
  P   P95       1.0  0.52267  0.96316  0.26591  1.0000
  H   H2242     1.0  0.64306  0.77511  0.00971  1.0000
  C   C2824     1.0  0.60030  0.62901  0.03734  1.0000
  S   S381      1.0  0.61458  0.85828  0.29668  1.0000
  C   C2825     1.0  0.52641  0.98663  0.25578  1.0000
  C   C2826     1.0  0.51927  0.63874  0.17235  1.0000
  H   H2243     1.0  0.50039  0.68487  0.02612  1.0000
  C   C2827     1.0  0.66949  0.97060  0.30055  1.0000
  H   H2244     1.0  0.54464  0.62183  0.00735  1.0000
  H   H2245     1.0  0.50871  0.82836  0.29437  1.0000
  S   S382      1.0  0.61361  0.63201  0.00056  1.0000
  H   H2246     1.0  0.52782  0.92300  0.20378  1.0000
  C   C2828     1.0  0.50098  0.61122  0.00821  1.0000
  H   H2247     1.0  0.68522  0.55926  0.04480  1.0000
  H   H2248     1.0  0.64628  0.56914  0.03944  1.0000
  C   C2829     1.0  0.54572  0.81573  0.24304  1.0000
  H   H2249     1.0  0.51447  0.67934  0.14281  1.0000
  H   H2250     1.0  0.58702  0.92831  0.08198  1.0000
  C   C2830     1.0  0.53071  0.56649  0.00530  1.0000
  C   C2831     1.0  0.64426  0.72588  0.08013  1.0000
  C   C2832     1.0  0.65900  0.73137  0.08710  1.0000
  C   C2833     1.0  0.67286  0.71784  0.09378  1.0000
  C   C2834     1.0  0.67195  0.69879  0.09356  1.0000
  C   C2835     1.0  0.65732  0.69317  0.08628  1.0000
  C   C2836     1.0  0.64336  0.70688  0.07977  1.0000
  P   P96       1.0  0.65480  0.66861  0.08820  1.0000
  C   C2837     1.0  0.64350  0.66529  0.06869  1.0000
  C   C2838     1.0  0.67734  0.65455  0.08785  1.0000
  C   C2839     1.0  0.68053  0.63853  0.10099  1.0000
  C   C2840     1.0  0.69785  0.62760  0.10023  1.0000
  C   C2841     1.0  0.71221  0.63258  0.08650  1.0000
  C   C2842     1.0  0.70934  0.64869  0.07365  1.0000
  C   C2843     1.0  0.69205  0.65972  0.07441  1.0000
  C   C2844     1.0  0.62408  0.66760  0.07026  1.0000
  C   C2845     1.0  0.61515  0.66621  0.05497  1.0000
  C   C2846     1.0  0.62551  0.66261  0.03794  1.0000
  C   C2847     1.0  0.64479  0.66000  0.03630  1.0000
  C   C2848     1.0  0.65379  0.66137  0.05157  1.0000
  C   C2849     1.0  0.64014  0.66235  0.10966  1.0000
  C   C2850     1.0  0.63383  0.64473  0.11313  1.0000
  C   C2851     1.0  0.62267  0.63967  0.12977  1.0000
  C   C2852     1.0  0.61728  0.65227  0.14285  1.0000
  C   C2853     1.0  0.62309  0.67001  0.13930  1.0000
  C   C2854     1.0  0.63455  0.67505  0.12282  1.0000
  H   H2251     1.0  0.63318  0.73636  0.07554  1.0000
  H   H2252     1.0  0.65941  0.74611  0.08770  1.0000
  H   H2253     1.0  0.68407  0.72211  0.09956  1.0000
  H   H2254     1.0  0.68241  0.68848  0.09949  1.0000
  H   H2255     1.0  0.63145  0.70300  0.07493  1.0000
  H   H2256     1.0  0.66982  0.63423  0.11189  1.0000
  H   H2257     1.0  0.70014  0.61519  0.11035  1.0000
  H   H2258     1.0  0.54011  0.75445  0.00297  1.0000
  H   H2259     1.0  0.72055  0.65261  0.06308  1.0000
  H   H2260     1.0  0.69012  0.67225  0.06443  1.0000
  H   H2261     1.0  0.61578  0.67076  0.08322  1.0000
  H   H2262     1.0  0.60017  0.66792  0.05631  1.0000
  H   H2263     1.0  0.61862  0.66162  0.02602  1.0000
  H   H2264     1.0  0.65275  0.65684  0.02315  1.0000
  H   H2265     1.0  0.66869  0.65933  0.04982  1.0000
  H   H2266     1.0  0.63756  0.63483  0.10305  1.0000
  H   H2267     1.0  0.61795  0.62606  0.13236  1.0000
  H   H2268     1.0  0.60815  0.64849  0.15550  1.0000
  H   H2269     1.0  0.61837  0.68000  0.14918  1.0000
  H   H2270     1.0  0.63871  0.68895  0.12041  1.0000
  C   C2855     1.0  0.55139  0.93544  0.16788  1.0000
  H   H2271     1.0  0.60158  0.58635  0.04308  1.0000
  H   H2272     1.0  0.55990  0.78340  0.18763  1.0000
  C   C2856     1.0  0.71966  0.50460  0.08289  1.0000
  C   C2857     1.0  0.60863  0.74926  0.00828  1.0000
  C   C2858     1.0  0.70399  0.52539  0.14094  1.0000
  H   H2273     1.0  0.51814  0.65798  0.08176  1.0000
  H   H2274     1.0  0.53464  0.57810  0.99511  1.0000
  H   H2275     1.0  0.52839  0.95699  0.17272  1.0000
  H   H2276     1.0  0.70418  0.94750  0.29927  1.0000
  C   C2859     1.0  0.71893  0.54519  0.00162  1.0000
  H   H2277     1.0  0.72557  0.62395  0.08591  1.0000
  H   H2278     1.0  0.56132  0.67866  0.05523  1.0000
  H   H2279     1.0  0.61949  0.55389  0.03569  1.0000
  H   H2280     1.0  0.51628  0.88320  0.31243  1.0000
  C   C2860     1.0  0.67126  0.59752  0.03279  1.0000
  H   H2281     1.0  0.56625  0.77146  0.00540  1.0000
  C   C2861     1.0  0.50100  0.96205  0.28099  1.0000
  H   H2282     1.0  0.51719  0.55520  0.13793  1.0000
  C   C2862     1.0  0.62432  0.83531  0.00422  1.0000
  C   C2863     1.0  0.62841  0.55912  0.02346  1.0000
  H   H2283     1.0  0.49818  0.76448  0.09287  1.0000
  C   C2864     1.0  0.68616  0.59866  0.04241  1.0000
  C   C2865     1.0  0.68309  0.60695  0.05891  1.0000
  C   C2866     1.0  0.66521  0.61436  0.06573  1.0000
  C   C2867     1.0  0.65045  0.61389  0.05588  1.0000
  C   C2868     1.0  0.65350  0.60583  0.03924  1.0000
  C   C2869     1.0  0.70474  0.56007  0.99927  1.0000
  C   C2870     1.0  0.56253  0.82994  0.31266  1.0000
  C   C2871     1.0  0.55504  0.58659  0.05347  1.0000
  C   C2872     1.0  0.69453  0.55547  0.03261  1.0000
  H   H2284     1.0  0.57429  0.93314  0.31701  1.0000
  H   H2285     1.0  0.71000  0.53281  0.04859  1.0000
  C   C2873     1.0  0.52141  0.55347  0.03726  1.0000
  H   H2286     1.0  0.51085  0.86900  0.17886  1.0000
  C   C2874     1.0  0.55234  0.96208  0.18395  1.0000
  S   S383      1.0  0.59954  0.98457  0.28325  1.0000
  H   H2287     1.0  0.68268  0.52148  0.00289  1.0000
  S   S384      1.0  0.73592  0.54969  0.09344  1.0000
  C   C2875     1.0  0.53187  0.54879  0.99961  1.0000
  H   H2288     1.0  0.68440  0.98609  0.27703  1.0000
  H   H2289     1.0  0.70011  0.59290  0.03737  1.0000
  H   H2290     1.0  0.69451  0.60728  0.06662  1.0000
  H   H2291     1.0  0.66268  0.62019  0.07882  1.0000
  H   H2292     1.0  0.63662  0.61963  0.06134  1.0000
  H   H2293     1.0  0.64199  0.60584  0.03156  1.0000
  H   H2294     1.0  0.57735  0.58312  0.07026  1.0000
  C   C2876     1.0  0.56403  0.59037  0.01995  1.0000
  C   C2877     1.0  0.56735  0.88875  0.16899  1.0000
  H   H2295     1.0  0.50603  0.94154  0.31890  1.0000
  H   H2296     1.0  0.67802  0.97348  0.31038  1.0000
  C   C2878     1.0  0.50888  0.92708  0.32495  1.0000
  C   C2879     1.0  0.54019  0.80262  0.17287  1.0000
  C   C2880     1.0  0.66565  0.52032  0.07803  1.0000
  C   C2881     1.0  0.50390  0.66041  0.08806  1.0000
  C   C2882     1.0  0.58579  0.92441  0.09702  1.0000
  P   P97       1.0  0.58092  0.90777  0.16095  1.0000
  H   H2297     1.0  0.50279  0.61900  0.08993  1.0000
  H   H2298     1.0  0.49819  0.57604  0.11604  1.0000
  C   C2883     1.0  0.55313  0.80360  0.27424  1.0000
  H   H2299     1.0  0.62694  0.83836  0.01765  1.0000
  H   H2300     1.0  0.49141  0.60172  0.01523  1.0000
  H   H2301     1.0  0.64619  0.87846  0.15307  1.0000
  C   C2884     1.0  0.52422  0.81551  0.17448  1.0000
  C   C2885     1.0  0.49289  0.58732  0.05517  1.0000
  H   H2302     1.0  0.72142  0.51294  0.09341  1.0000
  H   H2303     1.0  0.55565  0.97893  0.24731  1.0000
  H   H2304     1.0  0.52943  0.81172  0.08488  1.0000
  C   C2886     1.0  0.62242  0.75640  0.01531  1.0000
  C   C2887     1.0  0.69287  0.56577  0.01488  1.0000
  H   H2305     1.0  0.51928  0.52386  0.04171  1.0000
  C   C2888     1.0  0.56440  0.93888  0.30734  1.0000
  H   H2306     1.0  0.55776  0.91192  0.30376  1.0000
  C   C2889     1.0  0.49893  0.53386  0.14335  1.0000
  H   H2307     1.0  0.50717  0.52490  0.15313  1.0000
  H   H2308     1.0  0.53731  0.65938  0.16095  1.0000
  C   C2890     1.0  0.64413  0.95628  0.29348  1.0000
  C   C2891     1.0  0.64797  0.96327  0.27459  1.0000
  C   C2892     1.0  0.50951  0.59527  0.05198  1.0000
  P   P98       1.0  0.68597  0.49702  0.10405  1.0000
  C   C2893     1.0  0.51763  0.79737  0.00215  1.0000
  H   H2309     1.0  0.50730  0.85499  0.12439  1.0000
  H   H2310     1.0  0.51540  0.79219  0.03220  1.0000
  C   C2894     1.0  0.54261  0.93112  0.22402  1.0000
  C   C2895     1.0  0.57135  0.91467  0.10615  1.0000
  H   H2311     1.0  0.63270  0.94815  0.29776  1.0000
  H   H2312     1.0  0.63944  0.96062  0.26458  1.0000
  C   C2896     1.0  0.57968  0.93946  0.17918  1.0000
  P   P99       1.0  0.52602  0.59141  0.03148  1.0000
  H   H2313     1.0  0.49797  0.94122  0.21489  1.0000
  H   H2314     1.0  0.54373  0.92772  0.16074  1.0000
  C   C2897     1.0  0.54282  0.67822  0.99540  1.0000
  C   C2898     1.0  0.64115  0.54505  0.08601  1.0000
  C   C2899     1.0  0.51889  0.60970  0.01324  1.0000
  H   H2315     1.0  0.59324  0.59044  0.01092  1.0000
  H   H2316     1.0  0.50101  0.69786  0.20220  1.0000
  H   H2317     1.0  0.58707  0.88566  0.31493  1.0000
  C   C2900     1.0  0.50287  0.86895  0.16752  1.0000
  H   H2318     1.0  0.55589  0.92409  0.21862  1.0000
  H   H2319     1.0  0.52477  0.61442  0.06156  1.0000
  C   C2901     1.0  0.54269  0.95203  0.17457  1.0000
  C   C2902     1.0  0.50799  0.79667  0.02017  1.0000
  C   C2903     1.0  0.64354  0.56785  0.02553  1.0000
  H   H2320     1.0  0.65851  0.52228  0.12509  1.0000
  H   H2321     1.0  0.55828  0.90236  0.13238  1.0000
  C   C2904     1.0  0.56928  0.87340  0.15892  1.0000
  C   C2905     1.0  0.58298  0.91371  0.13586  1.0000
  C   C2906     1.0  0.55627  0.88822  0.18640  1.0000
  C   C2907     1.0  0.59855  0.92925  0.10729  1.0000
  C   C2908     1.0  0.59705  0.92409  0.12667  1.0000
  H   H2322     1.0  0.54644  0.71110  0.04769  1.0000
  C   C2909     1.0  0.51120  0.86130  0.15137  1.0000
  H   H2323     1.0  0.70854  0.51629  0.16953  1.0000
  C   C2910     1.0  0.50148  0.87225  0.23087  1.0000
  C   C2911     1.0  0.60317  0.89913  0.16869  1.0000
  C   C2912     1.0  0.60558  0.89882  0.18748  1.0000
  H   H2324     1.0  0.49910  0.79726  0.15856  1.0000
  H   H2325     1.0  0.51233  0.77573  0.22692  1.0000
  C   C2913     1.0  0.54859  0.96565  0.28942  1.0000
  H   H2326     1.0  0.62467  0.89268  0.20793  1.0000
  C   C2914     1.0  0.52222  0.53582  0.03150  1.0000
  C   C2915     1.0  0.62280  0.89228  0.19353  1.0000
  H   H2327     1.0  0.60960  0.93702  0.10025  1.0000
  H   H2328     1.0  0.60691  0.92813  0.13450  1.0000
  C   C2916     1.0  0.54423  0.99021  0.24767  1.0000
  H   H2329     1.0  0.54480  0.58509  0.06563  1.0000
  H   H2330     1.0  0.55371  0.94066  0.24596  1.0000
  C   C2917     1.0  0.61787  0.89149  0.15637  1.0000
  H   H2331     1.0  0.57371  0.64019  0.00196  1.0000
  C   C2918     1.0  0.54744  0.79338  0.18893  1.0000
  H   H2332     1.0  0.54467  0.78988  0.21889  1.0000
  C   C2919     1.0  0.63497  0.88456  0.16257  1.0000
  H   H2333     1.0  0.65070  0.87970  0.18594  1.0000
  C   C2920     1.0  0.69866  0.52065  0.12482  1.0000
  H   H2334     1.0  0.51828  0.55486  0.05202  1.0000
  H   H2335     1.0  0.65034  0.53858  0.05800  1.0000
  C   C2921     1.0  0.70846  0.54033  0.03481  1.0000
  H   H2336     1.0  0.61773  0.97761  0.31830  1.0000
  C   C2922     1.0  0.50006  0.61006  0.08028  1.0000
  H   H2337     1.0  0.49802  0.76861  0.05748  1.0000
  H   H2338     1.0  0.71315  0.91319  0.30140  1.0000
  H   H2339     1.0  0.49395  0.93760  0.27107  1.0000
  C   C2923     1.0  0.50461  0.55091  0.13477  1.0000
  H   H2340     1.0  0.62499  0.75198  0.02967  1.0000
  C   C2924     1.0  0.52738  0.53349  0.01266  1.0000
  C   C2925     1.0  0.71619  0.92081  0.31205  1.0000
  C   C2926     1.0  0.49282  0.72254  0.07138  1.0000
  H   H2341     1.0  0.57170  0.67685  0.99844  1.0000
  H   H2342     1.0  0.56073  0.59196  0.00574  1.0000
  C   C2927     1.0  0.57082  0.95579  0.18623  1.0000
  C   C2928     1.0  0.56495  0.84830  0.31416  1.0000
  H   H2343     1.0  0.49848  0.62031  0.18110  1.0000
  C   C2929     1.0  0.49490  0.79878  0.23893  1.0000
  C   C2930     1.0  0.56303  0.81589  0.99362  1.0000
  C   C2931     1.0  0.49386  0.56271  0.12244  1.0000
  H   H2344     1.0  0.52828  0.51978  0.00823  1.0000
  H   H2345     1.0  0.49591  0.95921  0.24134  1.0000
  H   H2346     1.0  0.57303  0.82152  0.30434  1.0000
  H   H2347     1.0  0.49804  0.85373  0.32514  1.0000
  H   H2348     1.0  0.57834  0.96348  0.19358  1.0000
  C   C2932     1.0  0.49128  0.81788  0.11690  1.0000
  C   C2933     1.0  0.49163  0.75581  0.06042  1.0000
  H   H2349     1.0  0.73180  0.52381  0.02107  1.0000
  H   H2350     1.0  0.55402  0.87342  0.32609  1.0000
  H   H2351     1.0  0.49277  0.65410  0.06436  1.0000
  C   C2934     1.0  0.49279  0.87978  0.27495  1.0000
  H   H2352     1.0  0.49306  0.56567  0.99768  1.0000
  C   C2935     1.0  0.55167  0.85931  0.32493  1.0000
  C   C2936     1.0  0.49536  0.62485  0.99375  1.0000
  C   C2937     1.0  0.71456  0.95001  0.32487  1.0000
  H   H2353     1.0  0.71036  0.96499  0.32375  1.0000
  H   H2354     1.0  0.54497  0.80821  0.32102  1.0000
  H   H2355     1.0  0.64089  0.91747  0.32006  1.0000
  H   H2356     1.0  0.65462  0.88452  0.32578  1.0000
  C   C2938     1.0  0.54677  0.82250  0.32205  1.0000
  H   H2357     1.0  0.71024  0.59723  0.99279  1.0000
  C   C2939     1.0  0.69862  0.87337  0.51492  1.0000
  Fe  Fe193     1.0  0.64681  0.88798  0.56885  1.0000
  S   S385      1.0  0.66148  0.91266  0.55707  1.0000
  S   S386      1.0  0.63388  0.87124  0.55142  1.0000
  Fe  Fe194     1.0  0.65258  0.89062  0.60953  1.0000
  S   S387      1.0  0.66827  0.91535  0.60035  1.0000
  Fe  Fe195     1.0  0.64632  0.92575  0.58182  1.0000
  S   S388      1.0  0.63397  0.95599  0.58032  1.0000
  Fe  Fe196     1.0  0.68232  0.90022  0.57652  1.0000
  S   S389      1.0  0.71202  0.90073  0.56344  1.0000
  S   S390      1.0  0.62951  0.90209  0.59236  1.0000
  S   S391      1.0  0.66872  0.87429  0.58691  1.0000
  Fe  Fe197     1.0  0.63651  0.88064  0.43764  1.0000
  S   S392      1.0  0.65718  0.90110  0.43217  1.0000
  S   S393      1.0  0.62911  0.86391  0.46600  1.0000
  Fe  Fe198     1.0  0.62743  0.88759  0.39642  1.0000
  S   S394      1.0  0.64795  0.90819  0.38851  1.0000
  S   S395      1.0  0.60613  0.88713  0.37655  1.0000
  Fe  Fe199     1.0  0.66689  0.88786  0.40580  1.0000
  S   S396      1.0  0.69707  0.88027  0.39404  1.0000
  Fe  Fe200     1.0  0.63623  0.91914  0.41551  1.0000
  S   S397      1.0  0.62640  0.94992  0.41508  1.0000
  S   S398      1.0  0.64717  0.86616  0.41200  1.0000
  S   S399      1.0  0.61484  0.89968  0.42283  1.0000
  C   C2940     1.0  0.58599  0.95381  0.34699  1.0000
  C   C2941     1.0  0.51445  0.90398  0.35175  1.0000
  H   H2358     1.0  0.69554  0.88858  0.43198  1.0000
  C   C2942     1.0  0.66393  0.97747  0.44354  1.0000
  C   C2943     1.0  0.66046  0.89524  0.33100  1.0000
  C   C2944     1.0  0.64156  0.97962  0.42179  1.0000
  C   C2945     1.0  0.63909  0.96090  0.42770  1.0000
  C   C2946     1.0  0.64788  0.95090  0.44259  1.0000
  C   C2947     1.0  0.66025  0.95926  0.45064  1.0000
  C   C2948     1.0  0.62797  0.98268  0.49724  1.0000
  H   H2359     1.0  0.60363  0.97493  0.54979  1.0000
  H   H2360     1.0  0.64552  0.93660  0.44758  1.0000
  H   H2361     1.0  0.66760  0.95130  0.46166  1.0000
  C   C2949     1.0  0.64910  0.96967  0.58665  1.0000
  C   C2950     1.0  0.66818  0.96391  0.58481  1.0000
  C   C2951     1.0  0.68010  0.97486  0.59025  1.0000
  H   H2362     1.0  0.60702  0.98860  0.63191  1.0000
  H   H2363     1.0  0.71640  0.97428  0.38942  1.0000
  C   C2952     1.0  0.64200  0.98648  0.59373  1.0000
  H   H2364     1.0  0.67380  0.95111  0.57904  1.0000
  H   H2365     1.0  0.69479  0.97020  0.58897  1.0000
  C   C2953     1.0  0.70087  0.81844  0.53779  1.0000
  C   C2954     1.0  0.68343  0.92623  0.64100  1.0000
  C   C2955     1.0  0.63356  0.87078  0.52710  1.0000
  C   C2956     1.0  0.64303  0.88216  0.51258  1.0000
  C   C2957     1.0  0.64189  0.88057  0.49356  1.0000
  C   C2958     1.0  0.63147  0.86746  0.48913  1.0000
  C   C2959     1.0  0.62244  0.85607  0.50373  1.0000
  C   C2960     1.0  0.62336  0.85780  0.52242  1.0000
  H   H2366     1.0  0.65112  0.89215  0.51597  1.0000
  H   H2367     1.0  0.64907  0.88937  0.48240  1.0000
  H   H2368     1.0  0.61444  0.84589  0.50056  1.0000
  H   H2369     1.0  0.61603  0.84892  0.53339  1.0000
  H   H2370     1.0  0.70874  0.90325  0.60335  1.0000
  C   C2961     1.0  0.60945  0.87999  0.35388  1.0000
  P   P100      1.0  0.62536  0.95798  0.65695  1.0000
  H   H2371     1.0  0.56801  0.87726  0.38645  1.0000
  H   H2372     1.0  0.59236  0.92860  0.36594  1.0000
  C   C2962     1.0  0.51705  0.88961  0.34035  1.0000
  C   C2963     1.0  0.62456  0.86724  0.34801  1.0000
  H   H2373     1.0  0.54946  0.98978  0.63381  1.0000
  C   C2964     1.0  0.62594  0.86086  0.33044  1.0000
  H   H2374     1.0  0.66226  0.96666  0.39151  1.0000
  H   H2375     1.0  0.63495  0.86193  0.35721  1.0000
  C   C2965     1.0  0.71445  0.88230  0.40767  1.0000
  H   H2376     1.0  0.69653  0.98158  0.35665  1.0000
  H   H2377     1.0  0.66498  0.84386  0.51682  1.0000
  H   H2378     1.0  0.51775  0.83913  0.38524  1.0000
  H   H2379     1.0  0.58678  0.94950  0.56683  1.0000
  C   C2966     1.0  0.59787  0.93926  0.35543  1.0000
  H   H2380     1.0  0.68905  0.95175  0.62338  1.0000
  C   C2967     1.0  0.51466  0.99401  0.33752  1.0000
  C   C2968     1.0  0.65713  0.96023  0.36507  1.0000
  C   C2969     1.0  0.68966  0.85226  0.46802  1.0000
  C   C2970     1.0  0.54645  0.87268  0.37122  1.0000
  C   C2971     1.0  0.61238  0.96669  0.32855  1.0000
  H   H2381     1.0  0.71087  0.94266  0.51141  1.0000
  C   C2972     1.0  0.72344  0.86914  0.48952  1.0000
  C   C2973     1.0  0.63170  0.88226  0.65866  1.0000
  H   H2382     1.0  0.65810  0.96858  0.63143  1.0000
  C   C2974     1.0  0.67548  0.92300  0.34436  1.0000
  C   C2975     1.0  0.65998  0.92799  0.33468  1.0000
  H   H2383     1.0  0.62592  0.92726  0.35750  1.0000
  C   C2976     1.0  0.53824  0.84490  0.40093  1.0000
  P   P101      1.0  0.63551  0.97528  0.52001  1.0000
  H   H2384     1.0  0.69817  0.80337  0.56567  1.0000
  H   H2385     1.0  0.65123  0.99251  0.32668  1.0000
  C   C2977     1.0  0.69165  0.82994  0.52383  1.0000
  C   C2978     1.0  0.62773  0.93843  0.52853  1.0000
  H   H2386     1.0  0.72715  0.96109  0.63414  1.0000
  H   H2387     1.0  0.66050  0.81136  0.47129  1.0000
  C   C2979     1.0  0.69015  0.83806  0.48334  1.0000
  H   H2388     1.0  0.61074  0.88929  0.64022  1.0000
  H   H2389     1.0  0.71993  0.89009  0.45124  1.0000
  C   C2980     1.0  0.61344  0.88652  0.65463  1.0000
  H   H2390     1.0  0.59601  0.91678  0.55965  1.0000
  H   H2391     1.0  0.65966  0.83657  0.44448  1.0000
  C   C2981     1.0  0.62273  0.95693  0.53259  1.0000
  H   H2392     1.0  0.72101  0.78043  0.43488  1.0000
  C   C2982     1.0  0.61699  0.93846  0.35050  1.0000
  H   H2393     1.0  0.66421  0.81251  0.57152  1.0000
  C   C2983     1.0  0.68624  0.94776  0.53079  1.0000
  C   C2984     1.0  0.69099  0.81208  0.55488  1.0000
  C   C2985     1.0  0.59798  0.94646  0.55590  1.0000
  H   H2394     1.0  0.62197  0.90983  0.53511  1.0000
  H   H2395     1.0  0.62940  0.94319  0.62082  1.0000
  H   H2396     1.0  0.72376  0.97639  0.52769  1.0000
  C   C2986     1.0  0.67026  0.96709  0.49977  1.0000
  C   C2987     1.0  0.67299  0.99169  0.59733  1.0000
  C   C2988     1.0  0.67898  0.94485  0.63334  1.0000
  H   H2397     1.0  0.69557  0.89963  0.52613  1.0000
  C   C2989     1.0  0.52813  0.84808  0.38567  1.0000
  C   C2990     1.0  0.55660  0.86938  0.38641  1.0000
  C   C2991     1.0  0.68858  0.95863  0.49763  1.0000
  C   C2992     1.0  0.60539  0.98875  0.37685  1.0000
  C   C2993     1.0  0.70983  0.96162  0.39204  1.0000
  C   C2994     1.0  0.67980  0.82313  0.48428  1.0000
  H   H2398     1.0  0.72167  0.91157  0.50440  1.0000
  C   C2995     1.0  0.67189  0.81717  0.55820  1.0000
  C   C2996     1.0  0.66898  0.82252  0.47022  1.0000
  H   H2399     1.0  0.68086  0.87567  0.34451  1.0000
  H   H2400     1.0  0.56281  0.94901  0.64627  1.0000
  C   C2997     1.0  0.71622  0.85365  0.55916  1.0000
  C   C2998     1.0  0.60200  0.93971  0.61645  1.0000
  H   H2401     1.0  0.71985  0.99048  0.57819  1.0000
  C   C2999     1.0  0.69002  0.94176  0.41280  1.0000
  C   C3000     1.0  0.69663  0.94906  0.51312  1.0000
  C   C3001     1.0  0.58986  0.99081  0.39022  1.0000
  H   H2402     1.0  0.69635  0.95947  0.48385  1.0000
  H   H2403     1.0  0.71746  0.80974  0.47625  1.0000
  H   H2404     1.0  0.53535  0.83390  0.41230  1.0000
  C   C3002     1.0  0.65468  0.96714  0.34644  1.0000
  C   C3003     1.0  0.60320  0.92806  0.55194  1.0000
  H   H2405     1.0  0.73891  0.83502  0.51716  1.0000
  C   C3004     1.0  0.59005  0.95361  0.65043  1.0000
  H   H2406     1.0  0.66440  0.97441  0.48753  1.0000
  H   H2407     1.0  0.65607  0.94571  0.37048  1.0000
  C   C3005     1.0  0.72837  0.81087  0.48431  1.0000
  C   C3006     1.0  0.67243  0.83489  0.52728  1.0000
  C   C3007     1.0  0.72345  0.94047  0.33998  1.0000
  C   C3008     1.0  0.71289  0.94876  0.37896  1.0000
  C   C3009     1.0  0.62436  0.95200  0.33675  1.0000
  C   C3010     1.0  0.71622  0.98658  0.51834  1.0000
  C   C3011     1.0  0.72826  0.90255  0.57833  1.0000
  C   C3012     1.0  0.72660  0.95313  0.45257  1.0000
  H   H2408     1.0  0.73550  0.91331  0.35251  1.0000
  H   H2409     1.0  0.67813  0.86263  0.44232  1.0000
  C   C3013     1.0  0.71801  0.89787  0.50364  1.0000
  H   H2410     1.0  0.69236  0.94013  0.54284  1.0000
  H   H2411     1.0  0.67349  0.90252  0.65890  1.0000
  C   C3014     1.0  0.61795  0.92410  0.53815  1.0000
  H   H2412     1.0  0.63927  0.93501  0.51803  1.0000
  H   H2413     1.0  0.69734  0.86402  0.46692  1.0000
  H   H2414     1.0  0.71563  0.81441  0.53572  1.0000
  H   H2415     1.0  0.65970  0.95453  0.54657  1.0000
  P   P102      1.0  0.70410  0.83850  0.50165  1.0000
  H   H2416     1.0  0.61700  0.95698  0.49553  1.0000
  C   C3015     1.0  0.66776  0.95595  0.53289  1.0000
  C   C3016     1.0  0.70891  0.86208  0.50199  1.0000
  S   S400      1.0  0.65090  0.88008  0.64083  1.0000
  C   C3017     1.0  0.66854  0.83669  0.45505  1.0000
  C   C3018     1.0  0.65966  0.96574  0.51740  1.0000
  H   H2417     1.0  0.64781  0.83251  0.54699  1.0000
  P   P103      1.0  0.52021  0.86541  0.35034  1.0000
  C   C3019     1.0  0.60759  0.96090  0.54615  1.0000
  H   H2418     1.0  0.71902  0.97908  0.46383  1.0000
  C   C3020     1.0  0.72590  0.82384  0.49723  1.0000
  H   H2419     1.0  0.73729  0.98085  0.41571  1.0000
  C   C3021     1.0  0.60899  0.95166  0.64359  1.0000
  C   C3022     1.0  0.70408  0.93253  0.38291  1.0000
  H   H2420     1.0  0.72197  0.82045  0.59661  1.0000
  H   H2421     1.0  0.68707  0.86854  0.52444  1.0000
  C   C3023     1.0  0.71162  0.84104  0.57497  1.0000
  H   H2422     1.0  0.62726  0.99096  0.59516  1.0000
  H   H2423     1.0  0.70535  0.86298  0.55277  1.0000
  C   C3024     1.0  0.51067  0.92270  0.34398  1.0000
  C   C3025     1.0  0.71310  0.81031  0.43227  1.0000
  H   H2424     1.0  0.69840  0.80939  0.43355  1.0000
  C   C3026     1.0  0.55238  0.99133  0.64761  1.0000
  H   H2425     1.0  0.57119  0.95444  0.35091  1.0000
  C   C3027     1.0  0.72374  0.88712  0.43698  1.0000
  P   P104      1.0  0.72869  0.95293  0.35785  1.0000
  H   H2426     1.0  0.73898  0.89247  0.48055  1.0000
  P   P105      1.0  0.64900  0.95193  0.33122  1.0000
  H   H2427     1.0  0.67988  0.81207  0.49600  1.0000
  C   C3028     1.0  0.67885  0.85153  0.45395  1.0000
  H   H2428     1.0  0.73448  0.96250  0.56310  1.0000
  H   H2429     1.0  0.68173  0.93351  0.34936  1.0000
  C   C3029     1.0  0.72791  0.88699  0.49034  1.0000
  C   C3030     1.0  0.72874  0.92100  0.34090  1.0000
  C   C3031     1.0  0.66262  0.82847  0.54436  1.0000
  C   C3032     1.0  0.72302  0.90370  0.59739  1.0000
  C   C3033     1.0  0.66027  0.97223  0.37722  1.0000
  S   S401      1.0  0.68192  0.98674  0.45073  1.0000
  H   H2430     1.0  0.53814  0.97266  0.33515  1.0000
  C   C3034     1.0  0.70983  0.88626  0.42606  1.0000
  C   C3035     1.0  0.72878  0.96642  0.46384  1.0000
  C   C3036     1.0  0.73822  0.82912  0.42761  1.0000
  C   C3037     1.0  0.65422  0.98778  0.42945  1.0000
  H   H2431     1.0  0.57348  0.93684  0.61588  1.0000
  C   C3038     1.0  0.53188  0.86230  0.37090  1.0000
  C   C3039     1.0  0.72557  0.82981  0.58400  1.0000
  C   C3040     1.0  0.49730  0.85859  0.35390  1.0000
  H   H2432     1.0  0.49101  0.86452  0.38258  1.0000
  C   C3041     1.0  0.73319  0.87965  0.40011  1.0000
  H   H2433     1.0  0.71511  0.95556  0.44442  1.0000
  C   C3042     1.0  0.59594  0.88655  0.34181  1.0000
  H   H2434     1.0  0.68156  0.93868  0.42598  1.0000
  H   H2435     1.0  0.59037  0.98335  0.40423  1.0000
  C   C3043     1.0  0.72634  0.97793  0.35052  1.0000
  H   H2436     1.0  0.60766  0.96729  0.46419  1.0000
  C   C3044     1.0  0.55243  0.85558  0.40131  1.0000
  C   C3045     1.0  0.65441  0.98647  0.34053  1.0000
  H   H2437     1.0  0.73686  0.87665  0.38586  1.0000
  H   H2438     1.0  0.58418  0.89639  0.34622  1.0000
  C   C3046     1.0  0.58328  0.94115  0.62359  1.0000
  C   C3047     1.0  0.53356  0.83338  0.33313  1.0000
  C   C3048     1.0  0.72822  0.96746  0.64640  1.0000
  H   H2439     1.0  0.70617  0.92220  0.37337  1.0000
  C   C3049     1.0  0.66136  0.95437  0.63804  1.0000
  H   H2440     1.0  0.69613  0.96808  0.41886  1.0000
  C   C3050     1.0  0.69843  0.95811  0.40888  1.0000
  C   C3051     1.0  0.72585  0.79403  0.43305  1.0000
  H   H2441     1.0  0.69722  0.84037  0.58049  1.0000
  C   C3052     1.0  0.72344  0.99112  0.49949  1.0000
  C   C3053     1.0  0.59330  0.96756  0.33361  1.0000
  H   H2442     1.0  0.70954  0.84054  0.42811  1.0000
  H   H2443     1.0  0.51528  0.90076  0.36662  1.0000
  H   H2444     1.0  0.55034  0.88301  0.35954  1.0000
  C   C3054     1.0  0.69254  0.92923  0.39968  1.0000
  H   H2445     1.0  0.68567  0.91680  0.40268  1.0000
  C   C3055     1.0  0.71932  0.82784  0.42938  1.0000
  H   H2446     1.0  0.52179  0.82717  0.34085  1.0000
  C   C3056     1.0  0.62685  0.98287  0.65187  1.0000
  C   C3057     1.0  0.61614  0.99443  0.63919  1.0000
  C   C3058     1.0  0.53587  0.85194  0.33449  1.0000
  H   H2447     1.0  0.50896  0.93380  0.35271  1.0000
  C   C3059     1.0  0.73975  0.96587  0.57514  1.0000
  H   H2448     1.0  0.69428  0.90019  0.35619  1.0000
  C   C3060     1.0  0.61490  0.94472  0.62649  1.0000
  C   C3061     1.0  0.68286  0.90415  0.34800  1.0000
  C   C3062     1.0  0.70330  0.89113  0.51584  1.0000
  H   H2449     1.0  0.60657  0.93471  0.60307  1.0000
  C   C3063     1.0  0.61933  0.97082  0.48872  1.0000
  H   H2450     1.0  0.73744  0.92639  0.44322  1.0000
  H   H2451     1.0  0.56051  0.85294  0.41295  1.0000
  H   H2452     1.0  0.73121  0.86096  0.47901  1.0000
  H   H2453     1.0  0.63451  0.98752  0.41051  1.0000
  C   C3064     1.0  0.73477  0.85511  0.55230  1.0000
  C   C3065     1.0  0.57729  0.94806  0.64062  1.0000
  C   C3066     1.0  0.67531  0.89028  0.34141  1.0000
  H   H2454     1.0  0.73222  0.90621  0.62358  1.0000
  C   C3067     1.0  0.61386  0.97666  0.47096  1.0000
  H   H2455     1.0  0.65730  0.98898  0.54530  1.0000
  H   H2456     1.0  0.69688  0.91865  0.63691  1.0000
  H   H2457     1.0  0.69343  0.99185  0.53997  1.0000
  C   C3068     1.0  0.73152  0.98157  0.58363  1.0000
  C   C3069     1.0  0.73802  0.98559  0.59949  1.0000
  C   C3070     1.0  0.73909  0.93674  0.45195  1.0000
  C   C3071     1.0  0.53292  0.98630  0.33942  1.0000
  C   C3072     1.0  0.67029  0.91717  0.65343  1.0000
  H   H2458     1.0  0.72895  0.89618  0.32796  1.0000
  H   H2459     1.0  0.61781  0.97979  0.38056  1.0000
  C   C3073     1.0  0.66008  0.99140  0.37123  1.0000
  H   H2460     1.0  0.50577  0.98653  0.33157  1.0000
  C   C3074     1.0  0.70873  0.98847  0.35198  1.0000
  H   H2461     1.0  0.73779  0.86572  0.54062  1.0000
  C   C3075     1.0  0.73633  0.90535  0.60883  1.0000
  H   H2462     1.0  0.55854  0.99014  0.34803  1.0000
  C   C3076     1.0  0.65272  0.92671  0.65835  1.0000
  C   C3077     1.0  0.64811  0.94547  0.65080  1.0000
  H   H2463     1.0  0.58436  0.97908  0.32711  1.0000
  H   H2464     1.0  0.63749  0.85070  0.32620  1.0000
  C   C3078     1.0  0.72511  0.91124  0.32700  1.0000
  C   C3079     1.0  0.65276  0.91399  0.32771  1.0000
  C   C3080     1.0  0.61692  0.99436  0.46162  1.0000
  Fe  Fe201     1.0  0.59136  0.90458  0.76545  1.0000
  S   S402      1.0  0.56929  0.91004  0.74641  1.0000
  S   S403      1.0  0.60951  0.92704  0.76544  1.0000
  Fe  Fe202     1.0  0.58465  0.86404  0.77821  1.0000
  S   S404      1.0  0.56286  0.86622  0.75904  1.0000
  S   S405      1.0  0.58801  0.83665  0.79792  1.0000
  Fe  Fe203     1.0  0.58172  0.88218  0.73718  1.0000
  S   S406      1.0  0.58266  0.88033  0.70599  1.0000
  Fe  Fe204     1.0  0.55261  0.89364  0.76962  1.0000
  S   S407      1.0  0.52281  0.90129  0.78126  1.0000
  S   S408      1.0  0.60467  0.87734  0.75525  1.0000
  S   S409      1.0  0.57346  0.89092  0.78972  1.0000
  C   C3081     1.0  0.49490  0.61637  0.93628  1.0000
  S   S410      1.0  0.73031  0.58259  0.93207  1.0000
  C   C3082     1.0  0.54436  0.71131  0.89090  1.0000
  Fe  Fe205     1.0  0.61947  0.60491  0.94267  1.0000
  S   S411      1.0  0.62369  0.63355  0.94764  1.0000
  S   S412      1.0  0.64302  0.58094  0.93847  1.0000
  Fe  Fe206     1.0  0.57664  0.61244  0.95439  1.0000
  S   S413      1.0  0.57838  0.64114  0.96127  1.0000
  S   S414      1.0  0.54973  0.59925  0.96182  1.0000
  Fe  Fe207     1.0  0.59769  0.64385  0.93446  1.0000
  S   S415      1.0  0.59217  0.67075  0.91509  1.0000
  Fe  Fe208     1.0  0.60409  0.62822  0.97376  1.0000
  C   C3083     1.0  0.61573  0.82593  0.97098  1.0000
  S   S416      1.0  0.59487  0.61549  0.92675  1.0000
  S   S417      1.0  0.60081  0.59921  0.96958  1.0000
  Fe  Fe209     1.0  0.58454  0.80968  0.90677  1.0000
  S   S418      1.0  0.58285  0.78013  0.90242  1.0000
  S   S419      1.0  0.59440  0.83289  0.88476  1.0000
  Fe  Fe210     1.0  0.56539  0.80440  0.94746  1.0000
  S   S420      1.0  0.56148  0.77466  0.94607  1.0000
  Fe  Fe211     1.0  0.59051  0.77194  0.93149  1.0000
  S   S421      1.0  0.60889  0.74554  0.94085  1.0000
  Fe  Fe212     1.0  0.55413  0.78501  0.91730  1.0000
  S   S422      1.0  0.53128  0.77418  0.90671  1.0000
  S   S423      1.0  0.59512  0.80122  0.93481  1.0000
  S   S424      1.0  0.55515  0.81517  0.91973  1.0000
  C   C3084     1.0  0.56967  0.88085  0.88713  1.0000
  C   C3085     1.0  0.52586  0.87500  0.90550  1.0000
  C   C3086     1.0  0.68258  0.51412  0.95107  1.0000
  C   C3087     1.0  0.50578  0.52165  0.93391  1.0000
  H   H2465     1.0  0.52228  0.80135  0.93257  1.0000
  C   C3088     1.0  0.50624  0.89631  0.76830  1.0000
  C   C3089     1.0  0.52860  0.60708  0.95220  1.0000
  C   C3090     1.0  0.51260  0.59915  0.96052  1.0000
  H   H2466     1.0  0.50102  0.97474  0.73269  1.0000
  H   H2467     1.0  0.67807  0.55116  0.90883  1.0000
  C   C3091     1.0  0.51077  0.62469  0.92817  1.0000
  C   C3092     1.0  0.52747  0.62026  0.93619  1.0000
  H   H2468     1.0  0.51316  0.58942  0.97316  1.0000
  H   H2469     1.0  0.50226  0.87812  0.72888  1.0000
  H   H2470     1.0  0.53962  0.62655  0.92962  1.0000
  C   C3093     1.0  0.59643  0.69136  0.92290  1.0000
  C   C3094     1.0  0.60760  0.69060  0.93703  1.0000
  C   C3095     1.0  0.61136  0.70728  0.94248  1.0000
  C   C3096     1.0  0.60362  0.72478  0.93417  1.0000
  C   C3097     1.0  0.59206  0.72551  0.92040  1.0000
  C   C3098     1.0  0.58875  0.70888  0.91459  1.0000
  H   H2471     1.0  0.61364  0.67717  0.94349  1.0000
  H   H2472     1.0  0.62030  0.70660  0.95314  1.0000
  H   H2473     1.0  0.58600  0.73889  0.91391  1.0000
  H   H2474     1.0  0.58029  0.70963  0.90354  1.0000
  C   C3099     1.0  0.70591  0.58224  0.93552  1.0000
  C   C3100     1.0  0.69793  0.56613  0.94344  1.0000
  C   C3101     1.0  0.67860  0.56622  0.94498  1.0000
  C   C3102     1.0  0.66695  0.58238  0.93872  1.0000
  C   C3103     1.0  0.67485  0.59872  0.93153  1.0000
  C   C3104     1.0  0.69421  0.59860  0.92987  1.0000
  H   H2475     1.0  0.70669  0.55349  0.94797  1.0000
  H   H2476     1.0  0.67267  0.55365  0.95092  1.0000
  H   H2477     1.0  0.66614  0.61129  0.92664  1.0000
  H   H2478     1.0  0.70019  0.61119  0.92383  1.0000
  C   C3105     1.0  0.58865  0.83624  0.82222  1.0000
  C   C3106     1.0  0.58598  0.81968  0.83441  1.0000
  C   C3107     1.0  0.58708  0.81867  0.85369  1.0000
  C   C3108     1.0  0.59132  0.83407  0.86089  1.0000
  C   C3109     1.0  0.59379  0.85068  0.84874  1.0000
  C   C3110     1.0  0.59227  0.85184  0.82954  1.0000
  H   H2479     1.0  0.58340  0.80747  0.82887  1.0000
  H   H2480     1.0  0.58528  0.80577  0.86285  1.0000
  H   H2481     1.0  0.59726  0.86262  0.85408  1.0000
  H   H2482     1.0  0.59459  0.86458  0.82030  1.0000
  C   C3111     1.0  0.60184  0.88213  0.68814  1.0000
  H   H2483     1.0  0.50526  0.67900  0.92797  1.0000
  C   C3112     1.0  0.53276  0.93579  0.81399  1.0000
  C   C3113     1.0  0.55065  0.56013  0.93405  1.0000
  H   H2484     1.0  0.50164  0.86910  0.89490  1.0000
  C   C3114     1.0  0.62010  0.87883  0.69218  1.0000
  H   H2485     1.0  0.51576  0.80353  0.97263  1.0000
  C   C3115     1.0  0.52328  0.72435  0.91586  1.0000
  C   C3116     1.0  0.52602  0.95405  0.81802  1.0000
  H   H2486     1.0  0.62283  0.87565  0.70657  1.0000
  H   H2487     1.0  0.51021  0.63445  0.91545  1.0000
  H   H2488     1.0  0.56631  0.86660  0.88896  1.0000
  H   H2489     1.0  0.52605  0.88613  0.74611  1.0000
  H   H2490     1.0  0.55306  0.95605  0.85169  1.0000
  C   C3117     1.0  0.57759  0.96555  0.79519  1.0000
  C   C3118     1.0  0.58437  0.94877  0.78773  1.0000
  C   C3119     1.0  0.59986  0.94812  0.77414  1.0000
  C   C3120     1.0  0.60807  0.96448  0.76756  1.0000
  H   H2491     1.0  0.57799  0.93621  0.79286  1.0000
  H   H2492     1.0  0.62010  0.96400  0.75708  1.0000
  H   H2493     1.0  0.49231  0.81736  0.94549  1.0000
  C   C3121     1.0  0.51571  0.73910  0.96443  1.0000
  C   C3122     1.0  0.53835  0.69237  0.92086  1.0000
  C   C3123     1.0  0.61492  0.76874  0.97868  1.0000
  C   C3124     1.0  0.62524  0.97736  0.92199  1.0000
  C   C3125     1.0  0.51537  0.82828  0.84816  1.0000
  C   C3126     1.0  0.53275  0.82997  0.85284  1.0000
  C   C3127     1.0  0.53529  0.82928  0.87152  1.0000
  C   C3128     1.0  0.52046  0.82686  0.88553  1.0000
  H   H2494     1.0  0.51519  0.68144  0.98860  1.0000
  C   C3129     1.0  0.50879  0.88386  0.84069  1.0000
  C   C3130     1.0  0.50513  0.72761  0.95771  1.0000
  H   H2495     1.0  0.51403  0.82797  0.83365  1.0000
  H   H2496     1.0  0.54443  0.83145  0.84205  1.0000
  H   H2497     1.0  0.54886  0.83021  0.87518  1.0000
  H   H2498     1.0  0.52258  0.82561  0.90005  1.0000
  H   H2499     1.0  0.50641  0.83738  0.77094  1.0000
  C   C3131     1.0  0.51340  0.92728  0.87313  1.0000
  C   C3132     1.0  0.50818  0.80311  0.98659  1.0000
  H   H2500     1.0  0.64840  0.98185  0.66935  1.0000
  C   C3133     1.0  0.67036  0.62776  0.96883  1.0000
  H   H2501     1.0  0.60475  0.96886  0.72301  1.0000
  C   C3134     1.0  0.62569  0.52800  0.90607  1.0000
  C   C3135     1.0  0.55976  0.97261  0.74692  1.0000
  C   C3136     1.0  0.49709  0.50831  0.94681  1.0000
  C   C3137     1.0  0.50019  0.82636  0.86216  1.0000
  C   C3138     1.0  0.53600  0.87128  0.92086  1.0000
  C   C3139     1.0  0.49735  0.93503  0.90880  1.0000
  H   H2502     1.0  0.58517  0.95922  0.66345  1.0000
  H   H2503     1.0  0.71233  0.51606  0.98218  1.0000
  H   H2504     1.0  0.73360  0.56107  0.88850  1.0000
  C   C3140     1.0  0.52620  0.70734  0.92766  1.0000
  H   H2505     1.0  0.61813  0.97813  0.69054  1.0000
  H   H2506     1.0  0.52676  0.52564  0.91004  1.0000
  H   H2507     1.0  0.53525  0.59707  0.90338  1.0000
  C   C3141     1.0  0.70305  0.61856  0.97050  1.0000
  H   H2508     1.0  0.70654  0.96969  0.69074  1.0000
  H   H2509     1.0  0.57092  0.96339  0.75294  1.0000
  H   H2510     1.0  0.56041  0.95645  0.72462  1.0000
  C   C3142     1.0  0.52002  0.51556  0.92026  1.0000
  C   C3143     1.0  0.53280  0.96087  0.83237  1.0000
  H   H2511     1.0  0.55700  0.68285  0.89757  1.0000
  C   C3144     1.0  0.71656  0.97207  0.67845  1.0000
  H   H2512     1.0  0.51115  0.83981  0.94899  1.0000
  H   H2513     1.0  0.49227  0.84696  0.92250  1.0000
  C   C3145     1.0  0.52560  0.74996  0.81424  1.0000
  C   C3146     1.0  0.52242  0.76963  0.81150  1.0000
  C   C3147     1.0  0.67444  0.77093  0.97789  1.0000
  P   P106      1.0  0.54178  0.78277  0.80430  1.0000
  C   C3148     1.0  0.55503  0.77831  0.82379  1.0000
  C   C3149     1.0  0.55581  0.77660  0.78313  1.0000
  C   C3150     1.0  0.57163  0.78548  0.77650  1.0000
  C   C3151     1.0  0.58240  0.78153  0.75977  1.0000
  C   C3152     1.0  0.57740  0.76880  0.74944  1.0000
  C   C3153     1.0  0.56152  0.76011  0.75578  1.0000
  C   C3154     1.0  0.55065  0.76409  0.77251  1.0000
  C   C3155     1.0  0.54704  0.78421  0.84096  1.0000
  C   C3156     1.0  0.55666  0.78000  0.85654  1.0000
  C   C3157     1.0  0.57426  0.76968  0.85510  1.0000
  C   C3158     1.0  0.58231  0.76369  0.83808  1.0000
  C   C3159     1.0  0.57272  0.76789  0.82246  1.0000
  C   C3160     1.0  0.53447  0.80746  0.79862  1.0000
  C   C3161     1.0  0.54383  0.82069  0.80420  1.0000
  C   C3162     1.0  0.53938  0.83976  0.79822  1.0000
  C   C3163     1.0  0.52570  0.84576  0.78652  1.0000
  C   C3164     1.0  0.51659  0.83267  0.78053  1.0000
  C   C3165     1.0  0.52103  0.81355  0.78646  1.0000
  H   H2514     1.0  0.65281  0.51564  0.95828  1.0000
  C   C3166     1.0  0.60494  0.75540  0.98995  1.0000
  H   H2515     1.0  0.71236  0.51185  0.94937  1.0000
  H   H2516     1.0  0.53946  0.74271  0.81141  1.0000
  H   H2517     1.0  0.58454  0.88880  0.66600  1.0000
  H   H2518     1.0  0.57560  0.79562  0.78420  1.0000
  H   H2519     1.0  0.59454  0.78852  0.75475  1.0000
  H   H2520     1.0  0.58574  0.76583  0.73643  1.0000
  H   H2521     1.0  0.55755  0.75043  0.74762  1.0000
  H   H2522     1.0  0.53818  0.75760  0.77687  1.0000
  H   H2523     1.0  0.53332  0.79193  0.84233  1.0000
  H   H2524     1.0  0.55046  0.78465  0.86978  1.0000
  H   H2525     1.0  0.58168  0.76627  0.86719  1.0000
  H   H2526     1.0  0.59599  0.75573  0.83703  1.0000
  H   H2527     1.0  0.57913  0.76280  0.80954  1.0000
  H   H2528     1.0  0.55510  0.81632  0.81252  1.0000
  H   H2529     1.0  0.54721  0.84981  0.80196  1.0000
  H   H2530     1.0  0.52262  0.86051  0.78158  1.0000
  H   H2531     1.0  0.49821  0.93372  0.74353  1.0000
  H   H2532     1.0  0.51431  0.80351  0.78118  1.0000
  H   H2533     1.0  0.51437  0.73633  0.92077  1.0000
  C   C3167     1.0  0.54124  0.91200  0.69993  1.0000
  H   H2534     1.0  0.56610  0.92453  0.84290  1.0000
  C   C3168     1.0  0.64385  0.97283  0.91513  1.0000
  C   C3169     1.0  0.54727  0.69433  0.90252  1.0000
  C   C3170     1.0  0.60061  0.94155  0.71812  1.0000
  C   C3171     1.0  0.51098  0.73951  0.82096  1.0000
  C   C3172     1.0  0.54160  0.98370  0.66355  1.0000
  H   H2535     1.0  0.59404  0.84924  0.97234  1.0000
  C   C3173     1.0  0.69896  0.60538  0.98605  1.0000
  C   C3174     1.0  0.51942  0.57491  0.91643  1.0000
  C   C3175     1.0  0.52883  0.88493  0.86414  1.0000
  C   C3176     1.0  0.49576  0.55656  0.97045  1.0000
  H   H2536     1.0  0.55591  0.99119  0.76803  1.0000
  C   C3177     1.0  0.65410  0.50652  0.90766  1.0000
  H   H2537     1.0  0.65298  0.52097  0.99082  1.0000
  H   H2538     1.0  0.54798  0.87819  0.92105  1.0000
  H   H2539     1.0  0.72344  0.50668  0.91611  1.0000
  C   C3178     1.0  0.49582  0.60384  0.95274  1.0000
  H   H2540     1.0  0.65010  0.95831  0.91623  1.0000
  H   H2541     1.0  0.51961  0.92458  0.85922  1.0000
  H   H2542     1.0  0.64284  0.91914  0.66773  1.0000
  H   H2543     1.0  0.55176  0.71298  0.87690  1.0000
  H   H2544     1.0  0.55519  0.70791  0.94759  1.0000
  H   H2545     1.0  0.50181  0.79379  0.81568  1.0000
  C   C3179     1.0  0.49807  0.88423  0.74175  1.0000
  C   C3180     1.0  0.55565  0.92287  0.69413  1.0000
  H   H2546     1.0  0.65926  0.63651  0.96225  1.0000
  C   C3181     1.0  0.69888  0.52700  0.91348  1.0000
  H   H2547     1.0  0.61141  0.82192  0.95877  1.0000
  H   H2548     1.0  0.53059  0.73970  0.88882  1.0000
  C   C3182     1.0  0.52537  0.63565  0.98910  1.0000
  P   P107      1.0  0.49865  0.54643  0.93442  1.0000
  H   H2549     1.0  0.50746  0.58128  0.90975  1.0000
  H   H2550     1.0  0.52954  0.93938  0.74809  1.0000
  C   C3183     1.0  0.64148  0.77727  0.91986  1.0000
  C   C3184     1.0  0.64106  0.79422  0.90795  1.0000
  C   C3185     1.0  0.64158  0.81088  0.91512  1.0000
  C   C3186     1.0  0.64206  0.81067  0.93428  1.0000
  C   C3187     1.0  0.64137  0.79384  0.94651  1.0000
  C   C3188     1.0  0.64196  0.77703  0.93901  1.0000
  P   P108      1.0  0.64152  0.79355  0.97133  1.0000
  C   C3189     1.0  0.60274  0.92880  0.70521  1.0000
  P   P109      1.0  0.68301  0.51159  0.92667  1.0000
  C   C3190     1.0  0.50890  0.91817  0.90669  1.0000
  C   C3191     1.0  0.60628  0.95923  0.71273  1.0000
  C   C3192     1.0  0.66036  0.51768  0.91897  1.0000
  H   H2551     1.0  0.65355  0.54290  0.93232  1.0000
  H   H2552     1.0  0.70329  0.56722  0.98530  1.0000
  H   H2553     1.0  0.62342  0.55201  0.92089  1.0000
  H   H2554     1.0  0.58803  0.79980  0.98278  1.0000
  H   H2555     1.0  0.66695  0.75911  0.97822  1.0000
  H   H2556     1.0  0.70000  0.75336  0.98258  1.0000
  C   C3193     1.0  0.53323  0.69549  0.96644  1.0000
  H   H2557     1.0  0.70413  0.95637  0.66187  1.0000
  C   C3194     1.0  0.66588  0.51604  0.96315  1.0000
  H   H2558     1.0  0.64101  0.76431  0.91438  1.0000
  H   H2559     1.0  0.64022  0.79446  0.89319  1.0000
  H   H2560     1.0  0.64129  0.82400  0.90582  1.0000
  H   H2561     1.0  0.64263  0.82369  0.93953  1.0000
  H   H2562     1.0  0.64227  0.76370  0.94795  1.0000
  C   C3195     1.0  0.71795  0.52078  0.91074  1.0000
  P   P110      1.0  0.50780  0.96805  0.80602  1.0000
  C   C3196     1.0  0.51757  0.94445  0.75735  1.0000
  C   C3197     1.0  0.63613  0.56416  0.98983  1.0000
  C   C3198     1.0  0.49370  0.77814  0.91463  1.0000
  C   C3199     1.0  0.49578  0.67881  0.94078  1.0000
  C   C3200     1.0  0.54509  0.98594  0.68147  1.0000
  H   H2563     1.0  0.52223  0.87428  0.81494  1.0000
  C   C3201     1.0  0.69932  0.51621  0.97689  1.0000
  C   C3202     1.0  0.63027  0.81509  0.97970  1.0000
  C   C3203     1.0  0.61053  0.93375  0.68681  1.0000
  H   H2564     1.0  0.61129  0.77378  0.96481  1.0000
  C   C3204     1.0  0.55128  0.98821  0.75547  1.0000
  C   C3205     1.0  0.66593  0.51883  0.98175  1.0000
  C   C3206     1.0  0.59860  0.88623  0.66930  1.0000
  C   C3207     1.0  0.66622  0.61438  0.98417  1.0000
  C   C3208     1.0  0.51913  0.55822  0.92892  1.0000
  C   C3209     1.0  0.69252  0.54562  0.90669  1.0000
  C   C3210     1.0  0.73093  0.98251  0.67889  1.0000
  C   C3211     1.0  0.51504  0.84973  0.93692  1.0000
  C   C3212     1.0  0.70501  0.55780  0.89769  1.0000
  C   C3213     1.0  0.61413  0.96426  0.69433  1.0000
  H   H2565     1.0  0.53498  0.53812  0.94743  1.0000
  C   C3214     1.0  0.51690  0.91411  0.88881  1.0000
  H   H2566     1.0  0.56257  0.55485  0.94129  1.0000
  C   C3215     1.0  0.50452  0.77869  0.81646  1.0000
  C   C3216     1.0  0.59288  0.90185  0.88382  1.0000
  H   H2567     1.0  0.53890  0.98995  0.80681  1.0000
  C   C3217     1.0  0.63181  0.53915  0.91732  1.0000
  C   C3218     1.0  0.54726  0.95031  0.84130  1.0000
  C   C3219     1.0  0.72391  0.55146  0.89505  1.0000
  C   C3220     1.0  0.50452  0.85375  0.92200  1.0000
  C   C3221     1.0  0.51112  0.88768  0.85838  1.0000
  H   H2568     1.0  0.59848  0.91500  0.70951  1.0000
  C   C3222     1.0  0.49741  0.68970  0.95471  1.0000
  C   C3223     1.0  0.49524  0.98157  0.72026  1.0000
  H   H2569     1.0  0.54388  0.89693  0.69978  1.0000
  C   C3224     1.0  0.61653  0.95145  0.68122  1.0000
  C   C3225     1.0  0.55081  0.57669  0.92159  1.0000
  C   C3226     1.0  0.73032  0.53288  0.90131  1.0000
  H   H2570     1.0  0.53367  0.95490  0.77483  1.0000
  C   C3227     1.0  0.68876  0.62969  0.96184  1.0000
  C   C3228     1.0  0.69930  0.51380  0.95824  1.0000
  H   H2571     1.0  0.51617  0.76585  0.97353  1.0000
  H   H2572     1.0  0.53651  0.54698  0.98511  1.0000
  C   C3229     1.0  0.49120  0.78452  0.86472  1.0000
  H   H2573     1.0  0.59876  0.87169  0.88771  1.0000
  C   C3230     1.0  0.55456  0.93257  0.83643  1.0000
  H   H2574     1.0  0.56596  0.96585  0.80605  1.0000
  C   C3231     1.0  0.52356  0.92051  0.70606  1.0000
  C   C3232     1.0  0.71518  0.96460  0.66219  1.0000
  C   C3233     1.0  0.53241  0.72632  0.89759  1.0000
  H   H2575     1.0  0.70007  0.57236  0.89329  1.0000
  H   H2576     1.0  0.69194  0.63973  0.94966  1.0000
  P   P111      1.0  0.53195  0.89243  0.88596  1.0000
  C   C3234     1.0  0.50966  0.79747  0.92944  1.0000
  C   C3235     1.0  0.64901  0.53398  0.92377  1.0000
  H   H2577     1.0  0.57926  0.69584  0.96787  1.0000
  H   H2578     1.0  0.63321  0.56293  0.97594  1.0000
  H   H2579     1.0  0.52723  0.97455  0.83637  1.0000
  C   C3236     1.0  0.50300  0.82546  0.88094  1.0000
  C   C3237     1.0  0.55577  0.89622  0.88531  1.0000
  C   C3238     1.0  0.56055  0.99448  0.68318  1.0000
  C   C3239     1.0  0.58812  0.88368  0.88643  1.0000
  C   C3240     1.0  0.58590  0.98187  0.78877  1.0000
  C   C3241     1.0  0.51988  0.95307  0.77262  1.0000
  H   H2580     1.0  0.54125  0.67927  0.92983  1.0000
  C   C3242     1.0  0.53486  0.95084  0.70113  1.0000
  C   C3243     1.0  0.55374  0.96875  0.73075  1.0000
  H   H2581     1.0  0.53512  0.64453  0.98115  1.0000
  C   C3244     1.0  0.52402  0.87694  0.82875  1.0000
  C   C3245     1.0  0.55254  0.94215  0.69487  1.0000
  C   C3246     1.0  0.69443  0.80108  0.97622  1.0000
  C   C3247     1.0  0.54402  0.87764  0.85213  1.0000
  C   C3248     1.0  0.60095  0.98141  0.77466  1.0000
  S   S425      1.0  0.55263  0.81897  0.97272  1.0000
  C   C3249     1.0  0.51155  0.88870  0.75151  1.0000
  C   C3250     1.0  0.52031  0.93990  0.70647  1.0000
  H   H2582     1.0  0.55785  0.87520  0.85599  1.0000
  C   C3251     1.0  0.50458  0.95825  0.78555  1.0000
  C   C3252     1.0  0.56064  0.91447  0.88296  1.0000
  H   H2583     1.0  0.56935  0.91627  0.68934  1.0000
  C   C3253     1.0  0.53494  0.55084  0.93760  1.0000
  C   C3254     1.0  0.54159  0.87368  0.83453  1.0000
  H   H2584     1.0  0.55027  0.92661  0.88160  1.0000
  P   P112      1.0  0.53118  0.97581  0.70199  1.0000
  C   C3255     1.0  0.56521  0.69282  0.97239  1.0000
  H   H2585     1.0  0.55346  0.86831  0.82527  1.0000
  H   H2586     1.0  0.61241  0.53213  0.90094  1.0000
  H   H2587     1.0  0.50492  0.78862  0.86305  1.0000
  H   H2588     1.0  0.61707  0.96635  0.92846  1.0000
  H   H2589     1.0  0.60724  0.90396  0.88306  1.0000
  C   C3256     1.0  0.57914  0.91724  0.88214  1.0000
  C   C3257     1.0  0.63491  0.87868  0.67751  1.0000
  C   C3258     1.0  0.51016  0.78375  0.91781  1.0000
  H   H2590     1.0  0.49119  0.93808  0.92264  1.0000
  H   H2591     1.0  0.51354  0.72432  0.82308  1.0000
  C   C3259     1.0  0.53922  0.98061  0.72289  1.0000
  C   C3260     1.0  0.55147  0.69953  0.96085  1.0000
  H   H2592     1.0  0.71733  0.61997  0.96499  1.0000
  H   H2593     1.0  0.58287  0.93133  0.88010  1.0000
  H   H2594     1.0  0.56274  0.58425  0.91932  1.0000
  C   C3261     1.0  0.53528  0.58396  0.91267  1.0000
  C   C3262     1.0  0.50667  0.98449  0.70315  1.0000
  C   C3263     1.0  0.54702  0.92518  0.82310  1.0000
  H   H2595     1.0  0.53014  0.73457  0.96594  1.0000
  C   C3264     1.0  0.51155  0.99213  0.79820  1.0000
  H   H2596     1.0  0.55242  0.91130  0.81956  1.0000
  H   H2597     1.0  0.49917  0.89330  0.86732  1.0000
  P   P113      1.0  0.51539  0.70481  0.95167  1.0000
  H   H2598     1.0  0.64897  0.87537  0.68080  1.0000
  H   H2599     1.0  0.56407  0.95016  0.69086  1.0000
  H   H2600     1.0  0.50648  0.94617  0.71104  1.0000
  C   C3265     1.0  0.68264  0.51907  0.98857  1.0000
  H   H2601     1.0  0.50366  0.64677  0.97224  1.0000
  H   H2602     1.0  0.52714  0.92961  0.80381  1.0000
  H   H2603     1.0  0.61162  0.92375  0.67692  1.0000
  H   H2604     1.0  0.59427  0.74993  0.98437  1.0000
  H   H2605     1.0  0.66011  0.57783  0.97945  1.0000
  H   H2606     1.0  0.59467  0.93768  0.73237  1.0000
  C   C3266     1.0  0.65132  0.57278  0.99186  1.0000
  H   H2607     1.0  0.53064  0.97592  0.66190  1.0000
  C   C3267     1.0  0.50993  0.86629  0.90632  1.0000
  H   H2608     1.0  0.73206  0.98820  0.69153  1.0000
  C   C3268     1.0  0.50784  0.75688  0.96876  1.0000
  C   C3269     1.0  0.50184  0.94409  0.87529  1.0000
  H   H2609     1.0  0.50116  0.75538  0.87226  1.0000
  C   C3270     1.0  0.68051  0.60265  0.99251  1.0000
  C   C3271     1.0  0.65441  0.98703  0.90684  1.0000
  C   C3272     1.0  0.53075  0.85848  0.93634  1.0000
  C   C3273     1.0  0.56092  0.68215  0.98964  1.0000
  H   H2610     1.0  0.60743  0.99394  0.76964  1.0000
  H   H2611     1.0  0.51241  0.91202  0.71056  1.0000
  C   C3274     1.0  0.52556  0.49640  0.91962  1.0000
  C   C3275     1.0  0.50764  0.63690  0.98405  1.0000
  H   H2612     1.0  0.49522  0.88659  0.83607  1.0000
  C   C3276     1.0  0.49993  0.94130  0.75473  1.0000
  C   C3277     1.0  0.49379  0.94796  0.89312  1.0000
  H   H2613     1.0  0.51010  0.55875  0.96729  1.0000
  C   C3278     1.0  0.49270  0.80641  0.93694  1.0000
  H   H2614     1.0  0.65184  0.61312  0.98937  1.0000
  H   H2615     1.0  0.51157  0.90839  0.91903  1.0000
  H   H2616     1.0  0.66884  0.98352  0.90150  1.0000
  H   H2617     1.0  0.49914  0.95416  0.86313  1.0000
  H   H2618     1.0  0.72873  0.54149  0.98972  1.0000
  H   H2619     1.0  0.63211  0.50307  0.89246  1.0000
  H   H2620     1.0  0.49409  0.76703  0.90623  1.0000
  C   C3279     1.0  0.49874  0.99414  0.68746  1.0000
  C   C3280     1.0  0.63680  0.51166  0.90128  1.0000
  H   H2621     1.0  0.53893  0.85523  0.94793  1.0000
  C   C3281     1.0  0.52901  0.68482  0.98387  1.0000
  H   H2622     1.0  0.66917  0.81874  0.97099  1.0000
  H   H2623     1.0  0.70222  0.81276  0.97543  1.0000
  C   C3282     1.0  0.67569  0.80442  0.97382  1.0000
  C   C3283     1.0  0.69319  0.76762  0.98027  1.0000
  C   C3284     1.0  0.63954  0.99066  0.66004  1.0000
  C   C3285     1.0  0.66551  0.78936  0.97494  1.0000
  C   C3286     1.0  0.62912  0.77562  0.98542  1.0000
  C   C3287     1.0  0.60573  0.84144  0.97872  1.0000
  C   C3288     1.0  0.70317  0.78269  0.97951  1.0000
  H   H2624     1.0  0.71771  0.78011  0.98130  1.0000
  H   H2625     1.0  0.49200  0.82303  0.89220  1.0000
  C   C3289     1.0  0.49312  0.74862  0.82525  1.0000
  C   C3290     1.0  0.80626  0.43761  0.15772  1.0000
  S   S426      1.0  0.76438  0.36159  0.10191  1.0000
  C   C3291     1.0  0.86327  0.44628  0.14719  1.0000
  S   S427      1.0  0.76887  0.40334  0.11169  1.0000
  C   C3292     1.0  0.98513  0.47017  0.20533  1.0000
  Fe  Fe213     1.0  0.75723  0.39160  0.08966  1.0000
  S   S428      1.0  0.76016  0.40463  0.05945  1.0000
  Fe  Fe214     1.0  0.77350  0.37358  0.12541  1.0000
  S   S429      1.0  0.79680  0.36070  0.14278  1.0000
  C   C3293     1.0  0.97163  0.46105  0.21717  1.0000
  C   C3294     1.0  0.74573  0.29208  0.07606  1.0000
  S   S430      1.0  0.89336  0.38986  0.30354  1.0000
  Fe  Fe215     1.0  0.89802  0.37704  0.16316  1.0000
  S   S431      1.0  0.88606  0.38596  0.19117  1.0000
  S   S432      1.0  0.88129  0.37233  0.14031  1.0000
  Fe  Fe216     1.0  0.93790  0.38354  0.16860  1.0000
  S   S433      1.0  0.92821  0.39395  0.19626  1.0000
  S   S434      1.0  0.96838  0.37857  0.15672  1.0000
  Fe  Fe217     1.0  0.91168  0.36977  0.20211  1.0000
  S   S435      1.0  0.91506  0.35144  0.22973  1.0000
  Fe  Fe218     1.0  0.90378  0.40911  0.18271  1.0000
  S   S436      1.0  0.88923  0.43811  0.18529  1.0000
  S   S437      1.0  0.92229  0.35847  0.17485  1.0000
  S   S438      1.0  0.91484  0.40107  0.15436  1.0000
  C   C3295     1.0  0.90119  0.38082  0.28225  1.0000
  C   C3296     1.0  0.91683  0.36742  0.28042  1.0000
  C   C3297     1.0  0.92136  0.35872  0.26406  1.0000
  C   C3298     1.0  0.91058  0.36382  0.24927  1.0000
  C   C3299     1.0  0.89554  0.37793  0.25076  1.0000
  C   C3300     1.0  0.89073  0.38623  0.26730  1.0000
  H   H2626     1.0  0.92498  0.36329  0.29187  1.0000
  H   H2627     1.0  0.93315  0.34800  0.26287  1.0000
  H   H2628     1.0  0.88716  0.38188  0.23945  1.0000
  H   H2629     1.0  0.87863  0.39660  0.26865  1.0000
  H   H2630     1.0  0.74251  0.49130  0.04188  1.0000
  H   H2631     1.0  0.78019  0.29178  0.10260  1.0000
  C   C3301     1.0  0.89652  0.47358  0.18566  1.0000
  C   C3302     1.0  0.90398  0.45476  0.18559  1.0000
  C   C3303     1.0  0.92279  0.44935  0.18695  1.0000
  C   C3304     1.0  0.93393  0.46266  0.18926  1.0000
  C   C3305     1.0  0.89160  0.47501  0.29618  1.0000
  H   H2632     1.0  0.88198  0.47780  0.18449  1.0000
  H   H2633     1.0  0.92862  0.43483  0.18688  1.0000
  H   H2634     1.0  0.94830  0.45821  0.19088  1.0000
  C   C3306     1.0  0.89336  0.46946  0.31520  1.0000
  C   C3307     1.0  0.81938  0.36692  0.14229  1.0000
  C   C3308     1.0  0.82795  0.36277  0.15873  1.0000
  C   C3309     1.0  0.84653  0.36553  0.15862  1.0000
  C   C3310     1.0  0.85702  0.37180  0.14189  1.0000
  C   C3311     1.0  0.84838  0.37613  0.12548  1.0000
  C   C3312     1.0  0.82957  0.37417  0.12575  1.0000
  H   H2635     1.0  0.82027  0.35706  0.17160  1.0000
  H   H2636     1.0  0.85300  0.36194  0.17131  1.0000
  H   H2637     1.0  0.85645  0.38050  0.11236  1.0000
  H   H2638     1.0  0.82327  0.37731  0.11299  1.0000
  H   H2639     1.0  0.97221  0.40505  0.21776  1.0000
  C   C3313     1.0  0.77665  0.46012  0.01450  1.0000
  H   H2640     1.0  0.83572  0.42169  0.06649  1.0000
  C   C3314     1.0  0.75116  0.48100  0.11070  1.0000
  C   C3315     1.0  0.94581  0.32402  0.30545  1.0000
  C   C3316     1.0  0.81655  0.48889  0.01733  1.0000
  C   C3317     1.0  0.76505  0.38951  0.04215  1.0000
  C   C3318     1.0  0.77216  0.37069  0.04637  1.0000
  C   C3319     1.0  0.77654  0.35911  0.03213  1.0000
  C   C3320     1.0  0.77359  0.36622  0.01371  1.0000
  H   H2641     1.0  0.81359  0.48614  0.03238  1.0000
  C   C3321     1.0  0.76210  0.39662  0.02372  1.0000
  H   H2642     1.0  0.77462  0.36515  0.06050  1.0000
  H   H2643     1.0  0.75637  0.41109  0.02040  1.0000
  C   C3322     1.0  0.89116  0.33020  0.29481  1.0000
  H   H2644     1.0  0.93278  0.46678  0.24078  1.0000
  C   C3323     1.0  0.88951  0.34574  0.04083  1.0000
  C   C3324     1.0  0.89666  0.32891  0.03383  1.0000
  C   C3325     1.0  0.88628  0.31388  0.03727  1.0000
  C   C3326     1.0  0.86873  0.31566  0.04769  1.0000
  C   C3327     1.0  0.86137  0.33261  0.05459  1.0000
  C   C3328     1.0  0.87195  0.34760  0.05120  1.0000
  P   P114      1.0  0.83898  0.33496  0.06856  1.0000
  C   C3329     1.0  0.82713  0.35805  0.06185  1.0000
  C   C3330     1.0  0.82561  0.31769  0.06370  1.0000
  C   C3331     1.0  0.81480  0.32165  0.04888  1.0000
  C   C3332     1.0  0.90774  0.48693  0.18758  1.0000
  H   H2645     1.0  0.75874  0.27107  0.09584  1.0000
  H   H2646     1.0  0.77819  0.32452  0.14855  1.0000
  C   C3333     1.0  0.82653  0.29983  0.07424  1.0000
  C   C3334     1.0  0.81548  0.36793  0.07514  1.0000
  C   C3335     1.0  0.80606  0.38558  0.06963  1.0000
  C   C3336     1.0  0.80797  0.39337  0.05086  1.0000
  C   C3337     1.0  0.81954  0.38368  0.03756  1.0000
  C   C3338     1.0  0.82916  0.36613  0.04301  1.0000
  C   C3339     1.0  0.84174  0.33164  0.09315  1.0000
  C   C3340     1.0  0.85865  0.33352  0.09899  1.0000
  C   C3341     1.0  0.86059  0.33101  0.11803  1.0000
  C   C3342     1.0  0.84575  0.32653  0.13138  1.0000
  C   C3343     1.0  0.82888  0.32468  0.12571  1.0000
  C   C3344     1.0  0.82682  0.32732  0.10670  1.0000
  H   H2647     1.0  0.89766  0.35732  0.03835  1.0000
  H   H2648     1.0  0.91030  0.32747  0.02583  1.0000
  H   H2649     1.0  0.89189  0.30080  0.03192  1.0000
  H   H2650     1.0  0.86102  0.30379  0.05032  1.0000
  H   H2651     1.0  0.86671  0.36065  0.05676  1.0000
  H   H2652     1.0  0.81410  0.33509  0.04022  1.0000
  C   C3345     1.0  0.75296  0.31567  0.01831  1.0000
  C   C3346     1.0  0.90214  0.32089  0.30847  1.0000
  H   H2653     1.0  0.83514  0.29624  0.08542  1.0000
  H   H2654     1.0  0.81338  0.36203  0.08969  1.0000
  H   H2655     1.0  0.79684  0.39308  0.07981  1.0000
  H   H2656     1.0  0.80000  0.40668  0.04658  1.0000
  H   H2657     1.0  0.82073  0.38958  0.02297  1.0000
  H   H2658     1.0  0.83781  0.35868  0.03243  1.0000
  H   H2659     1.0  0.87034  0.33717  0.08903  1.0000
  H   H2660     1.0  0.87345  0.33314  0.12254  1.0000
  H   H2661     1.0  0.84714  0.32521  0.14614  1.0000
  H   H2662     1.0  0.81719  0.32197  0.13616  1.0000
  H   H2663     1.0  0.81347  0.32637  0.10262  1.0000
  C   C3347     1.0  0.80483  0.30811  0.04492  1.0000
  H   H2664     1.0  0.83327  0.42592  0.12766  1.0000
  C   C3348     1.0  0.82079  0.43678  0.04433  1.0000
  H   H2665     1.0  0.85427  0.42485  0.21411  1.0000
  H   H2666     1.0  0.80656  0.47247  0.18700  1.0000
  C   C3349     1.0  0.83277  0.44775  0.21935  1.0000
  H   H2667     1.0  0.89135  0.42289  0.31756  1.0000
  C   C3350     1.0  0.97856  0.48237  0.15908  1.0000
  S   S439      1.0  0.77945  0.35154  0.99606  1.0000
  C   C3351     1.0  0.91527  0.29272  0.28269  1.0000
  H   H2668     1.0  0.86444  0.36252  0.31980  1.0000
  C   C3352     1.0  0.91702  0.29722  0.24878  1.0000
  C   C3353     1.0  0.90841  0.28121  0.24956  1.0000
  C   C3354     1.0  0.90328  0.27088  0.26685  1.0000
  C   C3355     1.0  0.90663  0.27663  0.28340  1.0000
  H   H2669     1.0  0.97826  0.37060  0.22207  1.0000
  C   C3356     1.0  0.82850  0.44993  0.18141  1.0000
  C   C3357     1.0  0.81650  0.28633  0.07026  1.0000
  C   C3358     1.0  0.79444  0.45895  0.05398  1.0000
  C   C3359     1.0  0.75746  0.32206  0.07072  1.0000
  H   H2670     1.0  0.75717  0.46598  0.08672  1.0000
  C   C3360     1.0  0.81285  0.44092  0.07706  1.0000
  H   H2671     1.0  0.81546  0.43729  0.09151  1.0000
  C   C3361     1.0  0.75044  0.47452  0.99838  1.0000
  H   H2672     1.0  0.78202  0.34460  0.03541  1.0000
  H   H2673     1.0  0.75900  0.32711  0.02194  1.0000
  C   C3362     1.0  0.95699  0.29543  0.29180  1.0000
  H   H2674     1.0  0.76522  0.40865  0.16111  1.0000
  H   H2675     1.0  0.97320  0.24555  0.31392  1.0000
  H   H2676     1.0  0.88481  0.44769  0.22698  1.0000
  C   C3363     1.0  0.80561  0.44990  0.03975  1.0000
  H   H2677     1.0  0.79652  0.31132  0.03345  1.0000
  H   H2678     1.0  0.92065  0.30555  0.23543  1.0000
  H   H2679     1.0  0.90554  0.27696  0.23675  1.0000
  H   H2680     1.0  0.89647  0.25855  0.26743  1.0000
  H   H2681     1.0  0.90229  0.26863  0.29665  1.0000
  C   C3364     1.0  0.87748  0.34498  0.29902  1.0000
  C   C3365     1.0  0.81030  0.47958  0.13150  1.0000
  C   C3366     1.0  0.89130  0.46127  0.28463  1.0000
  C   C3367     1.0  0.84614  0.42952  0.13067  1.0000
  C   C3368     1.0  0.81935  0.46114  0.21164  1.0000
  H   H2682     1.0  0.95449  0.28255  0.28738  1.0000
  H   H2683     1.0  0.93470  0.33354  0.31155  1.0000
  C   C3369     1.0  0.81176  0.47707  0.00572  1.0000
  H   H2684     1.0  0.98624  0.29118  0.28225  1.0000
  H   H2685     1.0  0.92695  0.31554  0.26434  1.0000
  C   C3370     1.0  0.96690  0.37761  0.26774  1.0000
  C   C3371     1.0  0.89882  0.44474  0.23052  1.0000
  C   C3372     1.0  0.82425  0.43216  0.06295  1.0000
  C   C3373     1.0  0.93585  0.43730  0.23765  1.0000
  S   S440      1.0  0.98271  0.37172  0.31713  1.0000
  C   C3374     1.0  0.84633  0.44145  0.14410  1.0000
  C   C3375     1.0  0.77011  0.31526  0.08345  1.0000
  H   H2686     1.0  0.84934  0.49086  0.06452  1.0000
  H   H2687     1.0  0.79699  0.39241  0.16309  1.0000
  H   H2688     1.0  0.86378  0.45567  0.15729  1.0000
  C   C3376     1.0  0.79460  0.40755  0.16126  1.0000
  S   S441      1.0  0.93637  0.40481  0.31653  1.0000
  C   C3377     1.0  0.75116  0.46563  0.10119  1.0000
  C   C3378     1.0  0.81098  0.43718  0.00230  1.0000
  H   H2689     1.0  0.82982  0.42985  0.03364  1.0000
  H   H2690     1.0  0.98125  0.48384  0.19773  1.0000
  C   C3379     1.0  0.87965  0.42595  0.12508  1.0000
  H   H2691     1.0  0.86944  0.35247  0.28827  1.0000
  C   C3380     1.0  0.77046  0.29695  0.09263  1.0000
  C   C3381     1.0  0.84374  0.43519  0.20827  1.0000
  C   C3382     1.0  0.76289  0.33517  0.17306  1.0000
  C   C3383     1.0  0.97230  0.36800  0.25218  1.0000
  C   C3384     1.0  0.77664  0.41669  0.16037  1.0000
  C   C3385     1.0  0.97618  0.44314  0.22675  1.0000
  C   C3386     1.0  0.90789  0.45923  0.23384  1.0000
  P   P115      1.0  0.95920  0.43238  0.24386  1.0000
  H   H2692     1.0  0.93167  0.43491  0.27688  1.0000
  H   H2693     1.0  0.83718  0.48581  0.16386  1.0000
  C   C3387     1.0  0.90813  0.42656  0.23082  1.0000
  H   H2694     1.0  0.96940  0.41016  0.17706  1.0000
  C   C3388     1.0  0.78803  0.44667  0.15767  1.0000
  H   H2695     1.0  0.89073  0.43183  0.28345  1.0000
  C   C3389     1.0  0.76928  0.47275  0.00012  1.0000
  C   C3390     1.0  0.96565  0.40731  0.24741  1.0000
  C   C3391     1.0  0.92619  0.45548  0.23773  1.0000
  H   H2696     1.0  0.77023  0.43926  0.03818  1.0000
  C   C3392     1.0  0.75236  0.29350  0.99679  1.0000
  H   H2697     1.0  0.96499  0.36993  0.28165  1.0000
  C   C3393     1.0  0.80017  0.42346  0.00012  1.0000
  H   H2698     1.0  0.85900  0.48395  0.27793  1.0000
  C   C3394     1.0  0.79808  0.45444  0.07255  1.0000
  P   P116      1.0  0.91909  0.30089  0.30383  1.0000
  H   H2699     1.0  0.75052  0.31551  0.13802  1.0000
  C   C3395     1.0  0.97333  0.45181  0.26784  1.0000
  C   C3396     1.0  0.97497  0.30026  0.28890  1.0000
  H   H2700     1.0  0.83465  0.44705  0.23391  1.0000
  C   C3397     1.0  0.87987  0.43840  0.13786  1.0000
  C   C3398     1.0  0.95871  0.44253  0.26508  1.0000
  C   C3399     1.0  0.89167  0.43732  0.31147  1.0000
  H   H2701     1.0  0.89096  0.46507  0.26976  1.0000
  C   C3400     1.0  0.74341  0.44973  0.11028  1.0000
  C   C3401     1.0  0.97442  0.37799  0.23423  1.0000
  H   H2702     1.0  0.93329  0.40854  0.23447  1.0000
  C   C3402     1.0  0.94306  0.44213  0.27857  1.0000
  C   C3403     1.0  0.97212  0.46078  0.28374  1.0000
  C   C3404     1.0  0.92636  0.48145  0.18984  1.0000
  C   C3405     1.0  0.74488  0.31066  0.06725  1.0000
  H   H2703     1.0  0.77487  0.33979  0.17715  1.0000
  C   C3406     1.0  0.89291  0.45074  0.32286  1.0000
  C   C3407     1.0  0.76484  0.44937  0.02716  1.0000
  H   H2704     1.0  0.81726  0.27259  0.07846  1.0000
  H   H2705     1.0  0.95884  0.40427  0.27758  1.0000
  C   C3408     1.0  0.74924  0.32142  0.15101  1.0000
  H   H2706     1.0  0.97452  0.35282  0.25396  1.0000
  H   H2707     1.0  0.89309  0.32637  0.28083  1.0000
  P   P117      1.0  0.80128  0.45624  0.01567  1.0000
  C   C3409     1.0  0.84146  0.43608  0.18944  1.0000
  H   H2708     1.0  0.78502  0.46176  0.15699  1.0000
  C   C3410     1.0  0.86280  0.42175  0.12128  1.0000
  H   H2709     1.0  0.90120  0.41541  0.22781  1.0000
  C   C3411     1.0  0.76616  0.38496  0.00956  1.0000
  C   C3412     1.0  0.97106  0.39756  0.23183  1.0000
  C   C3413     1.0  0.92655  0.42281  0.23433  1.0000
  H   H2710     1.0  0.81968  0.01063  0.30238  1.0000
  C   C3414     1.0  0.95639  0.46043  0.29698  1.0000
  H   H2711     1.0  0.95533  0.46727  0.30934  1.0000
  H   H2712     1.0  0.89291  0.44152  0.14106  1.0000
  H   H2713     1.0  0.82316  0.41052  0.16107  1.0000
  H   H2714     1.0  0.98330  0.46809  0.28574  1.0000
  H   H2715     1.0  0.78597  0.42382  0.00656  1.0000
  H   H2716     1.0  0.75936  0.44318  0.15876  1.0000
  C   C3415     1.0  0.97836  0.31699  0.29422  1.0000
  H   H2717     1.0  0.80475  0.46886  0.12601  1.0000
  C   C3416     1.0  0.80937  0.41792  0.16003  1.0000
  C   C3417     1.0  0.75837  0.28531  0.08883  1.0000
  P   P118      1.0  0.82519  0.45092  0.15722  1.0000
  C   C3418     1.0  0.89119  0.44247  0.29230  1.0000
  C   C3419     1.0  0.74547  0.33872  0.18337  1.0000
  H   H2718     1.0  0.76362  0.39052  0.99543  1.0000
  H   H2719     1.0  0.74413  0.34612  0.19543  1.0000
  H   H2720     1.0  0.95769  0.46811  0.21875  1.0000
  C   C3420     1.0  0.76478  0.32656  0.15688  1.0000
  H   H2721     1.0  0.85008  0.42609  0.18119  1.0000
  H   H2722     1.0  0.92987  0.45070  0.30480  1.0000
  C   C3421     1.0  0.94193  0.45110  0.29440  1.0000
  C   C3422     1.0  0.77336  0.43621  0.15883  1.0000
  C   C3423     1.0  0.96347  0.39718  0.26538  1.0000
  H   H2723     1.0  0.89256  0.41928  0.11839  1.0000
  H   H2724     1.0  0.86275  0.41202  0.11144  1.0000
  S   S442      1.0  0.74509  0.37464  0.14200  1.0000
  H   H2725     1.0  0.78950  0.46148  0.08348  1.0000
  C   C3424     1.0  0.92058  0.30287  0.26525  1.0000
  H   H2726     1.0  0.77963  0.32424  0.08617  1.0000
  H   H2727     1.0  0.83868  0.49374  0.25324  1.0000
  C   C3425     1.0  0.94226  0.30730  0.30011  1.0000
  H   H2728     1.0  0.90082  0.47343  0.23299  1.0000
  C   C3426     1.0  0.82072  0.47495  0.14660  1.0000
  H   H2729     1.0  0.79782  0.28006  0.05255  1.0000
  H   H2730     1.0  0.98558  0.45234  0.25772  1.0000
  C   C3427     1.0  0.74256  0.48081  0.12913  1.0000
  H   H2731     1.0  0.96633  0.34188  0.30654  1.0000
  H   H2732     1.0  0.81070  0.47076  0.22026  1.0000
  C   C3428     1.0  0.81711  0.46214  0.19276  1.0000
  H   H2733     1.0  0.75756  0.33622  0.06370  1.0000
  H   H2734     1.0  0.90726  0.46218  0.99431  1.0000
  C   C3429     1.0  0.82842  0.48911  0.15279  1.0000
  C   C3430     1.0  0.80562  0.29049  0.05564  1.0000
  H   H2735     1.0  0.83816  0.44623  0.99550  1.0000
  H   H2736     1.0  0.74247  0.49267  0.13652  1.0000
  C   C3431     1.0  0.98647  0.38699  0.16538  1.0000
  H   H2737     1.0  0.78296  0.46954  0.05075  1.0000
  H   H2738     1.0  0.98785  0.44127  0.31778  1.0000
  C   C3432     1.0  0.96379  0.32882  0.30255  1.0000
  C   C3433     1.0  0.98330  0.40298  0.17456  1.0000
  C   C3434     1.0  0.74606  0.45098  0.02526  1.0000
  H   H2739     1.0  0.74356  0.43793  0.10281  1.0000
  C   C3435     1.0  0.87466  0.35065  0.31681  1.0000
  C   C3436     1.0  0.75997  0.30827  0.00168  1.0000
  H   H2740     1.0  0.96796  0.47483  0.16747  1.0000
  C   C3437     1.0  0.81230  0.00172  0.31333  1.0000
  H   H2741     1.0  0.93753  0.44223  0.99572  1.0000
  Fe  Fe219     1.0  0.91329  0.38741  0.32470  1.0000
  C   C3438     1.0  0.91629  0.28315  0.32390  1.0000
  H   H2742     1.0  0.81673  0.48573  0.07530  1.0000
  C   C3439     1.0  0.82945  0.43599  0.99384  1.0000
  H   H2743     1.0  0.89507  0.47950  0.32418  1.0000
  H   H2744     1.0  0.95025  0.22496  0.31100  1.0000
  C   C3440     1.0  0.95771  0.22238  0.32307  1.0000
  C   C3441     1.0  0.97091  0.23385  0.32466  1.0000
  H   H2745     1.0  0.94545  0.27284  0.32361  1.0000
  H   H2746     1.0  0.79074  0.03033  0.35592  1.0000
  H   H2747     1.0  0.74452  0.05023  0.56713  1.0000
  Fe  Fe220     1.0  0.92873  0.41431  0.34488  1.0000
  H   H2748     1.0  0.83028  0.00472  0.39336  1.0000
  S   S443      1.0  0.93435  0.44440  0.34379  1.0000
  Fe  Fe221     1.0  0.92428  0.37353  0.36332  1.0000
  C   C3442     1.0  0.91394  0.17616  0.65366  1.0000
  S   S444      1.0  0.92324  0.35443  0.39117  1.0000
  H   H2749     1.0  0.90008  0.45288  0.36938  1.0000
  C   C3443     1.0  0.98023  0.45954  0.33915  1.0000
  H   H2750     1.0  0.74162  0.01646  0.63513  1.0000
  S   S445      1.0  0.94782  0.39087  0.35816  1.0000
  S   S446      1.0  0.90424  0.39818  0.35259  1.0000
  Fe  Fe222     1.0  0.84512  0.04035  0.43069  1.0000
  S   S447      1.0  0.81458  0.04695  0.43849  1.0000
  S   S448      1.0  0.85843  0.01139  0.42352  1.0000
  Fe  Fe223     1.0  0.85231  0.08029  0.43531  1.0000
  S   S449      1.0  0.82210  0.08961  0.44319  1.0000
  S   S450      1.0  0.87596  0.09734  0.43601  1.0000
  Fe  Fe224     1.0  0.82155  0.06165  0.46084  1.0000
  S   S451      1.0  0.80419  0.05859  0.48908  1.0000
  Fe  Fe225     1.0  0.81732  0.07415  0.42021  1.0000
  S   S452      1.0  0.79523  0.08722  0.40206  1.0000
  S   S453      1.0  0.85214  0.05294  0.45475  1.0000
  S   S454      1.0  0.84770  0.06697  0.41059  1.0000
  Fe  Fe226     1.0  0.81004  0.08779  0.61189  1.0000
  S   S455      1.0  0.83310  0.07992  0.62989  1.0000
  S   S456      1.0  0.78074  0.09113  0.62648  1.0000
  Fe  Fe227     1.0  0.83607  0.08592  0.57653  1.0000
  S   S457      1.0  0.86077  0.07741  0.59172  1.0000
  S   S458      1.0  0.84407  0.09071  0.54570  1.0000
  Fe  Fe228     1.0  0.84317  0.05793  0.61067  1.0000
  S   S459      1.0  0.85613  0.02863  0.62132  1.0000
  Fe  Fe229     1.0  0.84848  0.10031  0.60903  1.0000
  S   S460      1.0  0.86977  0.11829  0.61442  1.0000
  S   S461      1.0  0.81936  0.06470  0.59389  1.0000
  S   S462      1.0  0.82450  0.10994  0.59266  1.0000
  Fe  Fe230     1.0  0.91438  0.25235  0.61561  1.0000
  S   S463      1.0  0.94094  0.24834  0.59607  1.0000
  C   C3444     1.0  0.92220  0.46529  0.35147  1.0000
  Fe  Fe231     1.0  0.89730  0.22196  0.60045  1.0000
  S   S464      1.0  0.92239  0.21625  0.57992  1.0000
  S   S465      1.0  0.87200  0.20698  0.60072  1.0000
  Fe  Fe232     1.0  0.93886  0.21764  0.60298  1.0000
  S   S466      1.0  0.96245  0.19436  0.60612  1.0000
  Fe  Fe233     1.0  0.92243  0.24725  0.57437  1.0000
  S   S467      1.0  0.93038  0.25964  0.54444  1.0000
  S   S468      1.0  0.89582  0.25352  0.59326  1.0000
  Fe  Fe234     1.0  0.91385  0.21930  0.45520  1.0000
  S   S469      1.0  0.92616  0.19398  0.44113  1.0000
  S   S470      1.0  0.90558  0.21459  0.48650  1.0000
  Fe  Fe235     1.0  0.90930  0.24488  0.41827  1.0000
  S   S471      1.0  0.92052  0.22116  0.40158  1.0000
  S   S472      1.0  0.89833  0.27270  0.40212  1.0000
  Fe  Fe236     1.0  0.90362  0.20250  0.42271  1.0000
  S   S473      1.0  0.88271  0.18505  0.41580  1.0000
  Fe  Fe237     1.0  0.94192  0.21467  0.42138  1.0000
  S   S474      1.0  0.97147  0.21046  0.40790  1.0000
  S   S475      1.0  0.89054  0.22687  0.43771  1.0000
  S   S476      1.0  0.93165  0.23936  0.43704  1.0000
  C   C3445     1.0  0.96096  0.32611  0.60650  1.0000
  C   C3446     1.0  0.85389  0.00516  0.61870  1.0000
  C   C3447     1.0  0.98406  0.32398  0.36926  1.0000
  H   H2751     1.0  0.92644  0.46031  0.39984  1.0000
  H   H2752     1.0  0.96957  0.20549  0.44851  1.0000
  H   H2753     1.0  0.84231  0.01495  0.57262  1.0000
  H   H2754     1.0  0.97887  0.30791  0.43930  1.0000
  P   P119      1.0  0.84193  0.99937  0.53813  1.0000
  C   C3448     1.0  0.76701  0.00305  0.62122  1.0000
  C   C3449     1.0  0.75786  0.01546  0.48350  1.0000
  C   C3450     1.0  0.74825  0.10242  0.51004  1.0000
  C   C3451     1.0  0.92376  0.24704  0.52821  1.0000
  C   C3452     1.0  0.93204  0.24896  0.50953  1.0000
  C   C3453     1.0  0.92655  0.23919  0.49643  1.0000
  C   C3454     1.0  0.91275  0.22750  0.50204  1.0000
  C   C3455     1.0  0.90443  0.22572  0.52066  1.0000
  C   C3456     1.0  0.90988  0.23546  0.53370  1.0000
  H   H2755     1.0  0.94275  0.25794  0.50523  1.0000
  H   H2756     1.0  0.93306  0.24052  0.48209  1.0000
  H   H2757     1.0  0.89363  0.21684  0.52500  1.0000
  H   H2758     1.0  0.90310  0.23420  0.54795  1.0000
  C   C3457     1.0  0.87195  0.18223  0.60328  1.0000
  C   C3458     1.0  0.88788  0.16961  0.60604  1.0000
  C   C3459     1.0  0.88700  0.15012  0.60882  1.0000
  C   C3460     1.0  0.87030  0.14294  0.60884  1.0000
  C   C3461     1.0  0.85453  0.15553  0.60535  1.0000
  C   C3462     1.0  0.85531  0.17505  0.60288  1.0000
  H   H2759     1.0  0.90083  0.17485  0.60627  1.0000
  H   H2760     1.0  0.89935  0.14048  0.61100  1.0000
  H   H2761     1.0  0.84160  0.15026  0.60519  1.0000
  H   H2762     1.0  0.84291  0.18467  0.60073  1.0000
  C   C3463     1.0  0.87710  0.12193  0.43099  1.0000
  C   C3464     1.0  0.89341  0.12879  0.43332  1.0000
  C   C3465     1.0  0.89517  0.14809  0.42924  1.0000
  C   C3466     1.0  0.88068  0.16079  0.42259  1.0000
  C   C3467     1.0  0.86427  0.15399  0.42050  1.0000
  C   C3468     1.0  0.86242  0.13471  0.42478  1.0000
  H   H2763     1.0  0.90488  0.11906  0.43804  1.0000
  H   H2764     1.0  0.90795  0.15303  0.43061  1.0000
  H   H2765     1.0  0.85299  0.16366  0.41528  1.0000
  H   H2766     1.0  0.84979  0.12968  0.42293  1.0000
  C   C3469     1.0  0.81565  0.06602  0.50548  1.0000
  C   C3470     1.0  0.80839  0.06461  0.52447  1.0000
  C   C3471     1.0  0.81727  0.07161  0.53728  1.0000
  C   C3472     1.0  0.83337  0.07996  0.53098  1.0000
  C   C3473     1.0  0.84071  0.08092  0.51212  1.0000
  C   C3474     1.0  0.83189  0.07401  0.49941  1.0000
  H   H2767     1.0  0.79578  0.05841  0.52918  1.0000
  H   H2768     1.0  0.81150  0.07092  0.55185  1.0000
  H   H2769     1.0  0.85316  0.08725  0.50719  1.0000
  H   H2770     1.0  0.83749  0.07534  0.48479  1.0000
  C   C3475     1.0  0.76651  0.09618  0.51363  1.0000
  H   H2771     1.0  0.86814  0.26786  0.43912  1.0000
  H   H2772     1.0  0.88589  0.29195  0.44480  1.0000
  H   H2773     1.0  0.96180  0.17444  0.49778  1.0000
  H   H2774     1.0  0.77202  0.08150  0.51379  1.0000
  C   C3476     1.0  0.91165  0.25772  0.35670  1.0000
  C   C3477     1.0  0.76327  0.09014  0.61270  1.0000
  H   H2775     1.0  0.77998  0.13784  0.51819  1.0000
  H   H2776     1.0  0.97164  0.47421  0.36289  1.0000
  H   H2777     1.0  0.78011  0.09595  0.58630  1.0000
  C   C3478     1.0  0.77775  0.07395  0.39955  1.0000
  C   C3479     1.0  0.77964  0.05442  0.40420  1.0000
  H   H2778     1.0  0.79207  0.04707  0.40938  1.0000
  C   C3480     1.0  0.91734  0.33132  0.39347  1.0000
  C   C3481     1.0  0.92302  0.31789  0.40824  1.0000
  C   C3482     1.0  0.91769  0.29972  0.41092  1.0000
  C   C3483     1.0  0.90642  0.29490  0.39896  1.0000
  C   C3484     1.0  0.90093  0.30828  0.38412  1.0000
  C   C3485     1.0  0.90651  0.32631  0.38127  1.0000
  H   H2779     1.0  0.93152  0.32158  0.41767  1.0000
  H   H2780     1.0  0.92203  0.28955  0.42234  1.0000
  H   H2781     1.0  0.89221  0.30470  0.37481  1.0000
  H   H2782     1.0  0.90200  0.33651  0.36995  1.0000
  H   H2783     1.0  0.79857  0.10528  0.47452  1.0000
  H   H2784     1.0  0.97832  0.28453  0.32948  1.0000
  C   C3486     1.0  0.83941  0.00712  0.47463  1.0000
  H   H2785     1.0  0.77741  0.04138  0.44506  1.0000
  H   H2786     1.0  0.98490  0.41232  0.33973  1.0000
  C   C3487     1.0  0.92931  0.25916  0.34706  1.0000
  C   C3488     1.0  0.81081  0.01504  0.37346  1.0000
  H   H2787     1.0  0.77492  0.08228  0.44560  1.0000
  H   H2788     1.0  0.97870  0.48116  0.39728  1.0000
  H   H2789     1.0  0.97945  0.36616  0.35713  1.0000
  H   H2790     1.0  0.94214  0.48196  0.33508  1.0000
  H   H2791     1.0  0.78092  0.13041  0.45480  1.0000
  C   C3489     1.0  0.91067  0.33277  0.64367  1.0000
  C   C3490     1.0  0.91038  0.32663  0.62627  1.0000
  C   C3491     1.0  0.91091  0.30740  0.62474  1.0000
  H   H2792     1.0  0.74780  0.14905  0.51190  1.0000
  H   H2793     1.0  0.90961  0.33683  0.61391  1.0000
  H   H2794     1.0  0.91050  0.30295  0.61132  1.0000
  C   C3492     1.0  0.96292  0.20482  0.35316  1.0000
  C   C3493     1.0  0.90536  0.33193  0.45264  1.0000
  C   C3494     1.0  0.87686  0.32207  0.50662  1.0000
  S   S477      1.0  0.91377  0.22118  0.62428  1.0000
  H   H2795     1.0  0.92847  0.13128  0.62953  1.0000
  C   C3495     1.0  0.89708  0.15556  0.48555  1.0000
  C   C3496     1.0  0.91498  0.15486  0.47604  1.0000
  C   C3497     1.0  0.93011  0.15310  0.48599  1.0000
  C   C3498     1.0  0.92731  0.15195  0.50551  1.0000
  C   C3499     1.0  0.90931  0.15285  0.51518  1.0000
  C   C3500     1.0  0.89425  0.15453  0.50505  1.0000
  P   P120      1.0  0.90580  0.15023  0.54046  1.0000
  C   C3501     1.0  0.88259  0.16055  0.54828  1.0000
  C   C3502     1.0  0.90874  0.12559  0.54960  1.0000
  C   C3503     1.0  0.90168  0.11973  0.56816  1.0000
  C   C3504     1.0  0.90293  0.10067  0.57508  1.0000
  C   C3505     1.0  0.91122  0.08726  0.56353  1.0000
  C   C3506     1.0  0.91849  0.09294  0.54509  1.0000
  C   C3507     1.0  0.91731  0.11203  0.53813  1.0000
  C   C3508     1.0  0.87879  0.17970  0.55029  1.0000
  C   C3509     1.0  0.86072  0.18767  0.55584  1.0000
  C   C3510     1.0  0.84629  0.17663  0.55936  1.0000
  C   C3511     1.0  0.84995  0.15755  0.55752  1.0000
  C   C3512     1.0  0.86801  0.14954  0.55205  1.0000
  C   C3513     1.0  0.92212  0.16254  0.54845  1.0000
  C   C3514     1.0  0.92712  0.17934  0.53808  1.0000
  C   C3515     1.0  0.93956  0.18905  0.54425  1.0000
  C   C3516     1.0  0.94729  0.18200  0.56067  1.0000
  C   C3517     1.0  0.94218  0.16549  0.57124  1.0000
  C   C3518     1.0  0.92961  0.15579  0.56520  1.0000
  H   H2796     1.0  0.88541  0.15689  0.47775  1.0000
  H   H2797     1.0  0.91710  0.15570  0.46093  1.0000
  H   H2798     1.0  0.94396  0.15263  0.47850  1.0000
  H   H2799     1.0  0.93916  0.15027  0.51308  1.0000
  H   H2800     1.0  0.88033  0.15494  0.51217  1.0000
  H   H2801     1.0  0.89482  0.12987  0.57722  1.0000
  H   H2802     1.0  0.89712  0.09631  0.58936  1.0000
  H   H2803     1.0  0.91184  0.07248  0.56888  1.0000
  C   C3519     1.0  0.80154  0.03127  0.36420  1.0000
  H   H2804     1.0  0.92275  0.11604  0.52371  1.0000
  H   H2805     1.0  0.88972  0.18850  0.54790  1.0000
  H   H2806     1.0  0.85804  0.20231  0.55799  1.0000
  H   H2807     1.0  0.83239  0.18274  0.56407  1.0000
  H   H2808     1.0  0.83888  0.14883  0.56070  1.0000
  H   H2809     1.0  0.87056  0.13468  0.55097  1.0000
  H   H2810     1.0  0.92113  0.18517  0.52539  1.0000
  H   H2811     1.0  0.94283  0.20234  0.53654  1.0000
  H   H2812     1.0  0.95657  0.18980  0.56569  1.0000
  H   H2813     1.0  0.94761  0.16056  0.58439  1.0000
  H   H2814     1.0  0.92559  0.14324  0.57379  1.0000
  C   C3520     1.0  0.75302  0.13428  0.51241  1.0000
  C   C3521     1.0  0.97976  0.40352  0.63909  1.0000
  H   H2815     1.0  0.97459  0.27660  0.46991  1.0000
  H   H2816     1.0  0.80050  0.02685  0.59490  1.0000
  C   C3522     1.0  0.92520  0.48958  0.40158  1.0000
  C   C3523     1.0  0.97942  0.46952  0.65066  1.0000
  C   C3524     1.0  0.97254  0.19709  0.50668  1.0000
  C   C3525     1.0  0.82429  0.00981  0.50601  1.0000
  C   C3526     1.0  0.97465  0.34618  0.40622  1.0000
  H   H2817     1.0  0.97368  0.25546  0.42289  1.0000
  P   P121      1.0  0.96611  0.44524  0.39555  1.0000
  H   H2818     1.0  0.94151  0.35894  0.44125  1.0000
  H   H2819     1.0  0.77761  0.01201  0.43164  1.0000
  H   H2820     1.0  0.79883  0.06149  0.35872  1.0000
  C   C3527     1.0  0.85889  0.03740  0.56576  1.0000
  C   C3528     1.0  0.75897  0.03667  0.62097  1.0000
  H   H2821     1.0  0.95765  0.32585  0.65554  1.0000
  H   H2822     1.0  0.87813  0.19591  0.63829  1.0000
  H   H2823     1.0  0.91798  0.39052  0.42552  1.0000
  H   H2824     1.0  0.85479  0.34555  0.44161  1.0000
  C   C3529     1.0  0.95758  0.27349  0.38131  1.0000
  C   C3530     1.0  0.93865  0.42304  0.39425  1.0000
  C   C3531     1.0  0.75242  0.09224  0.58250  1.0000
  C   C3532     1.0  0.81977  0.05051  0.37655  1.0000
  C   C3533     1.0  0.98608  0.26229  0.42076  1.0000
  C   C3534     1.0  0.96360  0.47369  0.64155  1.0000
  C   C3535     1.0  0.89699  0.48296  0.36957  1.0000
  C   C3536     1.0  0.93642  0.15739  0.63412  1.0000
  C   C3537     1.0  0.81351  0.00282  0.33209  1.0000
  C   C3538     1.0  0.74831  0.07393  0.44456  1.0000
  C   C3539     1.0  0.82836  0.03448  0.38650  1.0000
  C   C3540     1.0  0.87831  0.11167  0.48235  1.0000
  C   C3541     1.0  0.88568  0.10566  0.49915  1.0000
  C   C3542     1.0  0.87662  0.11209  0.51563  1.0000
  C   C3543     1.0  0.86029  0.12459  0.51528  1.0000
  C   C3544     1.0  0.85266  0.13049  0.49855  1.0000
  C   C3545     1.0  0.86190  0.12410  0.48198  1.0000
  P   P122      1.0  0.83283  0.14825  0.49778  1.0000
  C   C3546     1.0  0.81900  0.14843  0.52038  1.0000
  C   C3547     1.0  0.84285  0.16960  0.48981  1.0000
  C   C3548     1.0  0.84919  0.17891  0.50272  1.0000
  C   C3549     1.0  0.85924  0.19398  0.49650  1.0000
  C   C3550     1.0  0.86312  0.19979  0.47738  1.0000
  C   C3551     1.0  0.85701  0.19054  0.46443  1.0000
  C   C3552     1.0  0.84712  0.17532  0.47058  1.0000
  C   C3553     1.0  0.81060  0.16530  0.52685  1.0000
  C   C3554     1.0  0.79970  0.16502  0.54431  1.0000
  C   C3555     1.0  0.79683  0.14792  0.55522  1.0000
  C   C3556     1.0  0.80463  0.13111  0.54855  1.0000
  C   C3557     1.0  0.81547  0.13139  0.53112  1.0000
  C   C3558     1.0  0.81746  0.14277  0.48290  1.0000
  C   C3559     1.0  0.81436  0.12411  0.48353  1.0000
  C   C3560     1.0  0.79397  0.15257  0.46202  1.0000
  C   C3561     1.0  0.80698  0.15705  0.47229  1.0000
  H   H2825     1.0  0.88526  0.10652  0.46961  1.0000
  H   H2826     1.0  0.89820  0.09579  0.49939  1.0000
  H   H2827     1.0  0.88185  0.10698  0.52883  1.0000
  H   H2828     1.0  0.85343  0.12930  0.52819  1.0000
  H   H2829     1.0  0.85652  0.12872  0.46875  1.0000
  H   H2830     1.0  0.84714  0.17401  0.51754  1.0000
  H   H2831     1.0  0.86468  0.20076  0.50642  1.0000
  H   H2832     1.0  0.87140  0.21107  0.47263  1.0000
  H   H2833     1.0  0.86051  0.19475  0.44957  1.0000
  H   H2834     1.0  0.84349  0.16765  0.46027  1.0000
  H   H2835     1.0  0.81231  0.17863  0.51840  1.0000
  H   H2836     1.0  0.79337  0.17806  0.54935  1.0000
  H   H2837     1.0  0.78842  0.14764  0.56876  1.0000
  H   H2838     1.0  0.80229  0.11778  0.55682  1.0000
  H   H2839     1.0  0.82104  0.11829  0.52592  1.0000
  H   H2840     1.0  0.82200  0.11293  0.49192  1.0000
  H   H2841     1.0  0.78612  0.16356  0.45358  1.0000
  H   H2842     1.0  0.80872  0.17160  0.47204  1.0000
  H   H2843     1.0  0.89387  0.44650  0.33760  1.0000
  C   C3562     1.0  0.92721  0.40086  0.41992  1.0000
  H   H2844     1.0  0.98828  0.15168  0.59893  1.0000
  H   H2845     1.0  0.87519  0.05974  0.55479  1.0000
  H   H2846     1.0  0.86798  0.99523  0.47205  1.0000
  C   C3563     1.0  0.76167  0.08320  0.39242  1.0000
  H   H2847     1.0  0.83902  0.00974  0.45974  1.0000
  C   C3564     1.0  0.77215  0.02945  0.45373  1.0000
  C   C3565     1.0  0.96376  0.48338  0.39858  1.0000
  H   H2848     1.0  0.76617  0.04315  0.47854  1.0000
  C   C3566     1.0  0.97959  0.26476  0.35485  1.0000
  C   C3567     1.0  0.95251  0.29451  0.48382  1.0000
  C   C3568     1.0  0.80747  0.01652  0.55235  1.0000
  H   H2849     1.0  0.95385  0.30691  0.34369  1.0000
  H   H2850     1.0  0.87442  0.31668  0.55416  1.0000
  C   C3569     1.0  0.97165  0.26077  0.37349  1.0000
  H   H2851     1.0  0.94116  0.25069  0.35259  1.0000
  C   C3570     1.0  0.74576  0.08624  0.62146  1.0000
  C   C3571     1.0  0.85200  0.01900  0.54305  1.0000
  H   H2852     1.0  0.79196  0.10395  0.51938  1.0000
  C   C3572     1.0  0.89724  0.29474  0.51777  1.0000
  C   C3573     1.0  0.81881  0.99945  0.55031  1.0000
  H   H2853     1.0  0.98823  0.48474  0.45490  1.0000
  H   H2854     1.0  0.87967  0.36312  0.42391  1.0000
  C   C3574     1.0  0.85580  0.99906  0.48167  1.0000
  C   C3575     1.0  0.95910  0.29416  0.35203  1.0000
  C   C3576     1.0  0.80617  0.04893  0.36560  1.0000
  H   H2855     1.0  0.77900  0.05380  0.60548  1.0000
  H   H2856     1.0  0.97499  0.21763  0.55388  1.0000
  H   H2857     1.0  0.82546  0.12965  0.64608  1.0000
  Fe  Fe238     1.0  0.95365  0.38034  0.33030  1.0000
  C   C3577     1.0  0.91172  0.30020  0.65806  1.0000
  H   H2858     1.0  0.76010  0.09827  0.38879  1.0000
  H   H2859     1.0  0.82363  0.16430  0.63990  1.0000
  C   C3578     1.0  0.85023  0.02305  0.56150  1.0000
  H   H2860     1.0  0.78011  0.02991  0.56096  1.0000
  C   C3579     1.0  0.92679  0.40969  0.40159  1.0000
  C   C3580     1.0  0.75734  0.08346  0.47200  1.0000
  C   C3581     1.0  0.98056  0.23055  0.34032  1.0000
  C   C3582     1.0  0.97311  0.28149  0.34412  1.0000
  C   C3583     1.0  0.95934  0.33258  0.44214  1.0000
  C   C3584     1.0  0.95562  0.34177  0.61597  1.0000
  H   H2861     1.0  0.91958  0.32811  0.45515  1.0000
  C   C3585     1.0  0.76149  0.08011  0.45332  1.0000
  C   C3586     1.0  0.95147  0.29024  0.37062  1.0000
  H   H2862     1.0  0.75138  0.07139  0.43015  1.0000
  C   C3587     1.0  0.76548  0.03055  0.47253  1.0000
  C   C3588     1.0  0.97312  0.44410  0.37084  1.0000
  C   C3589     1.0  0.86887  0.34187  0.44484  1.0000
  H   H2863     1.0  0.86935  0.23014  0.63569  1.0000
  C   C3590     1.0  0.97701  0.42666  0.36404  1.0000
  C   C3591     1.0  0.91140  0.29406  0.64070  1.0000
  H   H2864     1.0  0.81109  0.01893  0.48113  1.0000
  H   H2865     1.0  0.91180  0.35449  0.43097  1.0000
  H   H2866     1.0  0.97244  0.33386  0.34357  1.0000
  C   C3592     1.0  0.79100  0.13392  0.46271  1.0000
  H   H2867     1.0  0.96704  0.25103  0.55780  1.0000
  H   H2868     1.0  0.88447  0.48326  0.37940  1.0000
  S   S478      1.0  0.90985  0.35723  0.64487  1.0000
  H   H2869     1.0  0.95356  0.32743  0.45615  1.0000
  C   C3593     1.0  0.74134  0.06526  0.53982  1.0000
  C   C3594     1.0  0.96940  0.29673  0.65718  1.0000
  H   H2870     1.0  0.97509  0.45736  0.42948  1.0000
  C   C3595     1.0  0.80106  0.11973  0.47365  1.0000
  C   C3596     1.0  0.90168  0.16271  0.65577  1.0000
  S   S479      1.0  0.91086  0.26974  0.63998  1.0000
  H   H2871     1.0  0.75498  0.09487  0.56740  1.0000
  H   H2872     1.0  0.74406  0.07825  0.54381  1.0000
  C   C3597     1.0  0.74158  0.12158  0.50942  1.0000
  H   H2873     1.0  0.95498  0.37084  0.40918  1.0000
  C   C3598     1.0  0.88987  0.30648  0.50282  1.0000
  H   H2874     1.0  0.97581  0.41375  0.37342  1.0000
  C   C3599     1.0  0.97481  0.46055  0.35822  1.0000
  C   C3600     1.0  0.89150  0.32159  0.46235  1.0000
  C   C3601     1.0  0.98394  0.20410  0.44248  1.0000
  C   C3602     1.0  0.98138  0.19839  0.61644  1.0000
  H   H2875     1.0  0.85775  0.04012  0.58012  1.0000
  H   H2876     1.0  0.84702  0.18039  0.64941  1.0000
  H   H2877     1.0  0.97697  0.17633  0.63916  1.0000
  C   C3603     1.0  0.82367  0.01686  0.38525  1.0000
  C   C3604     1.0  0.78774  0.02445  0.60384  1.0000
  H   H2878     1.0  0.97585  0.24756  0.38179  1.0000
  C   C3605     1.0  0.83444  0.15625  0.64743  1.0000
  C   C3606     1.0  0.78885  0.01666  0.55975  1.0000
  S   S480      1.0  0.93130  0.36171  0.33602  1.0000
  C   C3607     1.0  0.87336  0.20241  0.65086  1.0000
  H   H2879     1.0  0.94123  0.34783  0.61775  1.0000
  H   H2880     1.0  0.89140  0.48487  0.65702  1.0000
  C   C3608     1.0  0.86890  0.04827  0.55154  1.0000
  H   H2881     1.0  0.87090  0.33143  0.49548  1.0000
  H   H2882     1.0  0.92800  0.31059  0.49576  1.0000
  C   C3609     1.0  0.95992  0.28163  0.47138  1.0000
  C   C3610     1.0  0.96027  0.35715  0.41584  1.0000
  C   C3611     1.0  0.95261  0.35038  0.43381  1.0000
  H   H2883     1.0  0.97186  0.25099  0.62520  1.0000
  C   C3612     1.0  0.75465  0.01846  0.62668  1.0000
  C   C3613     1.0  0.93448  0.47151  0.40020  1.0000
  H   H2884     1.0  0.83858  0.03564  0.39536  1.0000
  C   C3614     1.0  0.98466  0.32724  0.34979  1.0000
  C   C3615     1.0  0.97361  0.32148  0.43245  1.0000
  H   H2885     1.0  0.96378  0.36069  0.63196  1.0000
  C   C3616     1.0  0.87016  0.04484  0.53301  1.0000
  H   H2886     1.0  0.87728  0.05378  0.52190  1.0000
  C   C3617     1.0  0.78335  0.00622  0.60929  1.0000
  H   H2887     1.0  0.82313  0.06423  0.37789  1.0000
  C   C3618     1.0  0.86179  0.03024  0.52874  1.0000
  H   H2888     1.0  0.94035  0.18418  0.64087  1.0000
  H   H2889     1.0  0.93792  0.42996  0.38016  1.0000
  H   H2890     1.0  0.95397  0.26468  0.45176  1.0000
  H   H2891     1.0  0.82942  0.01058  0.60483  1.0000
  H   H2892     1.0  0.93978  0.39863  0.44517  1.0000
  H   H2893     1.0  0.82211  0.01240  0.33541  1.0000
  C   C3619     1.0  0.87116  0.26827  0.45318  1.0000
  H   H2894     1.0  0.86223  0.31905  0.46588  1.0000
  C   C3620     1.0  0.93954  0.40538  0.43091  1.0000
  H   H2895     1.0  0.81290  0.02970  0.54765  1.0000
  C   C3621     1.0  0.76581  0.04422  0.40116  1.0000
  C   C3622     1.0  0.76450  0.99781  0.45708  1.0000
  H   H2896     1.0  0.90983  0.24829  0.36963  1.0000
  C   C3623     1.0  0.92952  0.48208  0.34467  1.0000
  H   H2897     1.0  0.98264  0.21396  0.36746  1.0000
  H   H2898     1.0  0.96083  0.42206  0.43230  1.0000
  H   H2899     1.0  0.90727  0.28264  0.51523  1.0000
  H   H2900     1.0  0.92481  0.08252  0.53610  1.0000
  H   H2901     1.0  0.76775  0.02909  0.40379  1.0000
  H   H2902     1.0  0.97662  0.29839  0.64315  1.0000
  C   C3624     1.0  0.95150  0.41868  0.42353  1.0000
  H   H2903     1.0  0.92049  0.27527  0.45557  1.0000
  H   H2904     1.0  0.81919  0.00824  0.43453  1.0000
  H   H2905     1.0  0.91726  0.40620  0.39302  1.0000
  H   H2906     1.0  0.97168  0.41484  0.63123  1.0000
  C   C3625     1.0  0.94831  0.27493  0.46111  1.0000
  C   C3626     1.0  0.87873  0.31390  0.53985  1.0000
  C   C3627     1.0  0.92928  0.28092  0.46338  1.0000
  C   C3628     1.0  0.86541  0.25484  0.46781  1.0000
  C   C3629     1.0  0.92170  0.29370  0.47598  1.0000
  C   C3630     1.0  0.74965  0.05353  0.39428  1.0000
  C   C3631     1.0  0.89853  0.28125  0.33348  1.0000
  C   C3632     1.0  0.88283  0.35183  0.43495  1.0000
  H   H2907     1.0  0.74939  0.04850  0.62513  1.0000
  C   C3633     1.0  0.98391  0.44213  0.33253  1.0000
  H   H2908     1.0  0.86126  0.33775  0.52797  1.0000
  C   C3634     1.0  0.77559  0.03967  0.60974  1.0000
  P   P123      1.0  0.89707  0.30129  0.47911  1.0000
  C   C3635     1.0  0.75709  0.99908  0.47577  1.0000
  H   H2909     1.0  0.76784  0.08810  0.47846  1.0000
  C   C3636     1.0  0.95758  0.49220  0.63468  1.0000
  C   C3637     1.0  0.77114  0.12795  0.51604  1.0000
  C   C3638     1.0  0.92450  0.14374  0.63642  1.0000
  H   H2910     1.0  0.89744  0.28913  0.54760  1.0000
  C   C3639     1.0  0.86845  0.22183  0.64938  1.0000
  C   C3640     1.0  0.77197  0.01299  0.44609  1.0000
  H   H2911     1.0  0.97235  0.28934  0.41079  1.0000
  C   C3641     1.0  0.98141  0.24531  0.55452  1.0000
  H   H2912     1.0  0.89805  0.13581  0.64835  1.0000
  H   H2913     1.0  0.95102  0.27013  0.39551  1.0000
  C   C3642     1.0  0.95387  0.46826  0.39873  1.0000
  C   C3643     1.0  0.97949  0.31817  0.60447  1.0000
  C   C3644     1.0  0.98232  0.42574  0.34496  1.0000
  C   C3645     1.0  0.74150  0.04934  0.55319  1.0000
  C   C3646     1.0  0.90718  0.14637  0.64720  1.0000
  C   C3647     1.0  0.89168  0.29841  0.53618  1.0000
  H   H2914     1.0  0.94328  0.19915  0.33628  1.0000
  C   C3648     1.0  0.84071  0.00172  0.51330  1.0000
  C   C3649     1.0  0.95373  0.20786  0.33731  1.0000
  C   C3650     1.0  0.98662  0.44060  0.40730  1.0000
  H   H2915     1.0  0.86286  0.02803  0.51426  1.0000
  C   C3651     1.0  0.90100  0.34698  0.43899  1.0000
  H   H2916     1.0  0.95064  0.31999  0.60105  1.0000
  H   H2917     1.0  0.98599  0.16936  0.56767  1.0000
  C   C3652     1.0  0.77787  0.10889  0.51671  1.0000
  C   C3653     1.0  0.93350  0.30066  0.48601  1.0000
  H   H2918     1.0  0.86641  0.24390  0.49683  1.0000
  C   C3654     1.0  0.89928  0.32679  0.32631  1.0000
  C   C3655     1.0  0.87316  0.32685  0.45855  1.0000
  H   H2919     1.0  0.88356  0.26826  0.50306  1.0000
  H   H2920     1.0  0.85775  0.24412  0.46514  1.0000
  C   C3656     1.0  0.87998  0.26870  0.48913  1.0000
  C   C3657     1.0  0.87011  0.25485  0.48569  1.0000
  C   C3658     1.0  0.88125  0.28197  0.45649  1.0000
  C   C3659     1.0  0.90582  0.46574  0.36394  1.0000
  C   C3660     1.0  0.82366  0.01235  0.48674  1.0000
  H   H2921     1.0  0.95546  0.46267  0.64066  1.0000
  C   C3661     1.0  0.95128  0.42747  0.40503  1.0000
  C   C3662     1.0  0.87133  0.32574  0.52508  1.0000
  C   C3663     1.0  0.78154  0.99977  0.56547  1.0000
  C   C3664     1.0  0.98118  0.32811  0.41426  1.0000
  H   H2922     1.0  0.94055  0.30005  0.37656  1.0000
  C   C3665     1.0  0.88527  0.28264  0.47464  1.0000
  C   C3666     1.0  0.76664  0.09295  0.59317  1.0000
  C   C3667     1.0  0.98699  0.44839  0.42375  1.0000
  C   C3668     1.0  0.96864  0.34932  0.62372  1.0000
  H   H2923     1.0  0.96144  0.29949  0.49203  1.0000
  C   C3669     1.0  0.98856  0.20550  0.42304  1.0000
  H   H2924     1.0  0.76721  0.00614  0.36565  1.0000
  C   C3670     1.0  0.83983  0.99990  0.61017  1.0000
  H   H2925     1.0  0.76713  0.99987  0.57120  1.0000
  C   C3671     1.0  0.76732  0.99692  0.37873  1.0000
  H   H2926     1.0  0.94966  0.15565  0.62541  1.0000
  C   C3672     1.0  0.84789  0.16533  0.65280  1.0000
  H   H2927     1.0  0.75210  0.01388  0.33568  1.0000
  C   C3673     1.0  0.93117  0.17352  0.64284  1.0000
  H   H2928     1.0  0.81204  0.01466  0.51495  1.0000
  H   H2929     1.0  0.91024  0.49212  0.40246  1.0000
  H   H2930     1.0  0.98531  0.25569  0.59232  1.0000
  C   C3674     1.0  0.74756  0.07306  0.39002  1.0000
  H   H2931     1.0  0.74325  0.08387  0.63655  1.0000
  H   H2932     1.0  0.94460  0.25954  0.65801  1.0000
  H   H2933     1.0  0.95947  0.19393  0.36452  1.0000
  H   H2934     1.0  0.75254  0.01657  0.49798  1.0000
  H   H2935     1.0  0.87782  0.99494  0.63272  1.0000
  C   C3675     1.0  0.97620  0.21616  0.35472  1.0000
  H   H2936     1.0  0.98356  0.30584  0.59740  1.0000
  C   C3676     1.0  0.98591  0.18657  0.63252  1.0000
  C   C3677     1.0  0.83543  0.13674  0.65095  1.0000
  H   H2937     1.0  0.96493  0.20781  0.49768  1.0000
  C   C3678     1.0  0.98416  0.25794  0.62152  1.0000
  C   C3679     1.0  0.98993  0.48374  0.65221  1.0000
  C   C3680     1.0  0.89628  0.26868  0.34988  1.0000
  H   H2938     1.0  0.88264  0.26765  0.35760  1.0000
  C   C3681     1.0  0.93166  0.27179  0.33068  1.0000
  H   H2939     1.0  0.97959  0.14975  0.51793  1.0000
  H   H2940     1.0  0.98309  0.45520  0.65676  1.0000
  H   H2941     1.0  0.97104  0.32748  0.37781  1.0000
  H   H2942     1.0  0.98130  0.47226  0.32948  1.0000
  H   H2943     1.0  0.98314  0.38528  0.61792  1.0000
  C   C3682     1.0  0.85648  0.99636  0.50097  1.0000
  C   C3683     1.0  0.98545  0.28134  0.41380  1.0000
  C   C3684     1.0  0.98367  0.40574  0.65674  1.0000
  C   C3685     1.0  0.97076  0.17824  0.50675  1.0000
  H   H2944     1.0  0.98582  0.21678  0.51721  1.0000
  C   C3686     1.0  0.98734  0.34163  0.62150  1.0000
  H   H2945     1.0  0.90760  0.31992  0.33708  1.0000
  H   H2946     1.0  0.88359  0.34635  0.34406  1.0000
  C   C3687     1.0  0.98074  0.16439  0.51814  1.0000
  H   H2947     1.0  0.98062  0.35184  0.39249  1.0000
  C   C3688     1.0  0.88561  0.34163  0.33041  1.0000
  C   C3689     1.0  0.98596  0.22639  0.55214  1.0000
  C   C3690     1.0  0.98602  0.38666  0.63176  1.0000
  C   C3691     1.0  0.98423  0.20213  0.51803  1.0000
  H   H2948     1.0  0.99025  0.21992  0.59475  1.0000
  H   H2949     1.0  0.88642  0.28976  0.32854  1.0000
  H   H2950     1.0  0.91782  0.43086  0.92794  1.0000
  S   S481      1.0  0.77222  0.38991  0.95317  1.0000
  H   H2951     1.0  0.96712  0.38278  0.71722  1.0000
  C   C3692     1.0  0.80098  0.48914  0.87865  1.0000
  S   S482      1.0  0.76765  0.34745  0.94540  1.0000
  Fe  Fe239     1.0  0.76584  0.36290  0.97024  1.0000
  H   H2952     1.0  0.98917  0.41627  0.74905  1.0000
  Fe  Fe240     1.0  0.77164  0.37532  0.92827  1.0000
  S   S483      1.0  0.79198  0.38120  0.90191  1.0000
  H   H2953     1.0  0.92596  0.48512  0.83541  1.0000
  Fe  Fe241     1.0  0.90312  0.38151  0.70916  1.0000
  S   S484      1.0  0.89980  0.39724  0.68050  1.0000
  S   S485      1.0  0.88257  0.38459  0.73503  1.0000
  P   P124      1.0  0.98413  0.25878  0.65977  1.0000
  H   H2954     1.0  0.96286  0.40069  0.78808  1.0000
  S   S486      1.0  0.96125  0.48019  0.81265  1.0000
  C   C3693     1.0  0.92786  0.45693  0.67481  1.0000
  C   C3694     1.0  0.75460  0.07682  0.69106  1.0000
  S   S487      1.0  0.93013  0.39120  0.71068  1.0000
  S   S488      1.0  0.91580  0.35436  0.69870  1.0000
  Fe  Fe242     1.0  0.90944  0.39917  0.84274  1.0000
  S   S489      1.0  0.91878  0.38950  0.87096  1.0000
  S   S490      1.0  0.89791  0.42890  0.83493  1.0000
  Fe  Fe243     1.0  0.91403  0.36054  0.83180  1.0000
  S   S491      1.0  0.92284  0.34744  0.85951  1.0000
  S   S492      1.0  0.91451  0.34338  0.80846  1.0000
  Fe  Fe244     1.0  0.89977  0.36769  0.87209  1.0000
  S   S493      1.0  0.87970  0.36111  0.89841  1.0000
  Fe  Fe245     1.0  0.94096  0.37043  0.85568  1.0000
  S   S494      1.0  0.97163  0.36024  0.85691  1.0000
  S   S495      1.0  0.88950  0.37847  0.84458  1.0000
  S   S496      1.0  0.93310  0.38243  0.82722  1.0000
  H   H2955     1.0  0.79321  0.38159  0.86131  1.0000
  C   C3695     1.0  0.92233  0.45577  0.90836  1.0000
  C   C3696     1.0  0.94360  0.46593  0.81857  1.0000
  C   C3697     1.0  0.94550  0.44859  0.81191  1.0000
  C   C3698     1.0  0.93166  0.43688  0.81729  1.0000
  C   C3699     1.0  0.91578  0.44274  0.82904  1.0000
  C   C3700     1.0  0.91377  0.46012  0.83555  1.0000
  C   C3701     1.0  0.92766  0.47173  0.83028  1.0000
  H   H2956     1.0  0.95765  0.44422  0.80257  1.0000
  H   H2957     1.0  0.93311  0.42355  0.81201  1.0000
  H   H2958     1.0  0.90142  0.46470  0.84458  1.0000
  C   C3702     1.0  0.86229  0.15494  0.66207  1.0000
  H   H2959     1.0  0.89619  0.32983  0.84426  1.0000
  Fe  Fe246     1.0  0.74153  0.39604  0.95349  1.0000
  C   C3703     1.0  0.80960  0.43490  0.84002  1.0000
  H   H2960     1.0  0.93737  0.20142  0.66977  1.0000
  C   C3704     1.0  0.89248  0.37425  0.75528  1.0000
  C   C3705     1.0  0.88560  0.38040  0.77263  1.0000
  C   C3706     1.0  0.89278  0.37147  0.78898  1.0000
  C   C3707     1.0  0.90646  0.35596  0.78809  1.0000
  C   C3708     1.0  0.91337  0.34987  0.77077  1.0000
  C   C3709     1.0  0.90664  0.35919  0.75436  1.0000
  H   H2961     1.0  0.87464  0.39198  0.77347  1.0000
  H   H2962     1.0  0.88733  0.37621  0.80232  1.0000
  H   H2963     1.0  0.92392  0.33786  0.77002  1.0000
  H   H2964     1.0  0.91198  0.35430  0.74107  1.0000
  C   C3710     1.0  0.86140  0.21967  0.68305  1.0000
  S   S497      1.0  0.74092  0.38362  0.92714  1.0000
  C   C3711     1.0  0.86293  0.13535  0.66591  1.0000
  H   H2965     1.0  0.85610  0.47251  0.88785  1.0000
  H   H2966     1.0  0.75878  0.08623  0.69938  1.0000
  C   C3712     1.0  0.92297  0.43634  0.91380  1.0000
  C   C3713     1.0  0.81633  0.37603  0.90151  1.0000
  C   C3714     1.0  0.82441  0.36615  0.91689  1.0000
  C   C3715     1.0  0.84382  0.36180  0.91578  1.0000
  C   C3716     1.0  0.85534  0.36724  0.89930  1.0000
  C   C3717     1.0  0.84724  0.37728  0.88400  1.0000
  C   C3718     1.0  0.82786  0.38174  0.88515  1.0000
  H   H2967     1.0  0.81571  0.36168  0.92958  1.0000
  H   H2968     1.0  0.84993  0.35404  0.92771  1.0000
  H   H2969     1.0  0.85591  0.38164  0.87132  1.0000
  H   H2970     1.0  0.82174  0.38966  0.87331  1.0000
  H   H2971     1.0  0.90558  0.46121  0.77768  1.0000
  C   C3719     1.0  0.75479  0.47385  0.92948  1.0000
  P   P125      1.0  0.82326  0.45504  0.88482  1.0000
  C   C3720     1.0  0.87939  0.45156  0.88341  1.0000
  C   C3721     1.0  0.93638  0.44979  0.87712  1.0000
  Fe  Fe247     1.0  0.92789  0.40555  0.68148  1.0000
  C   C3722     1.0  0.75822  0.45648  0.92265  1.0000
  H   H2972     1.0  0.93184  0.47400  0.71806  1.0000
  C   C3723     1.0  0.90779  0.49086  0.77512  1.0000
  C   C3724     1.0  0.83994  0.48950  0.79871  1.0000
  H   H2973     1.0  0.97140  0.43352  0.84719  1.0000
  C   C3725     1.0  0.86210  0.47717  0.76723  1.0000
  C   C3726     1.0  0.85392  0.46411  0.78090  1.0000
  C   C3727     1.0  0.84245  0.47047  0.79647  1.0000
  P   P126      1.0  0.85635  0.43989  0.77696  1.0000
  C   C3728     1.0  0.84189  0.43819  0.75942  1.0000
  C   C3729     1.0  0.88032  0.43261  0.76842  1.0000
  C   C3730     1.0  0.88630  0.43427  0.74908  1.0000
  C   C3731     1.0  0.90402  0.42631  0.74235  1.0000
  C   C3732     1.0  0.91602  0.41695  0.75485  1.0000
  C   C3733     1.0  0.91072  0.41647  0.77409  1.0000
  C   C3734     1.0  0.89298  0.42424  0.78087  1.0000
  C   C3735     1.0  0.84554  0.42288  0.74917  1.0000
  C   C3736     1.0  0.83489  0.42173  0.73513  1.0000
  C   C3737     1.0  0.82031  0.43578  0.73134  1.0000
  C   C3738     1.0  0.81635  0.45094  0.74167  1.0000
  C   C3739     1.0  0.82706  0.45216  0.75569  1.0000
  C   C3740     1.0  0.84999  0.42447  0.79813  1.0000
  C   C3741     1.0  0.85623  0.42633  0.81499  1.0000
  C   C3742     1.0  0.85288  0.41334  0.83088  1.0000
  C   C3743     1.0  0.84281  0.39868  0.83026  1.0000
  C   C3744     1.0  0.83600  0.39707  0.81376  1.0000
  C   C3745     1.0  0.83971  0.40977  0.79771  1.0000
  C   C3746     1.0  0.83196  0.48822  0.86211  1.0000
  C   C3747     1.0  0.76799  0.06637  0.67978  1.0000
  H   H2974     1.0  0.83130  0.49434  0.81087  1.0000
  H   H2975     1.0  0.87051  0.47268  0.75486  1.0000
  H   H2976     1.0  0.83533  0.46086  0.80681  1.0000
  H   H2977     1.0  0.87710  0.44099  0.73907  1.0000
  H   H2978     1.0  0.90822  0.42682  0.72740  1.0000
  H   H2979     1.0  0.92932  0.40990  0.74960  1.0000
  H   H2980     1.0  0.92010  0.40953  0.78384  1.0000
  H   H2981     1.0  0.88924  0.42309  0.79583  1.0000
  H   H2982     1.0  0.85682  0.41191  0.75183  1.0000
  H   H2983     1.0  0.83819  0.41001  0.72706  1.0000
  H   H2984     1.0  0.81218  0.43495  0.72031  1.0000
  H   H2985     1.0  0.80508  0.46186  0.73866  1.0000
  H   H2986     1.0  0.82383  0.46408  0.76341  1.0000
  H   H2987     1.0  0.86427  0.43743  0.81575  1.0000
  H   H2988     1.0  0.85842  0.41451  0.84357  1.0000
  H   H2989     1.0  0.84041  0.38849  0.84250  1.0000
  H   H2990     1.0  0.82812  0.38577  0.81331  1.0000
  H   H2991     1.0  0.83477  0.40779  0.78498  1.0000
  H   H2992     1.0  0.95929  0.43110  0.76907  1.0000
  H   H2993     1.0  0.95387  0.33792  0.80124  1.0000
  C   C3748     1.0  0.87251  0.42088  0.87979  1.0000
  H   H2994     1.0  0.88520  0.44774  0.92439  1.0000
  C   C3749     1.0  0.85895  0.32685  0.87757  1.0000
  C   C3750     1.0  0.87730  0.32772  0.86973  1.0000
  C   C3751     1.0  0.88193  0.32944  0.85034  1.0000
  C   C3752     1.0  0.86823  0.33067  0.83870  1.0000
  C   C3753     1.0  0.84973  0.32974  0.84646  1.0000
  C   C3754     1.0  0.84525  0.32753  0.86603  1.0000
  P   P127      1.0  0.83204  0.32946  0.83180  1.0000
  C   C3755     1.0  0.81478  0.34990  0.83246  1.0000
  C   C3756     1.0  0.84226  0.32857  0.80776  1.0000
  C   C3757     1.0  0.84846  0.34470  0.79707  1.0000
  C   C3758     1.0  0.85593  0.34438  0.77833  1.0000
  C   C3759     1.0  0.85763  0.32792  0.77019  1.0000
  C   C3760     1.0  0.85162  0.31177  0.78074  1.0000
  C   C3761     1.0  0.84389  0.31207  0.79944  1.0000
  C   C3762     1.0  0.81098  0.35979  0.84804  1.0000
  C   C3763     1.0  0.79639  0.37443  0.84897  1.0000
  C   C3764     1.0  0.78562  0.37947  0.83432  1.0000
  C   C3765     1.0  0.78957  0.37004  0.81857  1.0000
  C   C3766     1.0  0.80404  0.35527  0.81765  1.0000
  C   C3767     1.0  0.82124  0.30861  0.84060  1.0000
  C   C3768     1.0  0.83218  0.29183  0.84645  1.0000
  C   C3769     1.0  0.82398  0.27565  0.85351  1.0000
  C   C3770     1.0  0.80482  0.27609  0.85482  1.0000
  C   C3771     1.0  0.79384  0.29272  0.84903  1.0000
  C   C3772     1.0  0.80199  0.30894  0.84193  1.0000
  H   H2995     1.0  0.85539  0.32576  0.89263  1.0000
  H   H2996     1.0  0.79011  0.48213  0.88718  1.0000
  C   C3773     1.0  0.74349  0.47568  0.94645  1.0000
  H   H2997     1.0  0.87237  0.33203  0.82373  1.0000
  H   H2998     1.0  0.83120  0.32626  0.87243  1.0000
  H   H2999     1.0  0.84774  0.35746  0.80326  1.0000
  H   H3000     1.0  0.86058  0.35685  0.77006  1.0000
  H   H3001     1.0  0.86371  0.32772  0.75572  1.0000
  H   H3002     1.0  0.85300  0.29899  0.77439  1.0000
  H   H3003     1.0  0.83929  0.29941  0.80725  1.0000
  H   H3004     1.0  0.81888  0.35617  0.85971  1.0000
  C   C3774     1.0  0.98272  0.35992  0.75924  1.0000
  H   H3005     1.0  0.91014  0.18886  0.66017  1.0000
  H   H3006     1.0  0.78118  0.37391  0.80723  1.0000
  H   H3007     1.0  0.80655  0.34776  0.80557  1.0000
  H   H3008     1.0  0.84706  0.29128  0.84557  1.0000
  H   H3009     1.0  0.83250  0.26278  0.85808  1.0000
  H   H3010     1.0  0.79846  0.26357  0.86040  1.0000
  H   H3011     1.0  0.77896  0.29308  0.85016  1.0000
  H   H3012     1.0  0.79317  0.32165  0.83767  1.0000
  C   C3775     1.0  0.93900  0.23103  0.66389  1.0000
  C   C3776     1.0  0.81232  0.44265  0.87072  1.0000
  C   C3777     1.0  0.93702  0.46446  0.72954  1.0000
  C   C3778     1.0  0.86052  0.45821  0.88509  1.0000
  C   C3779     1.0  0.98174  0.40024  0.81772  1.0000
  C   C3780     1.0  0.90399  0.48107  0.66346  1.0000
  P   P128      1.0  0.87941  0.16644  0.66982  1.0000
  C   C3781     1.0  0.75044  0.44095  0.93275  1.0000
  C   C3782     1.0  0.88185  0.15669  0.69374  1.0000
  H   H3013     1.0  0.88792  0.32718  0.87871  1.0000
  C   C3783     1.0  0.90085  0.14635  0.71886  1.0000
  C   C3784     1.0  0.88527  0.14151  0.73101  1.0000
  C   C3785     1.0  0.86797  0.14434  0.72462  1.0000
  C   C3786     1.0  0.86623  0.15194  0.70607  1.0000
  H   H3014     1.0  0.76698  0.45503  0.90955  1.0000
  C   C3787     1.0  0.81546  0.48149  0.98621  1.0000
  C   C3788     1.0  0.94680  0.44714  0.72587  1.0000
  H   H3015     1.0  0.88596  0.46051  0.80810  1.0000
  H   H3016     1.0  0.89998  0.42784  0.87905  1.0000
  C   C3789     1.0  0.94416  0.44397  0.96577  1.0000
  H   H3017     1.0  0.94230  0.29201  0.70715  1.0000
  H   H3018     1.0  0.83011  0.45085  0.84538  1.0000
  C   C3790     1.0  0.86261  0.23049  0.66547  1.0000
  H   H3019     1.0  0.94163  0.32298  0.68771  1.0000
  C   C3791     1.0  0.89043  0.47358  0.80119  1.0000
  C   C3792     1.0  0.85369  0.42768  0.88082  1.0000
  S   S498      1.0  0.76434  0.49310  0.91613  1.0000
  C   C3793     1.0  0.96364  0.36417  0.76381  1.0000
  C   C3794     1.0  0.89740  0.48985  0.72752  1.0000
  H   H3020     1.0  0.80637  0.41358  0.94301  1.0000
  H   H3021     1.0  0.81160  0.47280  0.97695  1.0000
  C   C3795     1.0  0.98125  0.37630  0.71511  1.0000
  H   H3022     1.0  0.89983  0.47477  0.73093  1.0000
  H   H3023     1.0  0.85589  0.14060  0.73403  1.0000
  H   H3024     1.0  0.85271  0.15410  0.70134  1.0000
  S   S499      1.0  0.96786  0.34627  0.70542  1.0000
  C   C3796     1.0  0.74390  0.05316  0.66886  1.0000
  C   C3797     1.0  0.81865  0.47931  0.87478  1.0000
  C   C3798     1.0  0.88535  0.48987  0.80974  1.0000
  H   H3025     1.0  0.87718  0.40635  0.87791  1.0000
  C   C3799     1.0  0.93056  0.42377  0.90105  1.0000
  H   H3026     1.0  0.94181  0.46158  0.77563  1.0000
  C   C3800     1.0  0.84761  0.44654  0.88296  1.0000
  C   C3801     1.0  0.97370  0.40895  0.83332  1.0000
  C   C3802     1.0  0.97465  0.31449  0.79592  1.0000
  H   H3027     1.0  0.94795  0.48556  0.93132  1.0000
  H   H3028     1.0  0.84393  0.41820  0.87992  1.0000
  C   C3803     1.0  0.88537  0.43291  0.88074  1.0000
  C   C3804     1.0  0.97759  0.42675  0.83510  1.0000
  C   C3805     1.0  0.96514  0.20750  0.66938  1.0000
  H   H3029     1.0  0.81432  0.43567  0.82518  1.0000
  P   P129      1.0  0.92199  0.49183  0.75274  1.0000
  H   H3030     1.0  0.85098  0.42087  0.97638  1.0000
  H   H3031     1.0  0.84530  0.48072  0.85765  1.0000
  C   C3806     1.0  0.81849  0.44346  0.85149  1.0000
  H   H3032     1.0  0.94179  0.38180  0.77803  1.0000
  P   P130      1.0  0.91362  0.47204  0.92512  1.0000
  C   C3807     1.0  0.90997  0.46637  0.96417  1.0000
  H   H3033     1.0  0.98473  0.49018  0.88641  1.0000
  H   H3034     1.0  0.83471  0.48492  0.93320  1.0000
  H   H3035     1.0  0.77707  0.41656  0.87295  1.0000
  H   H3036     1.0  0.91141  0.15758  0.69114  1.0000
  H   H3037     1.0  0.95429  0.35622  0.75907  1.0000
  H   H3038     1.0  0.79389  0.47265  0.94655  1.0000
  C   C3808     1.0  0.93435  0.46942  0.74775  1.0000
  C   C3809     1.0  0.94287  0.45746  0.76182  1.0000
  H   H3039     1.0  0.96020  0.26396  0.69474  1.0000
  Fe  Fe248     1.0  0.94268  0.36562  0.69764  1.0000
  C   C3810     1.0  0.76264  0.05449  0.66876  1.0000
  H   H3040     1.0  0.85113  0.45335  0.92812  1.0000
  H   H3041     1.0  0.90410  0.45119  0.66371  1.0000
  H   H3042     1.0  0.75764  0.28801  0.98372  1.0000
  C   C3811     1.0  0.96791  0.33151  0.80272  1.0000
  H   H3043     1.0  0.91205  0.29007  0.67052  1.0000
  H   H3044     1.0  0.96451  0.40180  0.84409  1.0000
  S   S500      1.0  0.94287  0.38031  0.66844  1.0000
  H   H3045     1.0  0.91427  0.14415  0.72381  1.0000
  C   C3812     1.0  0.98792  0.38499  0.77574  1.0000
  H   H3046     1.0  0.79168  0.43252  0.89294  1.0000
  C   C3813     1.0  0.81466  0.43182  0.91806  1.0000
  C   C3814     1.0  0.98848  0.38561  0.87200  1.0000
  C   C3815     1.0  0.91111  0.46195  0.66733  1.0000
  C   C3816     1.0  0.95661  0.37879  0.77432  1.0000
  Fe  Fe249     1.0  0.91505  0.37045  0.66998  1.0000
  H   H3047     1.0  0.94155  0.45503  0.86289  1.0000
  H   H3048     1.0  0.87717  0.48935  0.82339  1.0000
  C   C3817     1.0  0.87234  0.19144  0.66843  1.0000
  C   C3818     1.0  0.81453  0.45045  0.90938  1.0000
  H   H3049     1.0  0.80783  0.47963  0.91404  1.0000
  C   C3819     1.0  0.93831  0.45126  0.94844  1.0000
  H   H3050     1.0  0.93113  0.40878  0.90531  1.0000
  H   H3051     1.0  0.94325  0.42080  0.87285  1.0000
  C   C3820     1.0  0.96866  0.38933  0.78010  1.0000
  C   C3821     1.0  0.95463  0.43500  0.74012  1.0000
  C   C3822     1.0  0.79945  0.44269  0.94698  1.0000
  H   H3052     1.0  0.96574  0.30781  0.78913  1.0000
  C   C3823     1.0  0.89917  0.15395  0.70030  1.0000
  H   H3053     1.0  0.89679  0.47518  0.96385  1.0000
  H   H3054     1.0  0.77404  0.39052  0.83530  1.0000
  C   C3824     1.0  0.94998  0.29327  0.69326  1.0000
  C   C3825     1.0  0.78854  0.42421  0.86685  1.0000
  H   H3055     1.0  0.78252  0.06773  0.67925  1.0000
  C   C3826     1.0  0.80697  0.42799  0.93671  1.0000
  C   C3827     1.0  0.92110  0.46242  0.94751  1.0000
  H   H3056     1.0  0.79283  0.43974  0.96119  1.0000
  H   H3057     1.0  0.88662  0.13556  0.74536  1.0000
  C   C3828     1.0  0.93739  0.43051  0.88275  1.0000
  C   C3829     1.0  0.92871  0.46239  0.88977  1.0000
  H   H3058     1.0  0.82009  0.42020  0.91023  1.0000
  C   C3830     1.0  0.96021  0.27750  0.68622  1.0000
  H   H3059     1.0  0.87384  0.12700  0.67307  1.0000
  C   C3831     1.0  0.79713  0.43311  0.87829  1.0000
  H   H3060     1.0  0.94730  0.44832  0.93577  1.0000
  C   C3832     1.0  0.80772  0.46513  0.92007  1.0000
  C   C3833     1.0  0.88855  0.47609  0.92783  1.0000
  H   H3061     1.0  0.74081  0.48904  0.95175  1.0000
  H   H3062     1.0  0.75316  0.42759  0.92738  1.0000
  C   C3834     1.0  0.80007  0.46123  0.93874  1.0000
  C   C3835     1.0  0.90171  0.47400  0.78400  1.0000
  H   H3063     1.0  0.85685  0.22644  0.69550  1.0000
  C   C3836     1.0  0.79469  0.42522  0.84771  1.0000
  H   H3064     1.0  0.78787  0.41858  0.83881  1.0000
  C   C3837     1.0  0.93683  0.47115  0.67919  1.0000
  H   H3065     1.0  0.86521  0.19211  0.69830  1.0000
  H   H3066     1.0  0.85065  0.11114  0.66248  1.0000
  C   C3838     1.0  0.94946  0.31072  0.68228  1.0000
  H   H3067     1.0  0.92792  0.47724  0.88494  1.0000
  H   H3068     1.0  0.95745  0.43536  0.96639  1.0000
  H   H3069     1.0  0.94988  0.46748  0.68467  1.0000
  C   C3839     1.0  0.85894  0.46459  0.92914  1.0000
  C   C3840     1.0  0.80757  0.40907  0.98937  1.0000
  H   H3070     1.0  0.98632  0.46190  0.91019  1.0000
  C   C3841     1.0  0.86618  0.20018  0.68456  1.0000
  H   H3071     1.0  0.97478  0.39235  0.87645  1.0000
  C   C3842     1.0  0.82585  0.40817  0.98078  1.0000
  H   H3072     1.0  0.94831  0.44308  0.71194  1.0000
  C   C3843     1.0  0.87831  0.46149  0.92696  1.0000
  C   C3844     1.0  0.83680  0.42159  0.98306  1.0000
  H   H3073     1.0  0.87993  0.48833  0.70664  1.0000
  H   H3074     1.0  0.96180  0.42144  0.73717  1.0000
  H   H3075     1.0  0.74492  0.48434  0.98722  1.0000
  C   C3845     1.0  0.97927  0.34028  0.81142  1.0000
  C   C3846     1.0  0.97674  0.22150  0.66676  1.0000
  C   C3847     1.0  0.95291  0.44027  0.75805  1.0000
  H   H3076     1.0  0.97392  0.35339  0.81683  1.0000
  H   H3077     1.0  0.77305  0.04676  0.65968  1.0000
  H   H3078     1.0  0.88938  0.46090  0.88405  1.0000
  H   H3079     1.0  0.97089  0.19292  0.67216  1.0000
  S   S501      1.0  0.93949  0.43362  0.67667  1.0000
  H   H3080     1.0  0.91133  0.32386  0.67304  1.0000
  H   H3081     1.0  0.97078  0.47768  0.72454  1.0000
  C   C3848     1.0  0.92966  0.49019  0.67554  1.0000
  H   H3082     1.0  0.77118  0.31421  0.99245  1.0000
  H   H3083     1.0  0.79908  0.39861  0.98766  1.0000
  H   H3084     1.0  0.97892  0.38620  0.81695  1.0000
  C   C3849     1.0  0.94629  0.21226  0.66794  1.0000
  H   H3085     1.0  0.83149  0.39706  0.97235  1.0000
  C   C3850     1.0  0.84965  0.12630  0.66021  1.0000
  C   C3851     1.0  0.91588  0.45906  0.98149  1.0000
  H   H3086     1.0  0.97819  0.47267  0.69132  1.0000
  C   C3852     1.0  0.84967  0.48231  0.93208  1.0000
  H   H3087     1.0  0.77795  0.48124  0.99011  1.0000
  H   H3088     1.0  0.98813  0.34883  0.75073  1.0000
  C   C3853     1.0  0.93294  0.44784  0.98230  1.0000
  H   H3089     1.0  0.97861  0.41870  0.66257  1.0000
  C   C3854     1.0  0.97047  0.27921  0.66835  1.0000
  C   C3855     1.0  0.98392  0.48068  0.71684  1.0000
  H   H3090     1.0  0.98538  0.33666  0.66897  1.0000
  C   C3856     1.0  0.87903  0.49363  0.93162  1.0000
  C   C3857     1.0  0.92355  0.49360  0.91704  1.0000
  C   C3858     1.0  0.98540  0.35858  0.70916  1.0000
  C   C3859     1.0  0.98903  0.43611  0.82092  1.0000
  C   C3860     1.0  0.96946  0.24044  0.66298  1.0000
  C   C3861     1.0  0.95875  0.31236  0.66413  1.0000
  H   H3091     1.0  0.85910  0.24561  0.66425  1.0000
  C   C3862     1.0  0.98813  0.47795  0.69801  1.0000
  H   H3092     1.0  0.92442  0.23478  0.66244  1.0000
  C   C3863     1.0  0.95051  0.24507  0.66140  1.0000
  C   C3864     1.0  0.91139  0.31939  0.65955  1.0000
  Fe  Fe250     1.0  0.75669  0.52864  0.10762  1.0000
  Fe  Fe251     1.0  0.75965  0.56629  0.08488  1.0000
  C   C3865     1.0  0.81453  0.55299  0.01086  1.0000
  S   S502      1.0  0.76307  0.57962  0.05491  1.0000
  Fe  Fe252     1.0  0.77334  0.55824  0.12350  1.0000
  S   S503      1.0  0.79267  0.56206  0.14427  1.0000
  S   S504      1.0  0.78084  0.54455  0.09735  1.0000
  Fe  Fe253     1.0  0.89818  0.55612  0.17064  1.0000
  S   S505      1.0  0.89563  0.53710  0.19800  1.0000
  S   S506      1.0  0.87951  0.55892  0.14740  1.0000
  Fe  Fe254     1.0  0.93578  0.56663  0.17741  1.0000
  S   S507      1.0  0.93591  0.54817  0.20476  1.0000
  S   S508      1.0  0.95889  0.58480  0.16917  1.0000
  Fe  Fe255     1.0  0.92583  0.52740  0.19022  1.0000
  H   H3093     1.0  0.88517  0.57301  0.06895  1.0000
  Fe  Fe256     1.0  0.90604  0.55954  0.21031  1.0000
  S   S509      1.0  0.89331  0.56907  0.23814  1.0000
  S   S510      1.0  0.92810  0.54489  0.16215  1.0000
  S   S511      1.0  0.90623  0.57961  0.18364  1.0000
  C   C3866     1.0  0.79579  0.60106  0.07460  1.0000
  C   C3867     1.0  0.81514  0.57120  0.07334  1.0000
  S   S512      1.0  0.94448  0.56643  0.30151  1.0000
  H   H3094     1.0  0.80062  0.58085  0.09873  1.0000
  C   C3868     1.0  0.83664  0.61518  0.11321  1.0000
  C   C3869     1.0  0.86665  0.52801  0.24206  1.0000
  H   H3095     1.0  0.88623  0.62120  0.27136  1.0000
  C   C3870     1.0  0.90734  0.56709  0.25621  1.0000
  C   C3871     1.0  0.92531  0.55750  0.25472  1.0000
  C   C3872     1.0  0.93651  0.55713  0.26883  1.0000
  C   C3873     1.0  0.92971  0.56596  0.28472  1.0000
  C   C3874     1.0  0.91159  0.57503  0.28653  1.0000
  C   C3875     1.0  0.90043  0.57562  0.27231  1.0000
  H   H3096     1.0  0.93068  0.55052  0.24268  1.0000
  H   H3097     1.0  0.95050  0.55004  0.26742  1.0000
  H   H3098     1.0  0.90637  0.58188  0.29875  1.0000
  H   H3099     1.0  0.88648  0.58286  0.27369  1.0000
  H   H3100     1.0  0.91628  0.71073  0.26002  1.0000
  C   C3876     1.0  0.98195  0.57347  0.16768  1.0000
  C   C3877     1.0  0.97087  0.60490  0.30324  1.0000
  C   C3878     1.0  0.81703  0.55963  0.14483  1.0000
  C   C3879     1.0  0.82363  0.55876  0.16217  1.0000
  C   C3880     1.0  0.84269  0.55795  0.16333  1.0000
  C   C3881     1.0  0.85543  0.55845  0.14708  1.0000
  C   C3882     1.0  0.84885  0.55912  0.12975  1.0000
  C   C3883     1.0  0.82983  0.55952  0.12862  1.0000
  H   H3101     1.0  0.81388  0.55882  0.17481  1.0000
  H   H3102     1.0  0.84747  0.55719  0.17679  1.0000
  H   H3103     1.0  0.85857  0.55945  0.11708  1.0000
  H   H3104     1.0  0.82506  0.56018  0.11520  1.0000
  H   H3105     1.0  0.98264  0.61388  0.20644  1.0000
  C   C3884     1.0  0.76387  0.56948  0.02000  1.0000
  C   C3885     1.0  0.76383  0.56330  0.03915  1.0000
  C   C3886     1.0  0.76492  0.54409  0.04550  1.0000
  H   H3106     1.0  0.95458  0.51124  0.29127  1.0000
  C   C3887     1.0  0.96908  0.64382  0.29520  1.0000
  C   C3888     1.0  0.87856  0.52224  0.25567  1.0000
  C   C3889     1.0  0.86880  0.50968  0.31851  1.0000
  H   H3107     1.0  0.88939  0.53060  0.25637  1.0000
  C   C3890     1.0  0.81862  0.57502  0.05375  1.0000
  C   C3891     1.0  0.80568  0.51400  0.06568  1.0000
  H   H3108     1.0  0.83063  0.51868  0.14971  1.0000
  C   C3892     1.0  0.98717  0.61320  0.29885  1.0000
  C   C3893     1.0  0.88801  0.53261  0.30175  1.0000
  C   C3894     1.0  0.76524  0.55650  0.00722  1.0000
  H   H3109     1.0  0.91180  0.63981  0.27000  1.0000
  H   H3110     1.0  0.82875  0.51368  0.01860  1.0000
  C   C3895     1.0  0.98033  0.52994  0.22013  1.0000
  C   C3896     1.0  0.81068  0.59209  0.04473  1.0000
  H   H3111     1.0  0.92242  0.50666  0.30384  1.0000
  H   H3112     1.0  0.86842  0.54068  0.23243  1.0000
  C   C3897     1.0  0.98627  0.63265  0.29484  1.0000
  C   C3898     1.0  0.90571  0.63363  0.28348  1.0000
  H   H3113     1.0  0.89784  0.53720  0.29001  1.0000
  C   C3899     1.0  0.93178  0.66607  0.27799  1.0000
  H   H3114     1.0  0.87676  0.68915  0.13037  1.0000
  C   C3900     1.0  0.96339  0.59655  0.25235  1.0000
  C   C3901     1.0  0.88946  0.61709  0.31787  1.0000
  S   S513      1.0  0.93998  0.49777  0.19425  1.0000
  H   H3115     1.0  0.90911  0.56168  0.04410  1.0000
  H   H3116     1.0  0.78647  0.61081  0.08257  1.0000
  H   H3117     1.0  0.76844  0.51624  0.03760  1.0000
  C   C3902     1.0  0.83822  0.67790  0.15920  1.0000
  H   H3118     1.0  0.81087  0.52686  0.12422  1.0000
  H   H3119     1.0  0.79270  0.61790  0.04806  1.0000
  H   H3120     1.0  0.91450  0.68945  0.28965  1.0000
  C   C3903     1.0  0.94462  0.60345  0.25577  1.0000
  H   H3121     1.0  0.96377  0.58407  0.20895  1.0000
  C   C3904     1.0  0.93286  0.60339  0.24238  1.0000
  C   C3905     1.0  0.97406  0.50106  0.15169  1.0000
  C   C3906     1.0  0.79934  0.60506  0.05515  1.0000
  H   H3122     1.0  0.96862  0.65886  0.29169  1.0000
  C   C3907     1.0  0.85247  0.51759  0.24099  1.0000
  H   H3123     1.0  0.78463  0.96728  0.31919  1.0000
  H   H3124     1.0  0.85231  0.57182  0.06746  1.0000
  C   C3908     1.0  0.85067  0.68900  0.14812  1.0000
  H   H3125     1.0  0.82528  0.68442  0.16596  1.0000
  C   C3909     1.0  0.98607  0.55446  0.16550  1.0000
  C   C3910     1.0  0.82813  0.53487  0.05127  1.0000
  H   H3126     1.0  0.74510  0.51093  0.06619  1.0000
  H   H3127     1.0  0.85672  0.52188  0.04925  1.0000
  H   H3128     1.0  0.79865  0.54314  0.05577  1.0000
  H   H3129     1.0  0.97213  0.59646  0.26306  1.0000
  C   C3911     1.0  0.86243  0.56689  0.05637  1.0000
  H   H3130     1.0  0.91248  0.49807  0.24898  1.0000
  H   H3131     1.0  0.76475  0.53921  0.06027  1.0000
  H   H3132     1.0  0.95392  0.66448  0.32269  1.0000
  C   C3912     1.0  0.89462  0.56114  0.04332  1.0000
  C   C3913     1.0  0.80978  0.53173  0.05732  1.0000
  C   C3914     1.0  0.94273  0.67215  0.24479  1.0000
  C   C3915     1.0  0.82516  0.50464  0.00955  1.0000
  H   H3133     1.0  0.83249  0.64989  0.16985  1.0000
  H   H3134     1.0  0.84772  0.58186  0.00707  1.0000
  C   C3916     1.0  0.92345  0.69656  0.26046  1.0000
  C   C3917     1.0  0.95367  0.61601  0.30389  1.0000
  H   H3135     1.0  0.94130  0.60916  0.30728  1.0000
  C   C3918     1.0  0.93356  0.69044  0.24423  1.0000
  C   C3919     1.0  0.92251  0.68444  0.27729  1.0000
  C   C3920     1.0  0.95859  0.58956  0.22204  1.0000
  H   H3136     1.0  0.91820  0.60804  0.24532  1.0000
  C   C3921     1.0  0.76719  0.53726  0.01350  1.0000
  C   C3922     1.0  0.87075  0.55305  0.02754  1.0000
  H   H3137     1.0  0.84741  0.70413  0.14633  1.0000
  C   C3923     1.0  0.76695  0.53110  0.03267  1.0000
  C   C3924     1.0  0.84237  0.65836  0.16143  1.0000
  H   H3138     1.0  0.84336  0.52204  0.23031  1.0000
  C   C3925     1.0  0.86161  0.49597  0.26770  1.0000
  C   C3926     1.0  0.97999  0.54687  0.22718  1.0000
  H   H3139     1.0  0.80628  0.54406  0.02085  1.0000
  H   H3140     1.0  0.94889  0.64579  0.26170  1.0000
  C   C3927     1.0  0.85924  0.61744  0.21266  1.0000
  C   C3928     1.0  0.85812  0.59824  0.21712  1.0000
  C   C3929     1.0  0.85868  0.58719  0.20288  1.0000
  C   C3930     1.0  0.86017  0.59536  0.18421  1.0000
  C   C3931     1.0  0.86081  0.61469  0.17962  1.0000
  C   C3932     1.0  0.86074  0.62565  0.19396  1.0000
  P   P131      1.0  0.86388  0.62456  0.15533  1.0000
  C   C3933     1.0  0.85913  0.64979  0.15278  1.0000
  C   C3934     1.0  0.88764  0.61667  0.14695  1.0000
  C   C3935     1.0  0.90198  0.62318  0.15389  1.0000
  C   C3936     1.0  0.92042  0.61589  0.14891  1.0000
  C   C3937     1.0  0.92464  0.60186  0.13721  1.0000
  C   C3938     1.0  0.91045  0.59522  0.13038  1.0000
  C   C3939     1.0  0.89202  0.60260  0.13521  1.0000
  C   C3940     1.0  0.87141  0.66101  0.14136  1.0000
  C   C3941     1.0  0.84734  0.61738  0.14273  1.0000
  C   C3942     1.0  0.83126  0.61046  0.15232  1.0000
  C   C3943     1.0  0.81813  0.60577  0.14241  1.0000
  C   C3944     1.0  0.79254  0.97732  0.32282  1.0000
  P   P132      1.0  0.83299  0.55796  0.04046  1.0000
  C   C3945     1.0  0.84975  0.62005  0.12308  1.0000
  H   H3141     1.0  0.85927  0.62585  0.22372  1.0000
  H   H3142     1.0  0.85736  0.59179  0.23157  1.0000
  H   H3143     1.0  0.85848  0.57219  0.20630  1.0000
  H   H3144     1.0  0.86124  0.58655  0.17325  1.0000
  H   H3145     1.0  0.86214  0.64041  0.19079  1.0000
  H   H3146     1.0  0.89888  0.63343  0.16364  1.0000
  H   H3147     1.0  0.93146  0.62044  0.15473  1.0000
  H   H3148     1.0  0.93889  0.59570  0.13401  1.0000
  H   H3149     1.0  0.91363  0.58378  0.12198  1.0000
  H   H3150     1.0  0.88126  0.59660  0.13043  1.0000
  H   H3151     1.0  0.88409  0.65475  0.13396  1.0000
  H   H3152     1.0  0.82871  0.60867  0.16744  1.0000
  H   H3153     1.0  0.80592  0.60006  0.14988  1.0000
  C   C3946     1.0  0.97046  0.58927  0.23554  1.0000
  H   H3154     1.0  0.96601  0.50866  0.25783  1.0000
  H   H3155     1.0  0.86180  0.62582  0.11542  1.0000
  C   C3947     1.0  0.84241  0.51993  0.05369  1.0000
  H   H3156     1.0  0.82098  0.55806  0.08062  1.0000
  S   S514      1.0  0.75413  0.58186  0.10997  1.0000
  C   C3948     1.0  0.91217  0.63606  0.30006  1.0000
  C   C3949     1.0  0.80374  0.58416  0.08369  1.0000
  H   H3157     1.0  0.81073  0.60406  0.11537  1.0000
  H   H3158     1.0  0.97151  0.58978  0.30615  1.0000
  H   H3159     1.0  0.96816  0.52278  0.22268  1.0000
  H   H3160     1.0  0.93907  0.60808  0.26916  1.0000
  H   H3161     1.0  0.81279  0.59528  0.02965  1.0000
  H   H3162     1.0  0.83870  0.61693  0.09807  1.0000
  C   C3950     1.0  0.88113  0.56758  0.05729  1.0000
  H   H3163     1.0  0.93426  0.69985  0.23120  1.0000
  C   C3951     1.0  0.82086  0.60800  0.12289  1.0000
  C   C3952     1.0  0.93987  0.59652  0.22549  1.0000
  H   H3164     1.0  0.87152  0.60697  0.30195  1.0000
  C   C3953     1.0  0.89111  0.62315  0.28417  1.0000
  C   C3954     1.0  0.83829  0.50224  0.06230  1.0000
  H   H3165     1.0  0.93070  0.59605  0.21526  1.0000
  C   C3955     1.0  0.93989  0.50306  0.25142  1.0000
  S   S515      1.0  0.76992  0.52050  0.99787  1.0000
  C   C3956     1.0  0.94185  0.65999  0.26158  1.0000
  C   C3957     1.0  0.81388  0.51235  0.13021  1.0000
  C   C3958     1.0  0.92535  0.66372  0.31904  1.0000
  C   C3959     1.0  0.82808  0.56194  0.01642  1.0000
  H   H3166     1.0  0.95050  0.66735  0.23218  1.0000
  C   C3960     1.0  0.87634  0.50599  0.26838  1.0000
  H   H3167     1.0  0.98574  0.55410  0.26512  1.0000
  H   H3168     1.0  0.96756  0.55224  0.23560  1.0000
  C   C3961     1.0  0.86722  0.68055  0.13916  1.0000
  H   H3169     1.0  0.94473  0.50199  0.23677  1.0000
  C   C3962     1.0  0.85706  0.55972  0.04140  1.0000
  H   H3170     1.0  0.97500  0.54630  0.16527  1.0000
  C   C3963     1.0  0.88284  0.61508  0.30138  1.0000
  C   C3964     1.0  0.88943  0.55387  0.02845  1.0000
  S   S516      1.0  0.75029  0.54074  0.13484  1.0000
  H   H3171     1.0  0.76287  0.58432  0.01502  1.0000
  C   C3965     1.0  0.81993  0.49930  0.06835  1.0000
  C   C3966     1.0  0.84989  0.50162  0.25386  1.0000
  H   H3172     1.0  0.89556  0.66604  0.31962  1.0000
  P   P133      1.0  0.93054  0.65014  0.29954  1.0000
  H   H3173     1.0  0.79143  0.51178  0.07038  1.0000
  C   C3967     1.0  0.95264  0.63560  0.29993  1.0000
  C   C3968     1.0  0.88228  0.51482  0.30363  1.0000
  H   H3174     1.0  0.86700  0.54707  0.01609  1.0000
  S   S517      1.0  0.76324  0.49943  0.09941  1.0000
  C   C3969     1.0  0.92713  0.50573  0.28915  1.0000
  P   P134      1.0  0.89135  0.49931  0.28637  1.0000
  C   C3970     1.0  0.94544  0.50813  0.28211  1.0000
  C   C3971     1.0  0.88109  0.54467  0.31508  1.0000
  C   C3972     1.0  0.92152  0.50088  0.25839  1.0000
  C   C3973     1.0  0.95183  0.50677  0.26326  1.0000
  C   C3974     1.0  0.91496  0.50240  0.27725  1.0000
  C   C3975     1.0  0.82489  0.50775  0.14470  1.0000
  H   H3175     1.0  0.86344  0.49642  0.31979  1.0000
  H   H3176     1.0  0.89992  0.54879  0.01768  1.0000
  H   H3177     1.0  0.90185  0.50137  0.18763  1.0000
  H   H3178     1.0  0.88556  0.55835  0.31355  1.0000
  C   C3976     1.0  0.98773  0.51095  0.14111  1.0000
  H   H3179     1.0  0.98433  0.52561  0.13580  1.0000
  C   C3977     1.0  0.83770  0.57423  0.00306  1.0000
  C   C3978     1.0  0.90425  0.62727  0.31722  1.0000
  H   H3180     1.0  0.96001  0.50792  0.15447  1.0000
  H   H3181     1.0  0.79829  0.50186  0.11219  1.0000
  C   C3979     1.0  0.80674  0.49826  0.12349  1.0000
  H   H3182     1.0  0.80090  0.98816  0.29412  1.0000
  C   C3980     1.0  0.80175  0.98904  0.30868  1.0000
  C   C3981     1.0  0.90685  0.66973  0.32572  1.0000
  Fe  Fe257     1.0  0.91384  0.75736  0.58423  1.0000
  S   S518      1.0  0.91089  0.72936  0.57604  1.0000
  S   S519      1.0  0.89595  0.78367  0.57249  1.0000
  Fe  Fe258     1.0  0.95050  0.74160  0.59940  1.0000
  S   S520      1.0  0.95079  0.71281  0.59172  1.0000
  S   S521      1.0  0.97302  0.74900  0.61384  1.0000
  Fe  Fe259     1.0  0.94107  0.72802  0.56494  1.0000
  S   S522      1.0  0.95435  0.72111  0.53633  1.0000
  Fe  Fe260     1.0  0.92078  0.71629  0.60343  1.0000
  S   S523      1.0  0.90738  0.69313  0.62295  1.0000
  S   S524      1.0  0.94361  0.75642  0.57165  1.0000
  S   S525      1.0  0.92086  0.74456  0.61283  1.0000
  Fe  Fe261     1.0  0.93467  0.74016  0.41522  1.0000
  S   S526      1.0  0.93266  0.71191  0.43177  1.0000
  C   C3982     1.0  0.79103  0.83443  0.47844  1.0000
  Fe  Fe262     1.0  0.89319  0.74785  0.41298  1.0000
  S   S527      1.0  0.88844  0.71938  0.42868  1.0000
  S   S528      1.0  0.86711  0.76746  0.40629  1.0000
  Fe  Fe263     1.0  0.90739  0.72581  0.44762  1.0000
  S   S529      1.0  0.89820  0.72128  0.47861  1.0000
  Fe  Fe264     1.0  0.91414  0.70766  0.41118  1.0000
  S   S530      1.0  0.92419  0.67931  0.40059  1.0000
  S   S531      1.0  0.91086  0.75468  0.43299  1.0000
  S   S532      1.0  0.91741  0.73557  0.39366  1.0000
  H   H3183     1.0  0.77257  0.79137  0.48948  1.0000
  S   S533      1.0  0.93925  0.60611  0.63361  1.0000
  C   C3983     1.0  0.76556  0.93820  0.34872  1.0000
  H   H3184     1.0  0.83389  0.92770  0.39204  1.0000
  S   S534      1.0  0.91365  0.56511  0.38454  1.0000
  H   H3185     1.0  0.87208  0.96728  0.37054  1.0000
  C   C3984     1.0  0.97139  0.65554  0.52472  1.0000
  S   S535      1.0  0.89421  0.52100  0.37127  1.0000
  Fe  Fe265     1.0  0.90800  0.58936  0.36219  1.0000
  S   S536      1.0  0.89043  0.61686  0.36816  1.0000
  Fe  Fe266     1.0  0.83695  0.92409  0.60364  1.0000
  S   S537      1.0  0.81265  0.93346  0.58784  1.0000
  S   S538      1.0  0.85294  0.94225  0.61647  1.0000
  Fe  Fe267     1.0  0.83810  0.88212  0.59876  1.0000
  S   S539      1.0  0.81395  0.88860  0.58214  1.0000
  S   S540      1.0  0.85082  0.85299  0.61089  1.0000
  Fe  Fe268     1.0  0.82759  0.91363  0.56822  1.0000
  S   S541      1.0  0.82914  0.92470  0.53779  1.0000
  Fe  Fe269     1.0  0.80106  0.90774  0.60313  1.0000
  S   S542      1.0  0.77124  0.90795  0.61596  1.0000
  S   S543      1.0  0.85287  0.90573  0.58286  1.0000
  S   S544      1.0  0.82415  0.89986  0.62091  1.0000
  Fe  Fe270     1.0  0.82201  0.87516  0.46099  1.0000
  S   S545      1.0  0.84190  0.88924  0.43907  1.0000
  S   S546      1.0  0.82797  0.86061  0.48919  1.0000
  Fe  Fe271     1.0  0.79010  0.88342  0.43699  1.0000
  S   S547      1.0  0.80779  0.89727  0.41261  1.0000
  S   S548      1.0  0.75910  0.88423  0.44462  1.0000
  Fe  Fe272     1.0  0.83033  0.87350  0.41996  1.0000
  S   S549      1.0  0.85051  0.85650  0.40023  1.0000
  Fe  Fe273     1.0  0.81785  0.91164  0.43384  1.0000
  S   S550      1.0  0.81116  0.94317  0.43314  1.0000
  S   S551      1.0  0.81166  0.85869  0.44231  1.0000
  S   S552      1.0  0.79925  0.89860  0.45772  1.0000
  C   C3985     1.0  0.85255  0.96677  0.61637  1.0000
  C   C3986     1.0  0.83923  0.98068  0.60886  1.0000
  C   C3987     1.0  0.74244  0.88421  0.42961  1.0000
  H   H3186     1.0  0.78404  0.91040  0.49977  1.0000
  H   H3187     1.0  0.97268  0.66524  0.61943  1.0000
  C   C3988     1.0  0.86633  0.97223  0.62488  1.0000
  H   H3188     1.0  0.82843  0.97662  0.60234  1.0000
  H   H3189     1.0  0.91367  0.69386  0.36019  1.0000
  C   C3989     1.0  0.86859  0.53902  0.33049  1.0000
  H   H3190     1.0  0.87660  0.96171  0.63082  1.0000
  C   C3990     1.0  0.83072  0.90670  0.52403  1.0000
  C   C3991     1.0  0.82996  0.91110  0.50481  1.0000
  C   C3992     1.0  0.82969  0.89683  0.49395  1.0000
  C   C3993     1.0  0.82997  0.87822  0.50236  1.0000
  C   C3994     1.0  0.83126  0.87380  0.52145  1.0000
  C   C3995     1.0  0.83170  0.88803  0.53228  1.0000
  H   H3191     1.0  0.82925  0.92555  0.49836  1.0000
  H   H3192     1.0  0.82907  0.90034  0.47912  1.0000
  H   H3193     1.0  0.83152  0.85949  0.52792  1.0000
  H   H3194     1.0  0.83267  0.88452  0.54702  1.0000
  H   H3195     1.0  0.77053  0.88400  0.49141  1.0000
  C   C3996     1.0  0.82517  0.96127  0.43169  1.0000
  C   C3997     1.0  0.84433  0.95870  0.42655  1.0000
  H   H3196     1.0  0.80156  0.98130  0.43886  1.0000
  H   H3197     1.0  0.85130  0.94495  0.42412  1.0000
  C   C3998     1.0  0.74894  0.84377  0.56121  1.0000
  H   H3198     1.0  0.75556  0.97934  0.34307  1.0000
  C   C3999     1.0  0.86068  0.71336  0.64989  1.0000
  H   H3199     1.0  0.80128  0.96928  0.52324  1.0000
  C   C4000     1.0  0.74485  0.79527  0.43100  1.0000
  H   H3200     1.0  0.76161  0.87849  0.40526  1.0000
  C   C4001     1.0  0.80266  0.82035  0.46984  1.0000
  C   C4002     1.0  0.97171  0.68234  0.64112  1.0000
  H   H3201     1.0  0.78201  0.98628  0.49979  1.0000
  H   H3202     1.0  0.82051  0.81554  0.50895  1.0000
  C   C4003     1.0  0.75491  0.90580  0.60128  1.0000
  C   C4004     1.0  0.76015  0.90460  0.58222  1.0000
  S   S553      1.0  0.96735  0.56018  0.38573  1.0000
  C   C4005     1.0  0.78026  0.80829  0.54898  1.0000
  H   H3203     1.0  0.77442  0.90506  0.57630  1.0000
  C   C4006     1.0  0.78138  0.82208  0.44679  1.0000
  H   H3204     1.0  0.79274  0.99459  0.60421  1.0000
  H   H3205     1.0  0.96575  0.69493  0.63301  1.0000
  H   H3206     1.0  0.88242  0.91077  0.61812  1.0000
  H   H3207     1.0  0.82005  0.92706  0.65345  1.0000
  C   C4007     1.0  0.86424  0.97568  0.56221  1.0000
  C   C4008     1.0  0.90386  0.68878  0.55723  1.0000
  H   H3208     1.0  0.88841  0.68469  0.34593  1.0000
  C   C4009     1.0  0.79036  0.77787  0.43605  1.0000
  C   C4010     1.0  0.80947  0.83980  0.59238  1.0000
  H   H3209     1.0  0.91343  0.68106  0.58416  1.0000
  C   C4011     1.0  0.97871  0.76997  0.46835  1.0000
  C   C4012     1.0  0.97544  0.68287  0.65924  1.0000
  C   C4013     1.0  0.81633  0.97920  0.43478  1.0000
  C   C4014     1.0  0.86473  0.79201  0.40724  1.0000
  C   C4015     1.0  0.84999  0.80051  0.41899  1.0000
  C   C4016     1.0  0.84608  0.82023  0.41780  1.0000
  C   C4017     1.0  0.85640  0.83169  0.40428  1.0000
  C   C4018     1.0  0.87133  0.82316  0.39283  1.0000
  C   C4019     1.0  0.87559  0.80349  0.39441  1.0000
  H   H3210     1.0  0.84132  0.79180  0.42877  1.0000
  H   H3211     1.0  0.83475  0.82650  0.42692  1.0000
  C   C4020     1.0  0.87555  0.94322  0.55886  1.0000
  C   C4021     1.0  0.79007  0.79289  0.54084  1.0000
  C   C4022     1.0  0.91370  0.66178  0.39306  1.0000
  C   C4023     1.0  0.89553  0.66481  0.38872  1.0000
  C   C4024     1.0  0.88850  0.65088  0.38126  1.0000
  C   C4025     1.0  0.89950  0.63380  0.37818  1.0000
  C   C4026     1.0  0.91749  0.63063  0.38298  1.0000
  C   C4027     1.0  0.92449  0.64452  0.39042  1.0000
  H   H3212     1.0  0.88705  0.67801  0.39072  1.0000
  H   H3213     1.0  0.87453  0.65341  0.37769  1.0000
  H   H3214     1.0  0.92602  0.61747  0.38092  1.0000
  H   H3215     1.0  0.93842  0.64187  0.39410  1.0000
  C   C4028     1.0  0.88395  0.80295  0.58355  1.0000
  C   C4029     1.0  0.87639  0.81891  0.57238  1.0000
  C   C4030     1.0  0.86606  0.83426  0.58049  1.0000
  C   C4031     1.0  0.86362  0.83403  0.59989  1.0000
  C   C4032     1.0  0.87150  0.81824  0.61105  1.0000
  C   C4033     1.0  0.88159  0.80275  0.60296  1.0000
  H   H3216     1.0  0.87837  0.81931  0.55734  1.0000
  H   H3217     1.0  0.85987  0.84620  0.57180  1.0000
  H   H3218     1.0  0.86969  0.81794  0.62609  1.0000
  H   H3219     1.0  0.88743  0.79065  0.61173  1.0000
  C   C4034     1.0  0.91656  0.66901  0.62594  1.0000
  H   H3220     1.0  0.76519  0.93913  0.63789  1.0000
  C   C4035     1.0  0.82636  0.99453  0.43241  1.0000
  C   C4036     1.0  0.93019  0.63025  0.63125  1.0000
  C   C4037     1.0  0.94005  0.64296  0.61861  1.0000
  C   C4038     1.0  0.93335  0.66225  0.61605  1.0000
  H   H3221     1.0  0.76376  0.92122  0.46162  1.0000
  C   C4039     1.0  0.85465  0.94588  0.38155  1.0000
  H   H3222     1.0  0.95295  0.63779  0.61081  1.0000
  H   H3223     1.0  0.94104  0.67189  0.60632  1.0000
  C   C4040     1.0  0.93891  0.72287  0.51962  1.0000
  C   C4041     1.0  0.94556  0.71866  0.50147  1.0000
  C   C4042     1.0  0.93324  0.71911  0.48834  1.0000
  C   C4043     1.0  0.91422  0.72334  0.49351  1.0000
  C   C4044     1.0  0.90765  0.72818  0.51138  1.0000
  C   C4045     1.0  0.91998  0.72816  0.52431  1.0000
  H   H3224     1.0  0.96017  0.71486  0.49755  1.0000
  H   H3225     1.0  0.93840  0.71561  0.47444  1.0000
  H   H3226     1.0  0.89296  0.73180  0.51531  1.0000
  H   H3227     1.0  0.91474  0.73207  0.53792  1.0000
  C   C4046     1.0  0.75121  0.81286  0.42852  1.0000
  H   H3228     1.0  0.86382  0.54811  0.34120  1.0000
  H   H3229     1.0  0.80956  0.83151  0.56540  1.0000
  H   H3230     1.0  0.98748  0.63674  0.63695  1.0000
  C   C4047     1.0  0.74313  0.96317  0.47510  1.0000
  C   C4048     1.0  0.98980  0.49606  0.44355  1.0000
  H   H3231     1.0  0.76071  0.93173  0.54238  1.0000
  C   C4049     1.0  0.85443  0.97412  0.42417  1.0000
  C   C4050     1.0  0.85402  0.74939  0.48955  1.0000
  C   C4051     1.0  0.85664  0.75071  0.47006  1.0000
  C   C4052     1.0  0.86552  0.76518  0.45950  1.0000
  C   C4053     1.0  0.87191  0.77828  0.46832  1.0000
  C   C4054     1.0  0.86917  0.77724  0.48794  1.0000
  C   C4055     1.0  0.86028  0.76255  0.49848  1.0000
  P   P135      1.0  0.87853  0.79368  0.49921  1.0000
  C   C4056     1.0  0.90193  0.78437  0.50317  1.0000
  C   C4057     1.0  0.87858  0.81546  0.48360  1.0000
  C   C4058     1.0  0.89429  0.82490  0.47984  1.0000
  C   C4059     1.0  0.89448  0.84124  0.46699  1.0000
  C   C4060     1.0  0.87909  0.84814  0.45768  1.0000
  C   C4061     1.0  0.86345  0.83881  0.46133  1.0000
  C   C4062     1.0  0.86309  0.82267  0.47439  1.0000
  C   C4063     1.0  0.90899  0.78763  0.51914  1.0000
  C   C4064     1.0  0.92706  0.78021  0.52223  1.0000
  C   C4065     1.0  0.93835  0.76988  0.50922  1.0000
  C   C4066     1.0  0.93157  0.76702  0.49308  1.0000
  C   C4067     1.0  0.91342  0.77413  0.49009  1.0000
  C   C4068     1.0  0.86489  0.79729  0.52142  1.0000
  C   C4069     1.0  0.86566  0.78292  0.53661  1.0000
  C   C4070     1.0  0.85539  0.78552  0.55393  1.0000
  C   C4071     1.0  0.84466  0.80266  0.55643  1.0000
  C   C4072     1.0  0.84437  0.81726  0.54163  1.0000
  C   C4073     1.0  0.85432  0.81462  0.52414  1.0000
  H   H3232     1.0  0.84776  0.73774  0.49774  1.0000
  H   H3233     1.0  0.85242  0.74018  0.46311  1.0000
  H   H3234     1.0  0.86799  0.76591  0.44444  1.0000
  H   H3235     1.0  0.87933  0.78895  0.45973  1.0000
  H   H3236     1.0  0.85846  0.76084  0.51354  1.0000
  H   H3237     1.0  0.90650  0.81956  0.48656  1.0000
  H   H3238     1.0  0.90662  0.84846  0.46404  1.0000
  H   H3239     1.0  0.87924  0.86069  0.44758  1.0000
  H   H3240     1.0  0.85154  0.84419  0.45410  1.0000
  H   H3241     1.0  0.85079  0.81571  0.47710  1.0000
  H   H3242     1.0  0.90054  0.79561  0.52944  1.0000
  H   H3243     1.0  0.93212  0.78214  0.53495  1.0000
  H   H3244     1.0  0.95216  0.76364  0.51191  1.0000
  H   H3245     1.0  0.94011  0.75870  0.48314  1.0000
  H   H3246     1.0  0.90835  0.77130  0.47771  1.0000
  H   H3247     1.0  0.87467  0.76985  0.53527  1.0000
  H   H3248     1.0  0.85654  0.77456  0.56569  1.0000
  H   H3249     1.0  0.83735  0.80489  0.57010  1.0000
  H   H3250     1.0  0.83672  0.83075  0.54387  1.0000
  H   H3251     1.0  0.85384  0.82624  0.51295  1.0000
  H   H3252     1.0  0.80414  0.80391  0.39471  1.0000
  C   C4074     1.0  0.79807  0.81444  0.45389  1.0000
  C   C4075     1.0  0.76978  0.83615  0.45568  1.0000
  H   H3253     1.0  0.95777  0.62572  0.44353  1.0000
  H   H3254     1.0  0.76841  0.81430  0.51215  1.0000
  C   C4076     1.0  0.91691  0.68568  0.34856  1.0000
  P   P136      1.0  0.76098  0.97957  0.62737  1.0000
  C   C4077     1.0  0.81144  0.98254  0.55631  1.0000
  C   C4078     1.0  0.77686  0.97469  0.50920  1.0000
  Fe  Fe274     1.0  0.93136  0.56864  0.33131  1.0000
  C   C4079     1.0  0.79365  0.97847  0.34160  1.0000
  H   H3255     1.0  0.80578  0.85046  0.61890  1.0000
  H   H3256     1.0  0.94798  0.72844  0.63833  1.0000
  C   C4080     1.0  0.97159  0.68546  0.40885  1.0000
  C   C4081     1.0  0.76129  0.95838  0.59814  1.0000
  C   C4082     1.0  0.74514  0.79917  0.48158  1.0000
  H   H3257     1.0  0.88673  0.79718  0.38502  1.0000
  C   C4083     1.0  0.75389  0.93375  0.46246  1.0000
  H   H3258     1.0  0.86308  0.98713  0.57035  1.0000
  C   C4084     1.0  0.96197  0.66207  0.45052  1.0000
  C   C4085     1.0  0.94437  0.66220  0.44515  1.0000
  C   C4086     1.0  0.92838  0.66829  0.45664  1.0000
  C   C4087     1.0  0.92974  0.67445  0.47356  1.0000
  C   C4088     1.0  0.94712  0.67422  0.47914  1.0000
  C   C4089     1.0  0.96316  0.66806  0.46774  1.0000
  H   H3259     1.0  0.76250  0.93959  0.33445  1.0000
  H   H3260     1.0  0.78083  0.77854  0.44881  1.0000
  C   C4090     1.0  0.77465  0.84234  0.47133  1.0000
  C   C4091     1.0  0.79942  0.84938  0.60665  1.0000
  C   C4092     1.0  0.75979  0.96891  0.50778  1.0000
  H   H3261     1.0  0.78654  0.77892  0.54586  1.0000
  C   C4093     1.0  0.75423  0.95313  0.51966  1.0000
  C   C4094     1.0  0.82170  0.95562  0.38240  1.0000
  H   H3262     1.0  0.96244  0.70949  0.38983  1.0000
  H   H3263     1.0  0.95780  0.68182  0.41276  1.0000
  C   C4095     1.0  0.75186  0.94389  0.36304  1.0000
  C   C4096     1.0  0.98896  0.61780  0.39705  1.0000
  C   C4097     1.0  0.74275  0.97787  0.64675  1.0000
  H   H3264     1.0  0.95304  0.63707  0.36016  1.0000
  C   C4098     1.0  0.98651  0.67504  0.41721  1.0000
  H   H3265     1.0  0.94290  0.65805  0.43183  1.0000
  H   H3266     1.0  0.91494  0.66893  0.45202  1.0000
  H   H3267     1.0  0.91734  0.67992  0.48207  1.0000
  H   H3268     1.0  0.94817  0.67936  0.49207  1.0000
  C   C4099     1.0  0.98561  0.56768  0.36950  1.0000
  C   C4100     1.0  0.98127  0.75302  0.48006  1.0000
  H   H3269     1.0  0.97082  0.61373  0.65602  1.0000
  C   C4101     1.0  0.76700  0.97464  0.41346  1.0000
  H   H3270     1.0  0.79805  0.98387  0.63689  1.0000
  C   C4102     1.0  0.93008  0.80260  0.59422  1.0000
  C   C4103     1.0  0.93814  0.80351  0.61018  1.0000
  C   C4104     1.0  0.94076  0.82090  0.61458  1.0000
  C   C4105     1.0  0.93548  0.83732  0.60290  1.0000
  C   C4106     1.0  0.92766  0.83649  0.58662  1.0000
  C   C4107     1.0  0.92489  0.81897  0.58245  1.0000
  P   P137      1.0  0.92182  0.85794  0.57136  1.0000
  C   C4108     1.0  0.90965  0.87490  0.58612  1.0000
  C   C4109     1.0  0.94245  0.86618  0.55817  1.0000
  C   C4110     1.0  0.98377  0.64931  0.64362  1.0000
  C   C4111     1.0  0.96011  0.85881  0.56295  1.0000
  C   C4112     1.0  0.91360  0.89351  0.58347  1.0000
  C   C4113     1.0  0.90385  0.90636  0.59505  1.0000
  C   C4114     1.0  0.89016  0.90075  0.60930  1.0000
  C   C4115     1.0  0.88618  0.88229  0.61200  1.0000
  C   C4116     1.0  0.89587  0.86941  0.60047  1.0000
  C   C4117     1.0  0.90755  0.85493  0.55411  1.0000
  C   C4118     1.0  0.89013  0.86563  0.55305  1.0000
  C   C4119     1.0  0.87987  0.86422  0.53875  1.0000
  C   C4120     1.0  0.88674  0.85206  0.52550  1.0000
  C   C4121     1.0  0.90412  0.84148  0.52636  1.0000
  C   C4122     1.0  0.91460  0.84312  0.54041  1.0000
  H   H3271     1.0  0.92756  0.78919  0.59109  1.0000
  H   H3272     1.0  0.93755  0.85070  0.60655  1.0000
  H   H3273     1.0  0.91839  0.81773  0.57044  1.0000
  H   H3274     1.0  0.81984  0.96917  0.55475  1.0000
  H   H3275     1.0  0.96185  0.84802  0.57470  1.0000
  H   H3276     1.0  0.92411  0.89820  0.57255  1.0000
  H   H3277     1.0  0.90674  0.92076  0.59295  1.0000
  C   C4123     1.0  0.79702  0.84123  0.40466  1.0000
  H   H3278     1.0  0.95340  0.60040  0.42623  1.0000
  H   H3279     1.0  0.89245  0.85520  0.60267  1.0000
  H   H3280     1.0  0.88435  0.87509  0.56317  1.0000
  H   H3281     1.0  0.86653  0.87258  0.53800  1.0000
  H   H3282     1.0  0.87862  0.85097  0.51453  1.0000
  H   H3283     1.0  0.90952  0.83211  0.51607  1.0000
  H   H3284     1.0  0.92824  0.83519  0.54060  1.0000
  H   H3285     1.0  0.76925  0.80589  0.56023  1.0000
  C   C4124     1.0  0.74414  0.83125  0.57725  1.0000
  H   H3286     1.0  0.81578  0.81484  0.47481  1.0000
  C   C4125     1.0  0.95666  0.88642  0.53208  1.0000
  C   C4126     1.0  0.78146  0.85815  0.60478  1.0000
  H   H3287     1.0  0.80398  0.84252  0.52354  1.0000
  H   H3288     1.0  0.90566  0.62739  0.65089  1.0000
  H   H3289     1.0  0.91478  0.63296  0.53674  1.0000
  H   H3290     1.0  0.75741  0.83061  0.39212  1.0000
  H   H3291     1.0  0.81398  0.86105  0.38842  1.0000
  C   C4127     1.0  0.98400  0.57006  0.35040  1.0000
  C   C4128     1.0  0.94086  0.87997  0.54258  1.0000
  H   H3292     1.0  0.98609  0.71302  0.46145  1.0000
  C   C4129     1.0  0.97092  0.67510  0.52180  1.0000
  H   H3293     1.0  0.90108  0.61874  0.51438  1.0000
  C   C4130     1.0  0.93956  0.66891  0.32731  1.0000
  H   H3294     1.0  0.76703  0.96593  0.42690  1.0000
  C   C4131     1.0  0.77411  0.93440  0.38534  1.0000
  H   H3295     1.0  0.79515  0.83996  0.48996  1.0000
  H   H3296     1.0  0.93564  0.59861  0.59114  1.0000
  H   H3297     1.0  0.97303  0.74203  0.47945  1.0000
  H   H3298     1.0  0.86757  0.93284  0.53545  1.0000
  C   C4132     1.0  0.77080  0.86804  0.51885  1.0000
  C   C4133     1.0  0.98012  0.73931  0.41956  1.0000
  H   H3299     1.0  0.92737  0.88578  0.53857  1.0000
  Fe  Fe275     1.0  0.93201  0.58226  0.65664  1.0000
  H   H3300     1.0  0.88287  0.92988  0.56407  1.0000
  H   H3301     1.0  0.94220  0.79072  0.61917  1.0000
  C   C4134     1.0  0.74720  0.88072  0.41104  1.0000
  H   H3302     1.0  0.94481  0.49554  0.62844  1.0000
  C   C4135     1.0  0.86699  0.94491  0.54272  1.0000
  H   H3303     1.0  0.87530  0.87801  0.62282  1.0000
  H   H3304     1.0  0.79232  0.90915  0.53167  1.0000
  C   C4136     1.0  0.78324  0.93027  0.35279  1.0000
  C   C4137     1.0  0.97954  0.63607  0.42299  1.0000
  H   H3305     1.0  0.94623  0.68392  0.34835  1.0000
  C   C4138     1.0  0.94648  0.60595  0.58283  1.0000
  C   C4139     1.0  0.94156  0.63365  0.51985  1.0000
  C   C4140     1.0  0.96401  0.60935  0.42083  1.0000
  H   H3306     1.0  0.84968  0.96262  0.52432  1.0000
  S   S554      1.0  0.90118  0.57085  0.34247  1.0000
  H   H3307     1.0  0.89254  0.69887  0.56220  1.0000
  C   C4141     1.0  0.80921  0.81344  0.52006  1.0000
  C   C4142     1.0  0.90456  0.49974  0.36289  1.0000
  C   C4143     1.0  0.94286  0.61801  0.56659  1.0000
  H   H3308     1.0  0.92910  0.61982  0.56260  1.0000
  H   H3309     1.0  0.98585  0.76718  0.52746  1.0000
  C   C4144     1.0  0.84321  0.97794  0.37035  1.0000
  C   C4145     1.0  0.85692  0.96194  0.53636  1.0000
  H   H3310     1.0  0.92787  0.51869  0.40126  1.0000
  H   H3311     1.0  0.76790  0.94449  0.48152  1.0000
  C   C4146     1.0  0.78606  0.89779  0.52816  1.0000
  C   C4147     1.0  0.86701  0.99115  0.62600  1.0000
  C   C4148     1.0  0.78490  0.82643  0.54271  1.0000
  C   C4149     1.0  0.75717  0.81319  0.50457  1.0000
  C   C4150     1.0  0.82487  0.97406  0.37526  1.0000
  H   H3312     1.0  0.78735  0.96962  0.56829  1.0000
  C   C4151     1.0  0.93531  0.67994  0.34193  1.0000
  C   C4152     1.0  0.80154  0.83887  0.57630  1.0000
  H   H3313     1.0  0.96257  0.52090  0.63178  1.0000
  C   C4153     1.0  0.93515  0.50460  0.40096  1.0000
  C   C4154     1.0  0.92320  0.62959  0.52392  1.0000
  C   C4155     1.0  0.90269  0.68053  0.34050  1.0000
  C   C4156     1.0  0.97565  0.72940  0.43721  1.0000
  C   C4157     1.0  0.87405  0.95855  0.56868  1.0000
  H   H3314     1.0  0.76502  0.85463  0.36572  1.0000
  C   C4158     1.0  0.93317  0.66262  0.54438  1.0000
  C   C4159     1.0  0.98060  0.66410  0.57989  1.0000
  H   H3315     1.0  0.88005  0.95707  0.58162  1.0000
  Fe  Fe276     1.0  0.90975  0.54647  0.36366  1.0000
  H   H3316     1.0  0.95169  0.61878  0.47683  1.0000
  H   H3317     1.0  0.94680  0.82163  0.62709  1.0000
  H   H3318     1.0  0.76445  0.98523  0.45092  1.0000
  C   C4160     1.0  0.95666  0.62809  0.55619  1.0000
  C   C4161     1.0  0.91528  0.62166  0.51118  1.0000
  H   H3319     1.0  0.74153  0.94791  0.51835  1.0000
  H   H3320     1.0  0.96651  0.59453  0.60156  1.0000
  C   C4162     1.0  0.83651  0.94168  0.38574  1.0000
  S   S555      1.0  0.94510  0.55316  0.65110  1.0000
  C   C4163     1.0  0.78378  0.97789  0.40264  1.0000
  H   H3321     1.0  0.97265  0.58398  0.64321  1.0000
  H   H3322     1.0  0.81222  0.78354  0.52014  1.0000
  C   C4164     1.0  0.94412  0.72546  0.65325  1.0000
  Fe  Fe277     1.0  0.94274  0.56400  0.37021  1.0000
  H   H3323     1.0  0.97802  0.61817  0.34183  1.0000
  H   H3324     1.0  0.96134  0.72877  0.44289  1.0000
  C   C4165     1.0  0.97424  0.70108  0.39555  1.0000
  C   C4166     1.0  0.80141  0.85467  0.38947  1.0000
  C   C4167     1.0  0.77375  0.88360  0.50550  1.0000
  H   H3325     1.0  0.77291  0.94927  0.60333  1.0000
  C   C4168     1.0  0.75464  0.95435  0.58237  1.0000
  H   H3326     1.0  0.93905  0.65789  0.57316  1.0000
  H   H3327     1.0  0.89360  0.66129  0.64610  1.0000
  C   C4169     1.0  0.85581  0.97764  0.54581  1.0000
  H   H3328     1.0  0.98640  0.88412  0.52885  1.0000
  H   H3329     1.0  0.74697  0.78926  0.47155  1.0000
  C   C4170     1.0  0.91345  0.63701  0.64121  1.0000
  C   C4171     1.0  0.78412  0.98851  0.38494  1.0000
  H   H3330     1.0  0.87942  0.83181  0.38234  1.0000
  C   C4172     1.0  0.79625  0.96921  0.63896  1.0000
  H   H3331     1.0  0.80643  0.83710  0.41499  1.0000
  H   H3332     1.0  0.74626  0.94663  0.39268  1.0000
  H   H3333     1.0  0.98675  0.73067  0.58105  1.0000
  P   P138      1.0  0.95121  0.64490  0.53612  1.0000
  C   C4173     1.0  0.98409  0.58679  0.64968  1.0000
  H   H3334     1.0  0.95859  0.68413  0.52637  1.0000
  H   H3335     1.0  0.79066  0.94227  0.54487  1.0000
  H   H3336     1.0  0.97402  0.77729  0.55828  1.0000
  C   C4174     1.0  0.92141  0.67305  0.53199  1.0000
  C   C4175     1.0  0.97806  0.52616  0.42770  1.0000
  C   C4176     1.0  0.97417  0.87910  0.53700  1.0000
  C   C4177     1.0  0.85801  0.96399  0.37374  1.0000
  C   C4178     1.0  0.77788  0.94407  0.63975  1.0000
  H   H3337     1.0  0.98615  0.69840  0.51122  1.0000
  H   H3338     1.0  0.80797  0.80444  0.44682  1.0000
  C   C4179     1.0  0.97589  0.86529  0.55240  1.0000
  H   H3339     1.0  0.79650  0.97219  0.40812  1.0000
  H   H3340     1.0  0.98711  0.79743  0.46024  1.0000
  H   H3341     1.0  0.79069  0.91632  0.64892  1.0000
  H   H3342     1.0  0.76107  0.94220  0.57582  1.0000
  H   H3343     1.0  0.92339  0.67115  0.51737  1.0000
  C   C4180     1.0  0.90666  0.65627  0.63849  1.0000
  H   H3344     1.0  0.82710  0.77599  0.39218  1.0000
  H   H3345     1.0  0.89754  0.69370  0.52885  1.0000
  C   C4181     1.0  0.78345  0.88213  0.54144  1.0000
  H   H3346     1.0  0.76599  0.85377  0.47752  1.0000
  C   C4182     1.0  0.77559  0.86721  0.53696  1.0000
  C   C4183     1.0  0.92556  0.61771  0.49423  1.0000
  H   H3347     1.0  0.86921  0.97212  0.41999  1.0000
  H   H3348     1.0  0.78775  0.88170  0.55507  1.0000
  S   S556      1.0  0.93956  0.54341  0.35149  1.0000
  C   C4184     1.0  0.75295  0.97399  0.60688  1.0000
  H   H3349     1.0  0.97634  0.66838  0.47237  1.0000
  C   C4185     1.0  0.75032  0.98282  0.40707  1.0000
  C   C4186     1.0  0.95443  0.50152  0.39951  1.0000
  H   H3350     1.0  0.96566  0.63300  0.49872  1.0000
  C   C4187     1.0  0.86394  0.69483  0.65834  1.0000
  H   H3351     1.0  0.77384  0.86601  0.61564  1.0000
  C   C4188     1.0  0.95174  0.62968  0.50269  1.0000
  C   C4189     1.0  0.97600  0.51145  0.44222  1.0000
  C   C4190     1.0  0.80338  0.76192  0.43431  1.0000
  H   H3352     1.0  0.96785  0.65834  0.58515  1.0000
  H   H3353     1.0  0.75727  0.84294  0.45030  1.0000
  C   C4191     1.0  0.94377  0.62170  0.49002  1.0000
  H   H3354     1.0  0.80112  0.92197  0.37431  1.0000
  H   H3355     1.0  0.96202  0.51333  0.39876  1.0000
  C   C4192     1.0  0.79030  0.79323  0.42183  1.0000
  H   H3356     1.0  0.84615  0.99181  0.36408  1.0000
  C   C4193     1.0  0.93029  0.66569  0.56324  1.0000
  H   H3357     1.0  0.78670  0.96919  0.35249  1.0000
  H   H3358     1.0  0.80362  0.75025  0.44544  1.0000
  H   H3359     1.0  0.96037  0.66301  0.37534  1.0000
  C   C4194     1.0  0.80342  0.79225  0.40578  1.0000
  C   C4195     1.0  0.81649  0.77636  0.40420  1.0000
  C   C4196     1.0  0.97409  0.62598  0.56251  1.0000
  H   H3360     1.0  0.95530  0.89710  0.52011  1.0000
  C   C4197     1.0  0.77350  0.85727  0.58871  1.0000
  C   C4198     1.0  0.90669  0.68588  0.53846  1.0000
  C   C4199     1.0  0.75604  0.94695  0.47387  1.0000
  C   C4200     1.0  0.78199  0.94976  0.53464  1.0000
  H   H3361     1.0  0.92637  0.51193  0.34451  1.0000
  H   H3362     1.0  0.92346  0.70862  0.65038  1.0000
  C   C4201     1.0  0.74682  0.90297  0.57080  1.0000
  C   C4202     1.0  0.91570  0.67876  0.56959  1.0000
  H   H3363     1.0  0.75082  0.90199  0.55609  1.0000
  C   C4203     1.0  0.78980  0.85965  0.37553  1.0000
  C   C4204     1.0  0.81654  0.76125  0.41846  1.0000
  C   C4205     1.0  0.77996  0.96316  0.63546  1.0000
  C   C4206     1.0  0.75050  0.99399  0.38972  1.0000
  P   P139      1.0  0.77571  0.81503  0.42568  1.0000
  C   C4207     1.0  0.97519  0.60641  0.40406  1.0000
  C   C4208     1.0  0.74193  0.98716  0.34429  1.0000
  C   C4209     1.0  0.97118  0.65524  0.36667  1.0000
  H   H3364     1.0  0.82709  0.74922  0.41732  1.0000
  S   S557      1.0  0.96263  0.75026  0.40604  1.0000
  H   H3365     1.0  0.96370  0.51202  0.45241  1.0000
  H   H3366     1.0  0.96804  0.68513  0.55979  1.0000
  C   C4210     1.0  0.78747  0.92826  0.37111  1.0000
  H   H3367     1.0  0.91935  0.61171  0.48429  1.0000
  H   H3368     1.0  0.97218  0.56606  0.34558  1.0000
  C   C4211     1.0  0.78342  0.84745  0.57442  1.0000
  P   P140      1.0  0.77305  0.84643  0.55366  1.0000
  C   C4212     1.0  0.96391  0.60371  0.58879  1.0000
  C   C4213     1.0  0.96641  0.62389  0.43047  1.0000
  C   C4214     1.0  0.78089  0.83277  0.40617  1.0000
  C   C4215     1.0  0.75951  0.80029  0.49174  1.0000
  H   H3369     1.0  0.82356  0.83342  0.59373  1.0000
  C   C4216     1.0  0.78791  0.96508  0.52253  1.0000
  C   C4217     1.0  0.76515  0.94381  0.53320  1.0000
  H   H3370     1.0  0.97313  0.59531  0.39650  1.0000
  H   H3371     1.0  0.86608  0.93515  0.38453  1.0000
  C   C4218     1.0  0.98110  0.62999  0.34780  1.0000
  H   H3372     1.0  0.77742  0.93293  0.39957  1.0000
  S   S558      1.0  0.93746  0.58926  0.34901  1.0000
  C   C4219     1.0  0.79964  0.82881  0.52833  1.0000
  H   H3373     1.0  0.96736  0.53810  0.42646  1.0000
  C   C4220     1.0  0.80384  0.99146  0.34636  1.0000
  C   C4221     1.0  0.98322  0.60373  0.65687  1.0000
  C   C4222     1.0  0.78135  0.89850  0.51018  1.0000
  H   H3374     1.0  0.79369  0.92561  0.34177  1.0000
  H   H3375     1.0  0.86939  0.99048  0.50622  1.0000
  H   H3376     1.0  0.79325  0.87008  0.36378  1.0000
  H   H3377     1.0  0.75963  0.86434  0.58745  1.0000
  C   C4223     1.0  0.77394  0.85094  0.37662  1.0000
  C   C4224     1.0  0.80452  0.79547  0.52636  1.0000
  H   H3378     1.0  0.90926  0.62852  0.33019  1.0000
  C   C4225     1.0  0.76956  0.83742  0.39178  1.0000
  C   C4226     1.0  0.75639  0.94223  0.38134  1.0000
  C   C4227     1.0  0.96706  0.64054  0.35828  1.0000
  H   H3379     1.0  0.80783  0.95198  0.38570  1.0000
  H   H3380     1.0  0.96854  0.77202  0.45861  1.0000
  H   H3381     1.0  0.75439  0.78248  0.43107  1.0000
  C   C4228     1.0  0.86233  0.52158  0.33212  1.0000
  C   C4229     1.0  0.97770  0.61371  0.57865  1.0000
  P   P141      1.0  0.98267  0.65525  0.43495  1.0000
  H   H3382     1.0  0.76509  0.85651  0.51497  1.0000
  H   H3383     1.0  0.98481  0.63407  0.55542  1.0000
  H   H3384     1.0  0.75474  0.82301  0.58495  1.0000
  C   C4230     1.0  0.79290  0.98274  0.56392  1.0000
  C   C4231     1.0  0.84548  0.99214  0.42706  1.0000
  C   C4232     1.0  0.97579  0.66556  0.63339  1.0000
  C   C4233     1.0  0.98653  0.68328  0.51307  1.0000
  H   H3385     1.0  0.86860  0.74110  0.64673  1.0000
  C   C4234     1.0  0.79225  0.93111  0.64624  1.0000
  H   H3386     1.0  0.85025  0.71728  0.64049  1.0000
  H   H3387     1.0  0.85260  0.51724  0.34406  1.0000
  P   P142      1.0  0.74592  0.98035  0.48976  1.0000
  C   C4235     1.0  0.80870  0.93713  0.64887  1.0000
  H   H3388     1.0  0.88313  0.61075  0.33124  1.0000
  H   H3389     1.0  0.82335  0.96084  0.64761  1.0000
  P   P143      1.0  0.80581  0.99218  0.37058  1.0000
  C   C4236     1.0  0.92068  0.49918  0.35018  1.0000
  C   C4237     1.0  0.98071  0.67916  0.56556  1.0000
  H   H3390     1.0  0.98258  0.51712  0.35194  1.0000
  C   C4238     1.0  0.87106  0.72676  0.65338  1.0000
  C   C4239     1.0  0.81060  0.95619  0.64545  1.0000
  C   C4240     1.0  0.96753  0.50651  0.63671  1.0000
  H   H3391     1.0  0.85604  0.68440  0.65548  1.0000
  C   C4241     1.0  0.98357  0.50236  0.64550  1.0000
  C   C4242     1.0  0.98970  0.72057  0.44775  1.0000
  H   H3392     1.0  0.74267  0.84290  0.42498  1.0000
  C   C4243     1.0  0.98931  0.65961  0.36430  1.0000
  C   C4244     1.0  0.98774  0.64431  0.51857  1.0000
  H   H3393     1.0  0.98847  0.62917  0.52071  1.0000
  H   H3394     1.0  0.98948  0.85957  0.55618  1.0000
  C   C4245     1.0  0.98924  0.78421  0.46921  1.0000
  C   C4246     1.0  0.98873  0.77571  0.55367  1.0000
  C   C4247     1.0  0.74051  0.82503  0.50721  1.0000
  Fe  Fe278     1.0  0.76718  0.51752  0.93063  1.0000
  S   S559      1.0  0.79118  0.51567  0.94671  1.0000
  H   H3395     1.0  0.88015  0.67515  0.67630  1.0000
  S   S560      1.0  0.77625  0.55939  0.95292  1.0000
  Fe  Fe279     1.0  0.79526  0.54407  0.93118  1.0000
  S   S561      1.0  0.82452  0.55199  0.92186  1.0000
  Fe  Fe280     1.0  0.77070  0.53091  0.96705  1.0000
  C   C4248     1.0  0.91271  0.63884  0.69920  1.0000
  S   S562      1.0  0.77233  0.54515  0.91360  1.0000
  S   S563      1.0  0.94384  0.58034  0.68369  1.0000
  H   H3396     1.0  0.98442  0.55973  0.78765  1.0000
  S   S564      1.0  0.93050  0.53842  0.69475  1.0000
  H   H3397     1.0  0.90598  0.62819  0.70871  1.0000
  Fe  Fe281     1.0  0.91816  0.56808  0.69696  1.0000
  S   S565      1.0  0.90158  0.57503  0.72411  1.0000
  Fe  Fe282     1.0  0.95500  0.55090  0.67904  1.0000
  C   C4249     1.0  0.96310  0.52469  0.73489  1.0000
  Fe  Fe283     1.0  0.91977  0.52606  0.85090  1.0000
  S   S566      1.0  0.92572  0.52460  0.81982  1.0000
  S   S567      1.0  0.89108  0.51819  0.86416  1.0000
  Fe  Fe284     1.0  0.96083  0.53057  0.85285  1.0000
  S   S568      1.0  0.96925  0.52935  0.82233  1.0000
  C   C4250     1.0  0.93979  0.50642  0.75248  1.0000
  Fe  Fe285     1.0  0.94255  0.54797  0.81850  1.0000
  S   S569      1.0  0.94462  0.57041  0.79367  1.0000
  Fe  Fe286     1.0  0.95171  0.50621  0.82619  1.0000
  H   H3398     1.0  0.84665  0.51708  0.78699  1.0000
  S   S570      1.0  0.93497  0.55128  0.84912  1.0000
  H   H3399     1.0  0.85605  0.50637  0.87954  1.0000
  C   C4251     1.0  0.91389  0.57083  0.74358  1.0000
  C   C4252     1.0  0.90418  0.57026  0.76166  1.0000
  C   C4253     1.0  0.91371  0.56867  0.77729  1.0000
  C   C4254     1.0  0.93295  0.56818  0.77483  1.0000
  C   C4255     1.0  0.94266  0.56823  0.75676  1.0000
  C   C4256     1.0  0.93320  0.56910  0.74122  1.0000
  H   H3400     1.0  0.88924  0.57153  0.76355  1.0000
  H   H3401     1.0  0.90610  0.56888  0.79115  1.0000
  H   H3402     1.0  0.95753  0.56770  0.75470  1.0000
  H   H3403     1.0  0.94081  0.56912  0.72735  1.0000
  C   C4257     1.0  0.84259  0.54263  0.90534  1.0000
  C   C4258     1.0  0.84171  0.52634  0.89760  1.0000
  C   C4259     1.0  0.85674  0.51909  0.88519  1.0000
  C   C4260     1.0  0.87267  0.52817  0.87998  1.0000
  C   C4261     1.0  0.87350  0.54452  0.88762  1.0000
  C   C4262     1.0  0.85863  0.55158  0.90032  1.0000
  H   H3404     1.0  0.82954  0.51921  0.90131  1.0000
  H   H3405     1.0  0.96180  0.51445  0.91871  1.0000
  H   H3406     1.0  0.88550  0.55183  0.88368  1.0000
  H   H3407     1.0  0.85949  0.56420  0.90616  1.0000
  H   H3408     1.0  0.86156  0.72432  0.73705  1.0000
  Fe  Fe287     1.0  0.91951  0.54256  0.66731  1.0000
  C   C4263     1.0  0.96055  0.51942  0.76864  1.0000
  H   H3409     1.0  0.93062  0.71485  0.70680  1.0000
  C   C4264     1.0  0.90658  0.65786  0.70007  1.0000
  H   H3410     1.0  0.93162  0.61877  0.68470  1.0000
  C   C4265     1.0  0.98175  0.62650  0.69855  1.0000
  C   C4266     1.0  0.89104  0.50678  0.80079  1.0000
  C   C4267     1.0  0.90202  0.50736  0.78342  1.0000
  C   C4268     1.0  0.93580  0.64702  0.67324  1.0000
  S   S571      1.0  0.98099  0.53170  0.87344  1.0000
  H   H3411     1.0  0.97585  0.56879  0.70353  1.0000
  C   C4269     1.0  0.83442  0.57683  0.98435  1.0000
  C   C4270     1.0  0.94618  0.50870  0.76914  1.0000
  H   H3412     1.0  0.91944  0.68116  0.72430  1.0000
  H   H3413     1.0  0.83883  0.51425  0.84610  1.0000
  C   C4271     1.0  0.91483  0.50751  0.90457  1.0000
  H   H3414     1.0  0.90213  0.50554  0.89978  1.0000
  Fe  Fe288     1.0  0.75274  0.55762  0.93681  1.0000
  C   C4272     1.0  0.84849  0.50235  0.78522  1.0000
  C   C4273     1.0  0.94876  0.51399  0.73535  1.0000
  C   C4274     1.0  0.74408  0.98527  0.66316  1.0000
  H   H3415     1.0  0.97253  0.69591  0.66521  1.0000
  C   C4275     1.0  0.92727  0.63346  0.68574  1.0000
  C   C4276     1.0  0.87421  0.71492  0.73420  1.0000
  C   C4277     1.0  0.81097  0.51724  0.86024  1.0000
  C   C4278     1.0  0.81138  0.55555  0.99213  1.0000
  C   C4279     1.0  0.98716  0.58558  0.76942  1.0000
  C   C4280     1.0  0.88344  0.70543  0.74899  1.0000
  H   H3416     1.0  0.87351  0.52280  0.69873  1.0000
  H   H3417     1.0  0.94704  0.60261  0.72213  1.0000
  H   H3418     1.0  0.89493  0.66174  0.71028  1.0000
  H   H3419     1.0  0.90791  0.53056  0.73885  1.0000
  H   H3420     1.0  0.87793  0.70746  0.76328  1.0000
  C   C4281     1.0  0.90678  0.69061  0.72690  1.0000
  S   S572      1.0  0.98336  0.53614  0.68291  1.0000
  C   C4282     1.0  0.89973  0.69330  0.74533  1.0000
  C   C4283     1.0  0.92262  0.52396  0.89780  1.0000
  H   H3421     1.0  0.88672  0.54375  0.71558  1.0000
  C   C4284     1.0  0.98281  0.66654  0.66976  1.0000
  H   H3422     1.0  0.83523  0.52128  0.98410  1.0000
  C   C4285     1.0  0.89750  0.69997  0.71198  1.0000
  C   C4286     1.0  0.94848  0.51257  0.91513  1.0000
  C   C4287     1.0  0.87774  0.68962  0.67009  1.0000
  H   H3423     1.0  0.84194  0.58623  0.97406  1.0000
  H   H3424     1.0  0.90629  0.52063  0.77665  1.0000
  H   H3425     1.0  0.76506  0.56142  0.99252  1.0000
  H   H3426     1.0  0.90685  0.68591  0.75681  1.0000
  H   H3427     1.0  0.81886  0.56928  0.96432  1.0000
  C   C4288     1.0  0.94057  0.49619  0.92217  1.0000
  P   P144      1.0  0.90659  0.69620  0.68824  1.0000
  C   C4289     1.0  0.98336  0.63752  0.71238  1.0000
  S   S573      1.0  0.94507  0.50569  0.85715  1.0000
  H   H3428     1.0  0.96723  0.60496  0.69218  1.0000
  C   C4290     1.0  0.93944  0.52650  0.90306  1.0000
  C   C4291     1.0  0.95301  0.73296  0.66550  1.0000
  C   C4292     1.0  0.82137  0.56736  0.97885  1.0000
  H   H3429     1.0  0.86609  0.50617  0.75896  1.0000
  C   C4293     1.0  0.91509  0.67165  0.68754  1.0000
  C   C4294     1.0  0.79725  0.50812  0.87177  1.0000
  H   H3430     1.0  0.97280  0.58794  0.76703  1.0000
  C   C4295     1.0  0.92966  0.66604  0.67401  1.0000
  H   H3431     1.0  0.94482  0.51139  0.72235  1.0000
  C   C4296     1.0  0.88967  0.52868  0.71899  1.0000
  C   C4297     1.0  0.90176  0.52112  0.73212  1.0000
  C   C4298     1.0  0.96898  0.52748  0.75150  1.0000
  H   H3432     1.0  0.95502  0.73480  0.69432  1.0000
  C   C4299     1.0  0.98678  0.64951  0.66218  1.0000
  H   H3433     1.0  0.75551  0.99283  0.66388  1.0000
  H   H3434     1.0  0.80823  0.53206  0.85525  1.0000
  H   H3435     1.0  0.96970  0.53075  0.72160  1.0000
  C   C4300     1.0  0.90615  0.50162  0.73605  1.0000
  C   C4301     1.0  0.93428  0.71758  0.69183  1.0000
  S   S574      1.0  0.74618  0.52992  0.95238  1.0000
  S   S575      1.0  0.90519  0.57192  0.67030  1.0000
  H   H3436     1.0  0.94569  0.53909  0.89742  1.0000
  H   H3437     1.0  0.91585  0.53453  0.88805  1.0000
  C   C4302     1.0  0.96860  0.61387  0.70230  1.0000
  C   C4303     1.0  0.95714  0.61243  0.71939  1.0000
  H   H3438     1.0  0.85253  0.51060  0.93559  1.0000
  H   H3439     1.0  0.94021  0.50220  0.78256  1.0000
  H   H3440     1.0  0.96505  0.52152  0.78159  1.0000
  C   C4304     1.0  0.88857  0.70288  0.67327  1.0000
  C   C4305     1.0  0.82885  0.50889  0.99015  1.0000
  C   C4306     1.0  0.88205  0.51688  0.70962  1.0000
  H   H3441     1.0  0.94985  0.62225  0.74624  1.0000
  C   C4307     1.0  0.82821  0.50719  0.85513  1.0000
  H   H3442     1.0  0.88644  0.50505  0.93295  1.0000
  C   C4308     1.0  0.94814  0.72895  0.68481  1.0000
  C   C4309     1.0  0.92516  0.71016  0.67953  1.0000
  C   C4310     1.0  0.88120  0.71223  0.71575  1.0000
  C   C4311     1.0  0.95868  0.62357  0.73295  1.0000
  H   H3443     1.0  0.78376  0.51576  0.87561  1.0000
  H   H3444     1.0  0.88720  0.51941  0.80746  1.0000
  H   H3445     1.0  0.87379  0.71968  0.70454  1.0000
  H   H3446     1.0  0.93596  0.67619  0.66364  1.0000
  H   H3447     1.0  0.80112  0.54835  0.98787  1.0000
  C   C4312     1.0  0.82395  0.49735  0.97850  1.0000
  H   H3448     1.0  0.74495  0.52791  0.89919  1.0000
  C   C4313     1.0  0.85971  0.49678  0.93345  1.0000
  H   H3449     1.0  0.82646  0.50094  0.96348  1.0000
  H   H3450     1.0  0.97999  0.53596  0.75106  1.0000
  C   C4314     1.0  0.97176  0.63617  0.72942  1.0000
  H   H3451     1.0  0.97309  0.64466  0.74005  1.0000
  H   H3452     1.0  0.93717  0.50092  0.67839  1.0000
  H   H3453     1.0  0.89277  0.73218  0.66762  1.0000
  C   C4315     1.0  0.88485  0.72160  0.66514  1.0000
  H   H3454     1.0  0.96366  0.74186  0.65994  1.0000
  C   C4316     1.0  0.93027  0.71415  0.66017  1.0000
  H   H3455     1.0  0.98554  0.66736  0.68375  1.0000
  C   C4317     1.0  0.88576  0.49746  0.71403  1.0000
  H   H3456     1.0  0.94666  0.64275  0.66244  1.0000
  C   C4318     1.0  0.99007  0.56269  0.70391  1.0000
  C   C4319     1.0  0.85947  0.49620  0.76944  1.0000
  S   S576      1.0  0.90517  0.51921  0.66038  1.0000
  C   C4320     1.0  0.91343  0.49530  0.66720  1.0000
