data_image0
_chemical_formula_structural       CHC3SHCH2C4H4CHC2H2C2H2C2HSCH2CH2CH2C2H3CH2C4HCHC4H3CHC6PC2H2SCHC2HSCHPC3HCH3CHC3HC7HFeHC2FeCH2C2H2C5HCPSC2FeS2FeS2H5FeS2FeSHSCH2FeSH4FeSFeSCFeSCFeSFeSHSHC2FeS2FeS2FeSFeS3HS2FeSFeSC6H4C2HC5H3C6H4C3H2SCHC3SCHCSH6C2HSC7H5FeH8C6H4C6H3C6PC18H20CHC2H4C6PC15H2CH18CHCH4SC2H5CHC2H2CH2C7H2SC5H5C8PC18H4C2H2C2H2C7HCH2C2H4C5H2C3HCH2SHC3HC3H2CSH2C2HCH2C2H2SCSH2CH3CHSCPC4FeH2CH2C3HCHCHC3PC2HC2HCH4C4H2SCH2CHCHC2HC8HSC3HCH2C3H3CH2C3HCH3C3HCHFe2HC4H2CHPHC2PH2C2HCH4CHC4HC2H2C4PH2C4HCSCH4C3H2FeC3HC2H2CH6FeS2FeSCSCSHCH2CH3C4H2C3H2C3H3FeH4CH2C3H3CSCH5CHCHC2SC2H6CHCHC6PC4H2CH2C5HC2FeCHC3HC2H2CSCHFeCSHCHCH2CH4CHCFeSHC2FeSHSFeS2FeS2H2C2SCHCFeS2FeS2FeSFeS3FeSCFeSHFeSFeSCSFeS2FeCFeHFeS3HC10H4C6H4C2HCH2CH2C6H2CSCHC2H2C6H4CHCPFeC6H5C5HCHC2HCH2C3H2C7PC18H20C2SC5HC4H3PC2H2C2HCHCHC2HCH3C4HC4H2CHC2HCHSH5C6PC18H20C2PH2C2PC5H3C2FeC9H3C3H6CHCSHC2HCHC6H6CHCH4C4H3CHC2H3C4HC3H2C3H5CHCHC2HC2FeHCH3C2HC2PC4HC5HC3HC2SCH5CHC2HC2HCPHC2H3SC3HC5H3SCSHC2HCHC6H4C3H2CHCHCHCHC2H2CHSC4PCHC2PHC2HFeH3C2H2C3H3SCPC2HSHCSHCHC2HCH2CHC3H2C4HCSC2H5SPCFeHSFeS2PFeS4HFeS2FeSHFeSFeS3FeS2C2HFeS2FeS2FeS2FeSFeS3CHC6H4CHC8H4C7H3C6H3C6H4C4H3C6PC7H2CH10CH2CH2CPC3HC7H5CSH3CHCHC6HFeCHCSCH2CHC2H3C4HC2H2CH2C3H5C2HC6SC4HC2H2C4H2CHC2H2CH7C2HCH2C3H2C3H2C3SH2FeH2C2HCH3CH3SCHC2H2C2HC2SHPHCHCHCFeHCH2C3HCH2C4HC3H2CHC3HCH2CHC2HC2SCH2C3HPCHC2H2CH2C5PCHCHCHC2H2C5H2FeCH2C2H3C4HC7HCHC3HC2HC6H2CH2CH3C2H2C2H4CHCHCHC2HC10HCH2C3H5CH2C3HSPH3CH3C2H3C3H3CHCHC2HC2PHPH6C5HCHC2HC2HC3HCHCH2C5HC2HCHC2HFeHSHS2CFeS2FeS2FeSFeS3FeS2FeS2FeSFeS5CFeHFeH2C4HSCHC4SC3HC3HC7H4C6H4C6H4C2FeC3FeCHC2SHCH2PCHC7H5C4HCH2CSH5C3PC6HC4HCH6C8H3SHC3HC3H3CH4C2H4CPCH7CHCPCHCFeH3C2HCH2C2HC2HC3H3CPC19HC3H11CHCHFeCSH3C3H2CPCHC2SHC2HC4HCHC2H2FeCH4PC2HCH3CHC2H4C4HC2HCHCH2C4HCH4C2SCHC2H2C2H2C2HC2HC2H3CH3C3HC2H3FeH3C2HC11H9C4H2CSH2C2H2CHC2SHCFeS2FeS2FeSFeS3FeS2FeS2FeSFeS3FeS2FeHSCFeS3FeSCFeS2FeSFeS3C2HC6H4C6H4C6H4C6H4C6H4CHCHCHC3H2C7H3C4H3C6H5C2HC2H3C2HC2H2C7H2CHCH2CH2CH2CHCH2C5HPH3CH2C9PC14HC3H6CH11C3FeC2H2C2HCH4CH6CHSH3SHCHCPC12H11CH3C6PC17H9C4HCHCHC2H4CH2C3HC2HC3H2CHC2HCH2C2HCH3C6H3CHC3H2FeCH2C2H4C3HC2HPCHPCHPHC5HC2FeCHC2HC4HC5H2C2HC2H2CHCHCHC5H2CHCHCHC2H2CH2C4SC3H4CH2CPCH2CH4C9HCHC3PHCH2C2PSC2HC2H5SHCH4CH2C2HC2H2CHC4H2CHCHCSH3C2H2C2H2FeCSCS2FeSHFeS2Fe2S3FeS2FeSCFeSFeS3HFeCFeS2FeSCSFeS2FeSHFeSFeS3H2C2HPC8H4PH5CH3C6H4C6H4C2H3C2H2C7H4C2HC7H4C6H4C4HC3HC7H3SC7H2C2H5C3H2SH3C2HCH4CH6C2HCHCHC2HC6H4C6PCSC3HC4HCHSH6CHCH4CHC2H3CHC2SCH3PC3H3CH3FeSCHCHC2HCH2CHCH2C2PC3HC3HC2H3CSPCFeC5HC3HCHC4HCH2CH3C2HCHCHCH2CHC6HC3HC3H2C2HC2H3PH2C2HC2HC2HCHCHCH4CHCHCH5C2H3C2HC2H5C2HC2HCH2CHCHC2HFeS2FeS2FeS2FeHFeS3FeS2FeS2FeSFeS3CHCHCH2CHFeSHCHFeS3CHCH4C6H4C6H4C6H4CHC2HC8H8C6HSH2C2HC2H2PH2C5FeC2HCHCHPC2HSH2CH3C3H3FeHC2H2C12PCHSC3H3CH5S2H2C2H3C2SCHC4HCH2CHC2HCH2C4H2C2H2CHC4H4C3H2C2HCPC2HCH2CH2CHCH2CHC2H2C2HC2H4CH2PHC3HC2HC2H2C2H2C3HCH3C2SHC2HC5HC2H2C2HC3H2C4HCHCHC2H2SHC3HC2HCHCH4C11H4C2H2C3PC3HCHCHCH3SHC2FeCH2CHCH2C2HC6HC2HCH2C5HCH4PCHC2HC2H3CHCSCH2C2HCH6CHC2H2C7SC2H2CHCHC4HPCHCH3C2HC2FeS2FeS2FeSFeS3FeS2FeS2FeSFeS3CFeS2CFeSHSC2H2C2H3C6H4C6H4C6H5C6H2C7H2CHCHC2H2CH2C2H3C6HCHCPCH6PHC2HCHCH2CHC3HCH2C5H3C2H8C2SC4HCHC7H2CH2C2SH2C3H8CHC2HC2HC2HFeH2C3H2CH3CPH2C2H2CH2SHC6PC18H18CH2SCSHCPC18HPCH14C3HC3H2CH2PHC5H3FeH2CHSCHC3SHCHC2HC3HCHC2HC3H3CHC3HC5HCHC5HCHCH2C7HC2HC2H7CH3CHCH2C4HCHC2PSHFeSFeS2FeSFeS3FeS2FeSCFeHFeS3FeS2CHFeSCSCFeHSHCSHSH3S3C3H2C6H4CH2CFeC6H5C6H5C6H3C7H4C6SC2HSHSFeC8HC2H6SCH2CHCFeH3SC2HCHCHC6SH2C2H4C3PC6HC5HCHC2H2CH2CHC3HSCHC6PC18H20CHCSC2HC2H2CPHCHCPH2CHFeH2PCH3C2H4C2HC7PC14H12CH2C2HC3HCHCSH2C2H3CHCHC3HCHCH3C2H6CH3CH2C4H2C3H4CHCHC11HC2H4C3HFeC4HCHC4SHCPCFeCH2C2H3CH2CH3C2H2C2HC4H3C2HCHC3HCHCH3FeH2C3HCHC2HC2S2FeS2FeS2FeSFeS3FeCHFeS2H2FeSCSFeC2HCFeS2HCFeCSH2SH2CSH3C5H4FeH4C4PCH2C7H4C6H4C6H4CHCHCSCHC3H6C2HC2H3C7HC13HCH6C5H2C2HCH2CPHPHC2H6C2SHCH2CHC2H2CH2C3HC2H2C4HSHC3H3CH5CHCH3C4HSCH3CPC9H2C3PHC4HCH7C2FeC3H8CHCHCH3C2H3C2HC2SHSCHCH2CH3PC3SHCHC3H4CH3C3HC2PCHC2H2CH2CH2FeCH4C8H3C2H2CHC5HCSC2HCHC8H2C4HCHCHFeC7H2CH2PCSH2C4HC4SHCHC2SH2CHC4H3CFeH2C3HFeS2FeS2FeSFeS3CH2SFeS2FeS2FeS2FeSFeS3HSCHCSFeS2FeS2FeSFeS3FeHSC2HC6H2CHC6H2SHC6H4C6H4C4H2C4PC2H3C6H4C4HCH2CHC6H4C6H4C2H2C2H5C4H6CHSCHC5H5CHCH2C6PC10HC7H13CH6C3PC11H12C5PC8H2C8HCH4C2H2C2H7C6PC9H13C5PC4HC11H3CHCH5C4HCHCHC6H2C2HC3FeC2HC4H3CH3CH2CHCH2C2HCH5CHC3HPH2C3SC3H2CHCHC2HFeC7HC3HPHC2PC4HC2H2CSC4HPHC2HC3HC2H4C5PCH3C2HCHCH4CHCH2CH3C2HC2H3CH3C4H2C3H3CHC2SCHCH4CH2C3HC4H2C3H2CH2CSCH2CHC2HC2HC3HCH2C3HC2HC4HCHC2H2C2HCHCH2CHC2FeCHCHSH3CH3C2HC2HC2SCSHCH2C5PC2HFeH3CH2C2HC2HCH3C2HFeS2FeS2FeS2FeSCFeSFeS3FeS2FeS2FeSFeS3CH2FeS2FeS2HCSCH2CHS3C3HC9H4CH2CHC7H4C6H4C6H4C6H4C6H4C6FeH4C6PC18H21C3HC2HC3HC3HC4PC18HCH6CH11CH7CHCH3C2H3CH2C2H3CH6C2HC4FeC3HCHC2HC2HSHC2HCHC2PC3H2C7H3CHCPCH6CHC2SHCH2C3SH2C4H4CHSH7SCHFeC2HCHC2H2C3SCHC4HC4HC2HC3HC2H5C2HC2H3C3H2CHC3H4C2PHC12HC2SCHC2H3C4HCHCH2C3HC2H3CH2CPH2C2S2HFeCHC2HC2H6C2HPHSFeC2FeSC2SCHCHCHSFeS2FeS2FeSFeS3HSHC3HCFeSHSH3C6H4C2HC2HC6HCHC2HCH2C4HCHC7H5FeCHC4HCH2C3HCH3C2H2C2HC2H2C3FeHC6HCH2C3H2CPH5SCH4C4HCHC6H2C2H5C4H2SC4SC3SCH3C2H2C3H3C4PC18HCH16SCFeC2H3CHCPCHC4H2CSH2C2HPH2CHFeC2HCHC2HC2PCHCSCHSCPC5H7C4H3CH2CSC6HC2HFe2CHCH4PCH2SHCHCHCH6CHCFeSFeS2FeSFeS3CFeSCFeS2FeSFeS3HCHFeSPHSCFeSFeSHSHC2FeSC7H4C5H2C5H2C6H4C6H4C3HC3H2C6H4C5SH3CH3CHCHFeHFeHC4HCHC2SCFeHC3HSHCH4C3HC5PC15H17CH2CH4CHSCHC2H2CH3CH5PC2H2CHCH3CH5C9HCPC4PC18H2CH17CHC3H6SCH2C2H2C2SHCHCHC3HC6H2CH2C4HCHC4HC2HC2HSC3HC2HCH3CH3CHSC5SC5HC4H2CH3C2H2SH4CHCH3S2CHC2SH2CFeC2H3C2H2CHCHCHSFeSFeS2Fe2S2CHFeS2FeSHSCFeSCSFeSFeS2FeS2FeSFeS3CSH3CFeHC6HC2HC6H4C6H4C3H2C6HCH2C6H3SC6H4C6H4CSC6PC8H2C4HC3H14CH3C2H2C2SC6H5C2HC6H3C7HCHCHC2H3CHCHC4H2CHCH2C2HC2H3CSHC3HCH2CH2SHCH2C3H4C3H2C5HCH2PH5C6PC18H19C2H2CHC2HC8HC2HCHC2SPHCHSHC2H2PH2SCH2CHSC4FeHC2FeH7C3HC2HCH2CHCH3C4H3C2HCH2CHC3SCH4CHCH2CHC6H4CHCH2CH2C4H3C4HC3HC3PH2C3PFeH2C2HC2HC3H2CPC2H3C2H2CSHC2HCH2Fe2H2C6HCH2CHPHCH2C2H3C2HC2PCHC3HCH2CSC2HCHCFeCFeCFeHSC2S2C2FeS3H3CSHSHCHSFeSHC5HC7HCH2C2HCHC4HCFeCSH2CHC6H4C2H2CH2CS2PHCH4C2H2CHC2H2FeC2H2C3HCHCHCHFeCHC2H2C4HC3HC8HCHCH4CH3CH2CH2PHC3H2CHC2SCHC2HCHCFeCSHC3HSH3CH2C3H2PHCHC4H3C3H4C3FeS2FeS2FeSFeS4FeS2H3FeS2PH2FeS2FeS2CHSCHC3H3C2H2C4HCHCH2C6H4C7H4C2H2C3H3C6H4C6H3CH4C2HCHC2H4C4H2FeCHC2FeH2FeHCPSCHCH2C2HC2HSCHCHC2HPCH2CH3CPH2CH2C7PC17H16C6PC18H20C2H2C2PC19H3CH8C6H4C2FeH2C3HC3H2C2SCH6C11SCHCPCH4C2H3CHCH4C4HC2HSCHC3H2C3H2CHC2HC4H2C2HCHC6HCHC2HC3HSHC2HCH3CHC2HC2PH2CHC2H2C3SCHC2SH2C2HCH6C2HC2PH2CFeCH2CFeS2FeSCHSCHFeS2FeSHPSH2FeHSFeS2H2C7HCH2CH2C6H4C4HCHC3H2C5H2C8H2C3HFeCHSC2HC3HC3H2CHCH4SCH3CHC2H3C2HC2H2CH2C2HCHC7H2CH3CH2C2H3CH2CH4C3S2CHC2HPCFeH4CHCH2CH2CH2
_chemical_formula_sum              "C4320 H3456 S576 P144 Fe288"
_cell_length_a       71.5185
_cell_length_b       71.6961
_cell_length_c       71.603
_cell_angle_alpha    78.4917
_cell_angle_beta     78.512
_cell_angle_gamma    78.5052

_space_group_name_H-M_alt    "P 1"
_space_group_IT_number       1

loop_
  _space_group_symop_operation_xyz
  'x, y, z'

loop_
  _atom_site_type_symbol
  _atom_site_label
  _atom_site_symmetry_multiplicity
  _atom_site_fract_x
  _atom_site_fract_y
  _atom_site_fract_z
  _atom_site_occupancy
  C   C1        1.0  0.23750  0.20459  0.59865  1.0000
  H   H1        1.0  0.21379  0.15199  0.57862  1.0000
  C   C2        1.0  0.31361  0.18098  0.61857  1.0000
  C   C3        1.0  0.21541  0.12477  0.59836  1.0000
  C   C4        1.0  0.32510  0.21159  0.60898  1.0000
  S   S1        1.0  0.29618  0.06192  0.61793  1.0000
  H   H2        1.0  0.26417  0.11916  0.54746  1.0000
  C   C5        1.0  0.29496  0.19059  0.62441  1.0000
  H   H3        1.0  0.33689  0.21966  0.60347  1.0000
  H   H4        1.0  0.34326  0.18393  0.60705  1.0000
  C   C6        1.0  0.36976  0.09815  0.63123  1.0000
  C   C7        1.0  0.30703  0.03752  0.62239  1.0000
  C   C8        1.0  0.32007  0.02930  0.60763  1.0000
  C   C9        1.0  0.32940  0.01002  0.61121  1.0000
  H   H5        1.0  0.25758  0.04991  0.62262  1.0000
  H   H6        1.0  0.24044  0.19506  0.58806  1.0000
  H   H7        1.0  0.33954  0.00377  0.59984  1.0000
  H   H8        1.0  0.39576  0.17605  0.63302  1.0000
  C   C10       1.0  0.24031  0.04702  0.60219  1.0000
  H   H9        1.0  0.35483  0.08227  0.59570  1.0000
  C   C11       1.0  0.22902  0.12974  0.51960  1.0000
  C   C12       1.0  0.44117  0.99552  0.64199  1.0000
  H   H10       1.0  0.30526  0.13508  0.59447  1.0000
  H   H11       1.0  0.40161  0.15969  0.60444  1.0000
  C   C13       1.0  0.45436  0.00313  0.60237  1.0000
  C   C14       1.0  0.46338  0.00941  0.61530  1.0000
  H   H12       1.0  0.22431  0.17754  0.62711  1.0000
  H   H13       1.0  0.24366  0.14616  0.59841  1.0000
  C   C15       1.0  0.19069  0.15295  0.60284  1.0000
  C   C16       1.0  0.21506  0.22713  0.61673  1.0000
  H   H14       1.0  0.25998  0.12807  0.51340  1.0000
  S   S2        1.0  0.28807  0.10437  0.64349  1.0000
  C   C17       1.0  0.21372  0.17022  0.63717  1.0000
  H   H15       1.0  0.20734  0.21329  0.59602  1.0000
  H   H16       1.0  0.27725  0.09532  0.57703  1.0000
  C   C18       1.0  0.24826  0.07731  0.60561  1.0000
  H   H17       1.0  0.22726  0.13367  0.50455  1.0000
  H   H18       1.0  0.22052  0.08385  0.57050  1.0000
  C   C19       1.0  0.24975  0.12156  0.54401  1.0000
  H   H19       1.0  0.24135  0.03153  0.60657  1.0000
  H   H20       1.0  0.18456  0.16782  0.59806  1.0000
  C   C20       1.0  0.18210  0.14286  0.62012  1.0000
  C   C21       1.0  0.20727  0.14396  0.59196  1.0000
  H   H21       1.0  0.27340  0.15531  0.60315  1.0000
  H   H22       1.0  0.32393  0.10169  0.60853  1.0000
  H   H23       1.0  0.19054  0.19445  0.63426  1.0000
  C   C22       1.0  0.43866  0.99308  0.60914  1.0000
  H   H24       1.0  0.34519  0.05263  0.61760  1.0000
  H   H25       1.0  0.20245  0.12107  0.56442  1.0000
  C   C23       1.0  0.39841  0.15159  0.61883  1.0000
  C   C24       1.0  0.39755  0.13192  0.62135  1.0000
  C   C25       1.0  0.39510  0.16081  0.63490  1.0000
  C   C26       1.0  0.20697  0.11490  0.61601  1.0000
  H   H26       1.0  0.28363  0.18218  0.63115  1.0000
  C   C27       1.0  0.24745  0.12661  0.52459  1.0000
  H   H27       1.0  0.19858  0.13015  0.53015  1.0000
  C   C28       1.0  0.35422  0.09004  0.60738  1.0000
  C   C29       1.0  0.29221  0.13107  0.59209  1.0000
  C   C30       1.0  0.25735  0.13725  0.59415  1.0000
  C   C31       1.0  0.24942  0.05736  0.61127  1.0000
  H   H28       1.0  0.43015  0.10387  0.62572  1.0000
  H   H29       1.0  0.21325  0.10034  0.62162  1.0000
  H   H30       1.0  0.36830  0.02184  0.61995  1.0000
  C   C32       1.0  0.33687  0.10125  0.61436  1.0000
  H   H31       1.0  0.26652  0.19847  0.60408  1.0000
  C   C33       1.0  0.21512  0.12269  0.55344  1.0000
  C   C34       1.0  0.45664  0.00591  0.63521  1.0000
  C   C35       1.0  0.22990  0.05668  0.58751  1.0000
  C   C36       1.0  0.25225  0.20637  0.60810  1.0000
  C   C37       1.0  0.23359  0.11965  0.55862  1.0000
  C   C38       1.0  0.21287  0.12777  0.53402  1.0000
  P   P1        1.0  0.23633  0.11299  0.58379  1.0000
  C   C39       1.0  0.37067  0.08847  0.61576  1.0000
  C   C40       1.0  0.27623  0.10870  0.58232  1.0000
  H   H32       1.0  0.31654  0.16534  0.62070  1.0000
  H   H33       1.0  0.47550  0.01702  0.60985  1.0000
  S   S3        1.0  0.24389  0.14098  0.64126  1.0000
  C   C41       1.0  0.25817  0.12022  0.58695  1.0000
  H   H34       1.0  0.30693  0.10495  0.58146  1.0000
  C   C42       1.0  0.43214  0.98927  0.62907  1.0000
  C   C43       1.0  0.19031  0.12391  0.62677  1.0000
  H   H35       1.0  0.45964  0.00604  0.58701  1.0000
  S   S4        1.0  0.47509  0.10889  0.62785  1.0000
  C   C44       1.0  0.27430  0.14258  0.59679  1.0000
  H   H36       1.0  0.38391  0.07974  0.61006  1.0000
  P   P2        1.0  0.39043  0.09653  0.64272  1.0000
  C   C45       1.0  0.29315  0.11415  0.58481  1.0000
  C   C46       1.0  0.34827  0.04505  0.63158  1.0000
  C   C47       1.0  0.22874  0.07666  0.58179  1.0000
  H   H37       1.0  0.32317  0.03792  0.59351  1.0000
  C   C48       1.0  0.29121  0.21083  0.62252  1.0000
  H   H38       1.0  0.32292  0.12069  0.63436  1.0000
  H   H39       1.0  0.22275  0.04866  0.58056  1.0000
  H   H40       1.0  0.39981  0.12498  0.60878  1.0000
  C   C49       1.0  0.23818  0.08710  0.59062  1.0000
  H   H41       1.0  0.25542  0.08505  0.61286  1.0000
  C   C50       1.0  0.22982  0.22918  0.62597  1.0000
  C   C51       1.0  0.32534  0.99884  0.62944  1.0000
  C   C52       1.0  0.32869  0.19146  0.61094  1.0000
  H   H42       1.0  0.44858  0.14485  0.62409  1.0000
  C   C53       1.0  0.33619  0.11167  0.62908  1.0000
  C   C54       1.0  0.36113  0.02761  0.63293  1.0000
  C   C55       1.0  0.39362  0.12129  0.64000  1.0000
  C   C56       1.0  0.44852  0.13960  0.63934  1.0000
  C   C57       1.0  0.30646  0.22124  0.61484  1.0000
  C   C58       1.0  0.42895  0.08934  0.62456  1.0000
  C   C59       1.0  0.44446  0.05871  0.61491  1.0000
  H   H43       1.0  0.48609  0.17159  0.62253  1.0000
  Fe  Fe1       1.0  0.28190  0.07480  0.64463  1.0000
  H   H44       1.0  0.45713  0.04981  0.60833  1.0000
  C   C60       1.0  0.42751  0.05107  0.62263  1.0000
  C   C61       1.0  0.44521  0.07777  0.61601  1.0000
  Fe  Fe2       1.0  0.48761  0.03628  0.64639  1.0000
  C   C62       1.0  0.30303  0.02631  0.64060  1.0000
  H   H45       1.0  0.45849  0.08356  0.61041  1.0000
  H   H46       1.0  0.39826  0.05636  0.63740  1.0000
  C   C63       1.0  0.19468  0.17982  0.64135  1.0000
  C   C64       1.0  0.35258  0.11021  0.63739  1.0000
  H   H47       1.0  0.18398  0.11637  0.64051  1.0000
  H   H48       1.0  0.42701  0.03620  0.62203  1.0000
  C   C65       1.0  0.24851  0.21855  0.62206  1.0000
  C   C66       1.0  0.41166  0.08195  0.63172  1.0000
  C   C67       1.0  0.31204  0.00697  0.64405  1.0000
  C   C68       1.0  0.41123  0.06256  0.63125  1.0000
  C   C69       1.0  0.21941  0.15145  0.64653  1.0000
  H   H49       1.0  0.16936  0.14993  0.62865  1.0000
  C   C70       1.0  0.46000  0.12190  0.64531  1.0000
  P   P3        1.0  0.26782  0.22278  0.63293  1.0000
  S   S5        1.0  0.42805  0.98521  0.59219  1.0000
  C   C71       1.0  0.21887  0.21484  0.60310  1.0000
  C   C72       1.0  0.48805  0.16794  0.63752  1.0000
  Fe  Fe3       1.0  0.00730  0.12785  0.86147  1.0000
  S   S6        1.0  0.00431  0.10539  0.88856  1.0000
  S   S7        1.0  0.02818  0.14981  0.84948  1.0000
  Fe  Fe4       1.0  0.00961  0.08352  0.86857  1.0000
  S   S8        1.0  0.03017  0.05580  0.87837  1.0000
  S   S9        1.0  0.01384  0.10563  0.84177  1.0000
  H   H50       1.0  0.10669  0.19268  0.91251  1.0000
  H   H51       1.0  0.26271  0.01875  0.78515  1.0000
  H   H52       1.0  0.21997  0.21303  0.91609  1.0000
  H   H53       1.0  0.00195  0.05440  0.84242  1.0000
  H   H54       1.0  0.37724  0.06437  0.72260  1.0000
  Fe  Fe5       1.0  0.09803  0.22189  0.85818  1.0000
  S   S10       1.0  0.11591  0.20978  0.83257  1.0000
  S   S11       1.0  0.07322  0.20666  0.87606  1.0000
  Fe  Fe6       1.0  0.14143  0.21329  0.84456  1.0000
  S   S12       1.0  0.16719  0.19125  0.85162  1.0000
  H   H55       1.0  0.19694  0.98830  0.80509  1.0000
  S   S13       1.0  0.12381  0.22383  0.87111  1.0000
  C   C73       1.0  0.19540  0.04843  0.78588  1.0000
  H   H56       1.0  0.19019  0.01506  0.82227  1.0000
  H   H57       1.0  0.04600  0.18206  0.89723  1.0000
  Fe  Fe7       1.0  0.39842  0.18046  0.68964  1.0000
  S   S14       1.0  0.37145  0.16858  0.70379  1.0000
  H   H58       1.0  0.99542  0.18211  0.84661  1.0000
  H   H59       1.0  0.10316  0.16685  0.84893  1.0000
  H   H60       1.0  0.19313  0.06001  0.79418  1.0000
  H   H61       1.0  0.14606  0.22102  0.92056  1.0000
  Fe  Fe8       1.0  0.35698  0.18994  0.68153  1.0000
  S   S15       1.0  0.33433  0.18387  0.66661  1.0000
  Fe  Fe9       1.0  0.34698  0.22710  0.83519  1.0000
  S   S16       1.0  0.37024  0.20135  0.83453  1.0000
  C   C74       1.0  0.38622  0.08579  0.66787  1.0000
  Fe  Fe10      1.0  0.33597  0.21746  0.87809  1.0000
  S   S17       1.0  0.35877  0.19071  0.88046  1.0000
  C   C75       1.0  0.27784  0.19618  0.68718  1.0000
  Fe  Fe11      1.0  0.37830  0.20999  0.86002  1.0000
  S   S18       1.0  0.41024  0.21332  0.85655  1.0000
  Fe  Fe12      1.0  0.34816  0.18503  0.85460  1.0000
  S   S19       1.0  0.34369  0.15729  0.84565  1.0000
  H   H62       1.0  0.45968  0.18247  0.64819  1.0000
  S   S20       1.0  0.32448  0.21071  0.85376  1.0000
  H   H63       1.0  0.23836  0.11323  0.90016  1.0000
  C   C76       1.0  0.47838  0.18061  0.72193  1.0000
  C   C77       1.0  0.10159  0.03653  0.87824  1.0000
  Fe  Fe13      1.0  0.23401  0.06305  0.84565  1.0000
  S   S21       1.0  0.22977  0.07061  0.81471  1.0000
  S   S22       1.0  0.21884  0.04037  0.86724  1.0000
  Fe  Fe14      1.0  0.25857  0.09589  0.84134  1.0000
  S   S23       1.0  0.25531  0.10564  0.81011  1.0000
  S   S24       1.0  0.27096  0.11296  0.85880  1.0000
  Fe  Fe15      1.0  0.22446  0.10132  0.81933  1.0000
  S   S25       1.0  0.19948  0.12102  0.80705  1.0000
  Fe  Fe16      1.0  0.26098  0.07405  0.80832  1.0000
  S   S26       1.0  0.28160  0.06467  0.78249  1.0000
  S   S27       1.0  0.22682  0.09380  0.85076  1.0000
  S   S28       1.0  0.26613  0.06414  0.83908  1.0000
  H   H64       1.0  0.45566  0.18470  0.84283  1.0000
  S   S29       1.0  0.26238  0.10461  0.68663  1.0000
  S   S30       1.0  0.28954  0.06403  0.67417  1.0000
  Fe  Fe17      1.0  0.25843  0.07474  0.68489  1.0000
  S   S31       1.0  0.24400  0.05764  0.71173  1.0000
  Fe  Fe18      1.0  0.29298  0.09434  0.67392  1.0000
  S   S32       1.0  0.18099  0.22092  0.66945  1.0000
  C   C78       1.0  0.27040  0.06374  0.76299  1.0000
  C   C79       1.0  0.25267  0.05724  0.76609  1.0000
  C   C80       1.0  0.24476  0.05510  0.75033  1.0000
  C   C81       1.0  0.25422  0.06000  0.73141  1.0000
  C   C82       1.0  0.27171  0.06694  0.72832  1.0000
  C   C83       1.0  0.27986  0.06863  0.74406  1.0000
  H   H65       1.0  0.24536  0.05332  0.78063  1.0000
  H   H66       1.0  0.23127  0.04976  0.75273  1.0000
  H   H67       1.0  0.27922  0.07079  0.71384  1.0000
  H   H68       1.0  0.29349  0.07386  0.74151  1.0000
  C   C84       1.0  0.23608  0.99094  0.82071  1.0000
  C   C85       1.0  0.18449  0.99937  0.85115  1.0000
  H   H69       1.0  0.38891  0.15737  0.66595  1.0000
  C   C86       1.0  0.19708  0.01100  0.87514  1.0000
  C   C87       1.0  0.20497  0.02524  0.86090  1.0000
  C   C88       1.0  0.20198  0.02685  0.84192  1.0000
  C   C89       1.0  0.19197  0.01392  0.83709  1.0000
  C   C90       1.0  0.11733  0.01451  0.80649  1.0000
  H   H70       1.0  0.19923  0.00967  0.88992  1.0000
  H   H71       1.0  0.20773  0.03784  0.83092  1.0000
  H   H72       1.0  0.00685  0.01866  0.77357  1.0000
  C   C91       1.0  0.32255  0.14639  0.84864  1.0000
  C   C92       1.0  0.32217  0.13334  0.83645  1.0000
  C   C93       1.0  0.30634  0.12346  0.83887  1.0000
  C   C94       1.0  0.29079  0.12608  0.85397  1.0000
  C   C95       1.0  0.29119  0.13910  0.86621  1.0000
  C   C96       1.0  0.30674  0.14941  0.86342  1.0000
  H   H73       1.0  0.33441  0.13062  0.82522  1.0000
  H   H74       1.0  0.30652  0.11333  0.82948  1.0000
  H   H75       1.0  0.27944  0.14112  0.87807  1.0000
  H   H76       1.0  0.30681  0.15920  0.87310  1.0000
  C   C97       1.0  0.32963  0.16005  0.67245  1.0000
  C   C98       1.0  0.34216  0.14535  0.68188  1.0000
  C   C99       1.0  0.33831  0.12643  0.68645  1.0000
  H   H77       1.0  0.35508  0.14836  0.68530  1.0000
  H   H78       1.0  0.34816  0.11514  0.69367  1.0000
  S   S33       1.0  0.31602  0.22549  0.90468  1.0000
  C   C100      1.0  0.46038  0.15220  0.77702  1.0000
  H   H79       1.0  0.44941  0.12151  0.69388  1.0000
  C   C101      1.0  0.13310  0.01843  0.86806  1.0000
  C   C102      1.0  0.16838  0.06768  0.85661  1.0000
  C   C103      1.0  0.43734  0.15076  0.65302  1.0000
  S   S34       1.0  0.39302  0.20308  0.70869  1.0000
  C   C104      1.0  0.11844  0.03422  0.86441  1.0000
  H   H80       1.0  0.17557  0.06515  0.86909  1.0000
  C   C105      1.0  0.32208  0.12203  0.68123  1.0000
  S   S35       1.0  0.31839  0.09806  0.68572  1.0000
  H   H81       1.0  0.42914  0.16470  0.64830  1.0000
  H   H82       1.0  0.08125  0.17248  0.91737  1.0000
  H   H83       1.0  0.22018  0.03349  0.79822  1.0000
  H   H84       1.0  0.10551  0.17876  0.81393  1.0000
  H   H85       1.0  0.08623  0.14504  0.90019  1.0000
  H   H86       1.0  0.15958  0.13016  0.85268  1.0000
  C   C106      1.0  0.15124  0.01641  0.80285  1.0000
  C   C107      1.0  0.04645  0.06671  0.79614  1.0000
  H   H87       1.0  0.13744  0.18530  0.88992  1.0000
  S   S36       1.0  0.13560  0.22118  0.69059  1.0000
  C   C108      1.0  0.30946  0.13664  0.67176  1.0000
  C   C109      1.0  0.17596  0.17235  0.83841  1.0000
  C   C110      1.0  0.19244  0.15943  0.84306  1.0000
  C   C111      1.0  0.20002  0.14399  0.83305  1.0000
  C   C112      1.0  0.19083  0.14111  0.81865  1.0000
  C   C113      1.0  0.17451  0.15422  0.81369  1.0000
  C   C114      1.0  0.16703  0.16988  0.82359  1.0000
  H   H88       1.0  0.19924  0.16129  0.85458  1.0000
  H   H89       1.0  0.21288  0.13423  0.83661  1.0000
  H   H90       1.0  0.16763  0.15225  0.80224  1.0000
  H   H91       1.0  0.15432  0.17989  0.81989  1.0000
  H   H92       1.0  0.17114  0.06048  0.77112  1.0000
  Fe  Fe19      1.0  0.25677  0.11184  0.65607  1.0000
  H   H93       1.0  0.14210  0.12568  0.80213  1.0000
  H   H94       1.0  0.05053  0.12387  0.87622  1.0000
  H   H95       1.0  0.07806  0.14167  0.86817  1.0000
  H   H96       1.0  0.02821  0.15992  0.88760  1.0000
  H   H97       1.0  0.13957  0.11340  0.83715  1.0000
  H   H98       1.0  0.11618  0.08846  0.88422  1.0000
  H   H99       1.0  0.08823  0.07156  0.89384  1.0000
  H   H100      1.0  0.05545  0.08884  0.88899  1.0000
  C   C115      1.0  0.04521  0.03654  0.86740  1.0000
  C   C116      1.0  0.05677  0.02219  0.87862  1.0000
  C   C117      1.0  0.06905  0.00668  0.87065  1.0000
  C   C118      1.0  0.06971  0.00516  0.85134  1.0000
  C   C119      1.0  0.05834  0.01965  0.84007  1.0000
  C   C120      1.0  0.04616  0.03522  0.84800  1.0000
  H   H101      1.0  0.05613  0.02301  0.89365  1.0000
  H   H102      1.0  0.44686  0.16114  0.77395  1.0000
  H   H103      1.0  0.05905  0.01874  0.82507  1.0000
  H   H104      1.0  0.03758  0.04622  0.83915  1.0000
  C   C121      1.0  0.04082  0.16509  0.85753  1.0000
  C   C122      1.0  0.05395  0.17518  0.84385  1.0000
  C   C123      1.0  0.06413  0.18769  0.84929  1.0000
  C   C124      1.0  0.06132  0.19037  0.86856  1.0000
  C   C125      1.0  0.04835  0.18011  0.88229  1.0000
  C   C126      1.0  0.03820  0.16753  0.87686  1.0000
  H   H105      1.0  0.05618  0.17343  0.82887  1.0000
  H   H106      1.0  0.07391  0.19553  0.83851  1.0000
  H   H107      1.0  0.14198  0.15915  0.87121  1.0000
  C   C127      1.0  0.21410  0.10061  0.73110  1.0000
  C   C128      1.0  0.20590  0.09333  0.74983  1.0000
  C   C129      1.0  0.19629  0.10597  0.76249  1.0000
  C   C130      1.0  0.19507  0.12589  0.75646  1.0000
  C   C131      1.0  0.20445  0.13325  0.73807  1.0000
  C   C132      1.0  0.21332  0.12044  0.72517  1.0000
  P   P4        1.0  0.20235  0.15895  0.73005  1.0000
  C   C133      1.0  0.17742  0.16675  0.72696  1.0000
  C   C134      1.0  0.20805  0.17244  0.74630  1.0000
  C   C135      1.0  0.20831  0.19220  0.74000  1.0000
  C   C136      1.0  0.20868  0.20416  0.75302  1.0000
  C   C137      1.0  0.20904  0.19639  0.77244  1.0000
  C   C138      1.0  0.21026  0.17648  0.77858  1.0000
  C   C139      1.0  0.21004  0.16445  0.76551  1.0000
  C   C140      1.0  0.17045  0.15998  0.71304  1.0000
  C   C141      1.0  0.15117  0.16584  0.71041  1.0000
  C   C142      1.0  0.13865  0.17828  0.72187  1.0000
  C   C143      1.0  0.14540  0.18488  0.73597  1.0000
  C   C144      1.0  0.16468  0.17903  0.73863  1.0000
  C   C145      1.0  0.21839  0.16434  0.70752  1.0000
  C   C146      1.0  0.23794  0.15574  0.70560  1.0000
  C   C147      1.0  0.25035  0.15922  0.68802  1.0000
  C   C148      1.0  0.24346  0.17197  0.67249  1.0000
  C   C149      1.0  0.22430  0.18149  0.67467  1.0000
  C   C150      1.0  0.21172  0.17758  0.69205  1.0000
  H   H108      1.0  0.22095  0.09091  0.72103  1.0000
  H   H109      1.0  0.20681  0.07793  0.75436  1.0000
  H   H110      1.0  0.18978  0.10040  0.77699  1.0000
  H   H111      1.0  0.18676  0.13547  0.76618  1.0000
  H   H112      1.0  0.21934  0.12560  0.71036  1.0000
  H   H113      1.0  0.20686  0.19861  0.72523  1.0000
  H   H114      1.0  0.36976  0.02755  0.72130  1.0000
  H   H115      1.0  0.20799  0.20582  0.78275  1.0000
  H   H116      1.0  0.21077  0.17035  0.79362  1.0000
  H   H117      1.0  0.21091  0.14917  0.77073  1.0000
  H   H118      1.0  0.18006  0.15043  0.70401  1.0000
  H   H119      1.0  0.14607  0.16112  0.69913  1.0000
  H   H120      1.0  0.12385  0.18318  0.71947  1.0000
  H   H121      1.0  0.13587  0.19497  0.74450  1.0000
  H   H122      1.0  0.16957  0.18449  0.74953  1.0000
  H   H123      1.0  0.24346  0.14601  0.71756  1.0000
  H   H124      1.0  0.26526  0.15199  0.68640  1.0000
  H   H125      1.0  0.25295  0.17451  0.65876  1.0000
  H   H126      1.0  0.21912  0.19178  0.66280  1.0000
  H   H127      1.0  0.19687  0.18491  0.69333  1.0000
  C   C151      1.0  0.15089  0.07296  0.82392  1.0000
  H   H128      1.0  0.41767  0.22960  0.73614  1.0000
  C   C152      1.0  0.47615  0.16357  0.71640  1.0000
  C   C153      1.0  0.18193  0.22934  0.87338  1.0000
  H   H129      1.0  0.38765  0.17828  0.77713  1.0000
  H   H130      1.0  0.14437  0.07497  0.81109  1.0000
  H   H131      1.0  0.19901  0.20807  0.83621  1.0000
  H   H132      1.0  0.18342  0.22956  0.80998  1.0000
  C   C154      1.0  0.32450  0.10429  0.79033  1.0000
  C   C155      1.0  0.34140  0.11088  0.79110  1.0000
  C   C156      1.0  0.34263  0.13048  0.78542  1.0000
  C   C157      1.0  0.32695  0.14351  0.77909  1.0000
  C   C158      1.0  0.30998  0.13699  0.77809  1.0000
  C   C159      1.0  0.30884  0.11726  0.78386  1.0000
  P   P5        1.0  0.28969  0.15355  0.76962  1.0000
  C   C160      1.0  0.27947  0.14076  0.75579  1.0000
  C   C161      1.0  0.27164  0.16047  0.78958  1.0000
  C   C162      1.0  0.26989  0.14858  0.80773  1.0000
  C   C163      1.0  0.25468  0.15356  0.82243  1.0000
  C   C164      1.0  0.24159  0.17065  0.81933  1.0000
  C   C165      1.0  0.24373  0.18283  0.80152  1.0000
  C   C166      1.0  0.25838  0.17762  0.78657  1.0000
  C   C167      1.0  0.26043  0.13697  0.76178  1.0000
  C   C168      1.0  0.25348  0.12475  0.75279  1.0000
  C   C169      1.0  0.26531  0.11652  0.73752  1.0000
  C   C170      1.0  0.28416  0.12035  0.73131  1.0000
  C   C171      1.0  0.29133  0.13220  0.74056  1.0000
  C   C172      1.0  0.29739  0.17562  0.75596  1.0000
  C   C173      1.0  0.30010  0.17944  0.73568  1.0000
  C   C174      1.0  0.30557  0.19692  0.72569  1.0000
  H   H133      1.0  0.07769  0.99569  0.87954  1.0000
  H   H134      1.0  0.46851  0.10160  0.66975  1.0000
  C   C175      1.0  0.30026  0.18954  0.76600  1.0000
  H   H135      1.0  0.32342  0.08912  0.79485  1.0000
  H   H136      1.0  0.35347  0.10087  0.79629  1.0000
  H   H137      1.0  0.35564  0.13572  0.78613  1.0000
  H   H138      1.0  0.32828  0.15858  0.77489  1.0000
  H   H139      1.0  0.29587  0.11183  0.78338  1.0000
  H   H140      1.0  0.27992  0.13529  0.81049  1.0000
  H   H141      1.0  0.25297  0.14411  0.83623  1.0000
  H   H142      1.0  0.22974  0.17437  0.83065  1.0000
  H   H143      1.0  0.23375  0.19610  0.79907  1.0000
  H   H144      1.0  0.25920  0.18689  0.77259  1.0000
  H   H145      1.0  0.25109  0.14269  0.77391  1.0000
  H   H146      1.0  0.23909  0.12125  0.75797  1.0000
  H   H147      1.0  0.25991  0.10696  0.73068  1.0000
  H   H148      1.0  0.29344  0.11359  0.71972  1.0000
  H   H149      1.0  0.30632  0.13417  0.73623  1.0000
  H   H150      1.0  0.29831  0.16898  0.72751  1.0000
  H   H151      1.0  0.23296  0.20849  0.83796  1.0000
  H   H152      1.0  0.26362  0.01663  0.71337  1.0000
  C   C176      1.0  0.41754  0.20148  0.80317  1.0000
  H   H153      1.0  0.29886  0.18670  0.78161  1.0000
  C   C177      1.0  0.13654  0.00876  0.79834  1.0000
  H   H154      1.0  0.42017  0.03706  0.67464  1.0000
  H   H155      1.0  0.42496  0.20808  0.81129  1.0000
  H   H156      1.0  0.28950  0.20061  0.92187  1.0000
  H   H157      1.0  0.14608  0.01622  0.85749  1.0000
  S   S37       1.0  0.34805  0.21321  0.69989  1.0000
  C   C178      1.0  0.43768  0.14433  0.67274  1.0000
  C   C179      1.0  0.34513  0.02243  0.71072  1.0000
  H   H158      1.0  0.00951  0.10454  0.80005  1.0000
  H   H159      1.0  0.27946  0.19073  0.89487  1.0000
  H   H160      1.0  0.47348  0.16037  0.82277  1.0000
  H   H161      1.0  0.34684  0.98722  0.66700  1.0000
  H   H162      1.0  0.17567  0.14374  0.67311  1.0000
  C   C180      1.0  0.40099  0.08314  0.67892  1.0000
  H   H163      1.0  0.01260  0.18085  0.81327  1.0000
  C   C181      1.0  0.35271  0.22046  0.75851  1.0000
  C   C182      1.0  0.09966  0.02341  0.89555  1.0000
  H   H164      1.0  0.38687  0.12301  0.67063  1.0000
  H   H165      1.0  0.40916  0.07356  0.70709  1.0000
  C   C183      1.0  0.47537  0.16885  0.67137  1.0000
  H   H166      1.0  0.30843  0.19957  0.71005  1.0000
  H   H167      1.0  0.35008  0.04101  0.74949  1.0000
  C   C184      1.0  0.11447  0.00787  0.89914  1.0000
  C   C185      1.0  0.06867  0.09925  0.83515  1.0000
  C   C186      1.0  0.47931  0.17340  0.82197  1.0000
  C   C187      1.0  0.08701  0.10407  0.83309  1.0000
  C   C188      1.0  0.46922  0.18706  0.83344  1.0000
  C   C189      1.0  0.32304  0.03725  0.74317  1.0000
  C   C190      1.0  0.41931  0.22939  0.86731  1.0000
  H   H168      1.0  0.46903  0.21413  0.84216  1.0000
  H   H169      1.0  0.48329  0.10563  0.77963  1.0000
  S   S38       1.0  0.08352  0.98510  0.84082  1.0000
  C   C191      1.0  0.35420  0.02862  0.72354  1.0000
  C   C192      1.0  0.41307  0.18307  0.81083  1.0000
  C   C193      1.0  0.26857  0.19786  0.90519  1.0000
  C   C194      1.0  0.15682  0.22647  0.76089  1.0000
  C   C195      1.0  0.41250  0.23195  0.88648  1.0000
  H   H170      1.0  0.08980  0.04819  0.87575  1.0000
  H   H171      1.0  0.14631  0.05127  0.87124  1.0000
  H   H172      1.0  0.99420  0.18378  0.78665  1.0000
  H   H173      1.0  0.12508  0.15839  0.79041  1.0000
  H   H174      1.0  0.30813  0.21749  0.76376  1.0000
  C   C196      1.0  0.21087  0.03328  0.78811  1.0000
  C   C197      1.0  0.46266  0.19141  0.73225  1.0000
  C   C198      1.0  0.17667  0.11031  0.87161  1.0000
  C   C199      1.0  0.17684  0.09737  0.88897  1.0000
  C   C200      1.0  0.15940  0.09440  0.90104  1.0000
  C   C201      1.0  0.14182  0.10415  0.89556  1.0000
  C   C202      1.0  0.14153  0.11621  0.87751  1.0000
  C   C203      1.0  0.15917  0.11974  0.86591  1.0000
  P   P6        1.0  0.11899  0.13009  0.87118  1.0000
  C   C204      1.0  0.09912  0.11666  0.87655  1.0000
  C   C205      1.0  0.11447  0.15005  0.88419  1.0000
  C   C206      1.0  0.09748  0.15374  0.89757  1.0000
  C   C207      1.0  0.09473  0.16910  0.90772  1.0000
  C   C208      1.0  0.10907  0.18053  0.90497  1.0000
  C   C209      1.0  0.12622  0.17657  0.89208  1.0000
  C   C210      1.0  0.12878  0.16163  0.88150  1.0000
  C   C211      1.0  0.08052  0.12632  0.87372  1.0000
  C   C212      1.0  0.06486  0.11631  0.87827  1.0000
  C   C213      1.0  0.06764  0.09657  0.88549  1.0000
  C   C214      1.0  0.08615  0.08678  0.88797  1.0000
  C   C215      1.0  0.10193  0.09662  0.88302  1.0000
  C   C216      1.0  0.12132  0.13925  0.84561  1.0000
  C   C217      1.0  0.13205  0.12765  0.83222  1.0000
  C   C218      1.0  0.13340  0.13452  0.81238  1.0000
  C   C219      1.0  0.12388  0.15295  0.80578  1.0000
  C   C220      1.0  0.11295  0.16447  0.81902  1.0000
  C   C221      1.0  0.11168  0.15768  0.83888  1.0000
  H   H175      1.0  0.19007  0.11329  0.86257  1.0000
  H   H176      1.0  0.19051  0.08989  0.89318  1.0000
  H   H177      1.0  0.15954  0.08478  0.91478  1.0000
  H   H178      1.0  0.12850  0.10248  0.90553  1.0000
  C   C222      1.0  0.00604  0.07481  0.80385  1.0000
  C   C223      1.0  0.45984  0.11524  0.66503  1.0000
  H   H179      1.0  0.43944  0.00771  0.69027  1.0000
  H   H180      1.0  0.47165  0.17550  0.78299  1.0000
  C   C224      1.0  0.23826  0.12868  0.89763  1.0000
  C   C225      1.0  0.25019  0.00829  0.74280  1.0000
  H   H181      1.0  0.23050  0.22326  0.94284  1.0000
  H   H182      1.0  0.17476  0.21150  0.93710  1.0000
  C   C226      1.0  0.18093  0.17038  0.65441  1.0000
  C   C227      1.0  0.18639  0.15126  0.66335  1.0000
  C   C228      1.0  0.21407  0.01810  0.77752  1.0000
  C   C229      1.0  0.18308  0.04867  0.77292  1.0000
  C   C230      1.0  0.01685  0.08979  0.79991  1.0000
  C   C231      1.0  0.35199  0.98702  0.69596  1.0000
  C   C232      1.0  0.24677  0.13676  0.90938  1.0000
  H   H183      1.0  0.22421  0.13394  0.87275  1.0000
  C   C233      1.0  0.14675  0.02991  0.81539  1.0000
  H   H184      1.0  0.00636  0.19974  0.74903  1.0000
  H   H185      1.0  0.24511  0.21839  0.73348  1.0000
  C   C234      1.0  0.27433  0.20344  0.92049  1.0000
  C   C235      1.0  0.23033  0.14037  0.88211  1.0000
  H   H186      1.0  0.25463  0.16234  0.91453  1.0000
  H   H187      1.0  0.46427  0.20472  0.73615  1.0000
  H   H188      1.0  0.16917  0.21587  0.76438  1.0000
  H   H189      1.0  0.29483  0.20146  0.65926  1.0000
  C   C236      1.0  0.01605  0.01483  0.80137  1.0000
  C   C237      1.0  0.20156  0.01839  0.76460  1.0000
  C   C238      1.0  0.18622  0.03371  0.76221  1.0000
  C   C239      1.0  0.28294  0.99526  0.72933  1.0000
  C   C240      1.0  0.28094  0.18703  0.83414  1.0000
  H   H190      1.0  0.11687  0.09384  0.83402  1.0000
  H   H191      1.0  0.34313  0.18164  0.79274  1.0000
  C   C241      1.0  0.20112  0.19978  0.88699  1.0000
  C   C242      1.0  0.24758  0.15653  0.90549  1.0000
  C   C243      1.0  0.47445  0.16025  0.78226  1.0000
  H   H192      1.0  0.14008  0.99776  0.78921  1.0000
  C   C244      1.0  0.20574  0.14192  0.65974  1.0000
  H   H193      1.0  0.99515  0.12721  0.77033  1.0000
  H   H194      1.0  0.23689  0.01807  0.74069  1.0000
  S   S39       1.0  0.48106  0.05948  0.66510  1.0000
  H   H195      1.0  0.26250  0.22591  0.86702  1.0000
  C   C245      1.0  0.34503  0.19634  0.78648  1.0000
  C   C246      1.0  0.10109  0.06994  0.83899  1.0000
  C   C247      1.0  0.41531  0.99219  0.69961  1.0000
  H   H196      1.0  0.35293  0.22795  0.90943  1.0000
  C   C248      1.0  0.47663  0.20377  0.83296  1.0000
  C   C249      1.0  0.23109  0.16012  0.87819  1.0000
  C   C250      1.0  0.13122  0.00544  0.88540  1.0000
  H   H197      1.0  0.29689  0.13328  0.66770  1.0000
  H   H198      1.0  0.18120  0.98705  0.88135  1.0000
  C   C251      1.0  0.21662  0.22693  0.87033  1.0000
  S   S40       1.0  0.15676  0.18209  0.65868  1.0000
  H   H199      1.0  0.17670  0.03390  0.75211  1.0000
  H   H200      1.0  0.39554  0.21041  0.76338  1.0000
  C   C252      1.0  0.23985  0.16835  0.88975  1.0000
  C   C253      1.0  0.34192  0.04203  0.66647  1.0000
  H   H201      1.0  0.33453  0.04811  0.67917  1.0000
  C   C254      1.0  0.01616  0.00990  0.78333  1.0000
  H   H202      1.0  0.29912  0.20692  0.81696  1.0000
  H   H203      1.0  0.33855  0.20584  0.81388  1.0000
  C   C255      1.0  0.47318  0.17408  0.65195  1.0000
  C   C256      1.0  0.39036  0.13065  0.65608  1.0000
  H   H204      1.0  0.22525  0.16895  0.86591  1.0000
  H   H205      1.0  0.08020  0.05052  0.84500  1.0000
  S   S41       1.0  0.42635  0.15903  0.69025  1.0000
  C   C257      1.0  0.99252  0.03061  0.83429  1.0000
  S   S42       1.0  0.46685  0.01431  0.65211  1.0000
  H   H206      1.0  0.29466  0.99464  0.71714  1.0000
  H   H207      1.0  0.37445  0.00381  0.65181  1.0000
  C   C258      1.0  0.14303  0.06205  0.84126  1.0000
  H   H208      1.0  0.08867  0.11914  0.83041  1.0000
  H   H209      1.0  0.02352  0.22747  0.74192  1.0000
  H   H210      1.0  0.02845  0.00652  0.82770  1.0000
  C   C259      1.0  0.35051  0.20140  0.76654  1.0000
  H   H211      1.0  0.25326  0.12757  0.92116  1.0000
  S   S43       1.0  0.35469  0.18343  0.75224  1.0000
  C   C260      1.0  0.00229  0.21195  0.73817  1.0000
  P   P7        1.0  0.24155  0.19375  0.88382  1.0000
  C   C261      1.0  0.34559  0.22891  0.79072  1.0000
  C   C262      1.0  0.30807  0.21075  0.73583  1.0000
  C   C263      1.0  0.24225  0.99482  0.83669  1.0000
  C   C264      1.0  0.06642  0.07988  0.83917  1.0000
  Fe  Fe20      1.0  0.36497  0.19259  0.72080  1.0000
  H   H212      1.0  0.45267  0.12632  0.77188  1.0000
  H   H213      1.0  0.39822  0.16074  0.80775  1.0000
  C   C265      1.0  0.26467  0.21440  0.65883  1.0000
  H   H214      1.0  0.20155  0.18528  0.89506  1.0000
  H   H215      1.0  0.31260  0.22415  0.72811  1.0000
  C   C266      1.0  0.39118  0.15031  0.65348  1.0000
  C   C267      1.0  0.45808  0.15744  0.72147  1.0000
  C   C268      1.0  0.44464  0.18535  0.73699  1.0000
  H   H216      1.0  0.11289  0.99757  0.91243  1.0000
  C   C269      1.0  0.28780  0.20457  0.82933  1.0000
  H   H217      1.0  0.14270  0.99331  0.88797  1.0000
  C   C270      1.0  0.36847  0.07994  0.67658  1.0000
  H   H218      1.0  0.25141  0.23093  0.81465  1.0000
  C   C271      1.0  0.40246  0.17463  0.80136  1.0000
  C   C272      1.0  0.24893  0.20136  0.90337  1.0000
  C   C273      1.0  0.26688  0.18368  0.85051  1.0000
  P   P8        1.0  0.12200  0.05109  0.84211  1.0000
  C   C274      1.0  0.03567  0.05173  0.79961  1.0000
  C   C275      1.0  0.01537  0.05564  0.80380  1.0000
  H   H219      1.0  0.45584  0.14466  0.71685  1.0000
  C   C276      1.0  0.18317  0.21050  0.88356  1.0000
  C   C277      1.0  0.34259  0.21005  0.79851  1.0000
  H   H220      1.0  0.25764  0.19329  0.71380  1.0000
  C   C278      1.0  0.39643  0.18457  0.78416  1.0000
  H   H221      1.0  0.35118  0.06861  0.70299  1.0000
  H   H222      1.0  0.43233  0.19389  0.74460  1.0000
  H   H223      1.0  0.17018  0.20406  0.88844  1.0000
  H   H224      1.0  0.31448  0.04294  0.75575  1.0000
  C   C279      1.0  0.26698  0.21523  0.85762  1.0000
  C   C280      1.0  0.42409  0.00822  0.69074  1.0000
  C   C281      1.0  0.25961  0.19783  0.86236  1.0000
  C   C282      1.0  0.18681  0.99817  0.87033  1.0000
  H   H225      1.0  0.25963  0.01101  0.84654  1.0000
  H   H226      1.0  0.16621  0.01121  0.79736  1.0000
  S   S44       1.0  0.24996  0.08276  0.65519  1.0000
  C   C283      1.0  0.15186  0.05960  0.85766  1.0000
  H   H227      1.0  0.08654  0.02515  0.90608  1.0000
  H   H228      1.0  0.38528  0.03851  0.67525  1.0000
  C   C284      1.0  0.35434  0.02413  0.66796  1.0000
  H   H229      1.0  0.42827  0.16390  0.73473  1.0000
  C   C285      1.0  0.25971  0.19968  0.69865  1.0000
  H   H230      1.0  0.30341  0.16685  0.66019  1.0000
  C   C286      1.0  0.31323  0.15564  0.66743  1.0000
  C   C287      1.0  0.38459  0.00938  0.69091  1.0000
  H   H231      1.0  0.04328  0.03716  0.79918  1.0000
  C   C288      1.0  0.20699  0.21790  0.82568  1.0000
  C   C289      1.0  0.36524  0.07231  0.69626  1.0000
  C   C290      1.0  0.10308  0.08954  0.83511  1.0000
  C   C291      1.0  0.44237  0.16836  0.73163  1.0000
  C   C292      1.0  0.17594  0.07865  0.83940  1.0000
  C   C293      1.0  0.01191  0.22786  0.73416  1.0000
  C   C294      1.0  0.34313  0.03614  0.73963  1.0000
  C   C295      1.0  0.31395  0.03107  0.73050  1.0000
  H   H232      1.0  0.29836  0.03193  0.73327  1.0000
  S   S45       1.0  0.38452  0.20039  0.66580  1.0000
  C   C296      1.0  0.39780  0.07527  0.69858  1.0000
  C   C297      1.0  0.37987  0.07002  0.70729  1.0000
  C   C298      1.0  0.26065  0.21274  0.93393  1.0000
  H   H233      1.0  0.28700  0.17571  0.82554  1.0000
  C   C299      1.0  0.32492  0.02381  0.71427  1.0000
  H   H234      1.0  0.31766  0.01911  0.70454  1.0000
  H   H235      1.0  0.26226  0.16978  0.85401  1.0000
  C   C300      1.0  0.28074  0.21871  0.84103  1.0000
  C   C301      1.0  0.23518  0.21040  0.91712  1.0000
  C   C302      1.0  0.24337  0.99947  0.80194  1.0000
  H   H236      1.0  0.30878  0.99833  0.65814  1.0000
  H   H237      1.0  0.06212  0.06354  0.79337  1.0000
  H   H238      1.0  0.15855  0.03472  0.81941  1.0000
  C   C303      1.0  0.47726  0.21842  0.76735  1.0000
  H   H239      1.0  0.45317  0.21047  0.78831  1.0000
  H   H240      1.0  0.26532  0.21730  0.94556  1.0000
  C   C304      1.0  0.21814  0.20769  0.87982  1.0000
  C   C305      1.0  0.25553  0.00739  0.83408  1.0000
  C   C306      1.0  0.99692  0.18275  0.81616  1.0000
  H   H241      1.0  0.23009  0.21392  0.69923  1.0000
  C   C307      1.0  0.22614  0.21829  0.82682  1.0000
  H   H242      1.0  0.05617  0.11058  0.83411  1.0000
  H   H243      1.0  0.21002  0.12735  0.66692  1.0000
  H   H244      1.0  0.40068  0.22494  0.89472  1.0000
  C   C308      1.0  0.11280  0.02800  0.81904  1.0000
  C   C309      1.0  0.08250  0.06532  0.84108  1.0000
  C   C310      1.0  0.24422  0.21112  0.69043  1.0000
  H   H245      1.0  0.04538  0.09735  0.79373  1.0000
  C   C311      1.0  0.30540  0.20707  0.75597  1.0000
  H   H246      1.0  0.20366  0.00673  0.75642  1.0000
  Fe  Fe21      1.0  0.37657  0.22202  0.68620  1.0000
  Fe  Fe22      1.0  0.15449  0.21278  0.66346  1.0000
  H   H247      1.0  0.41698  0.17575  0.82464  1.0000
  C   C312      1.0  0.46358  0.13255  0.77597  1.0000
  C   C313      1.0  0.40098  0.20293  0.77638  1.0000
  C   C314      1.0  0.26542  0.00752  0.72716  1.0000
  C   C315      1.0  0.24664  0.21829  0.67059  1.0000
  H   H248      1.0  0.28659  0.23205  0.83771  1.0000
  H   H249      1.0  0.05211  0.07613  0.84130  1.0000
  C   C316      1.0  0.17164  0.22600  0.92922  1.0000
  H   H250      1.0  0.37433  0.22068  0.93399  1.0000
  P   P9        1.0  0.35909  0.01065  0.69113  1.0000
  H   H251      1.0  0.18870  0.08495  0.83867  1.0000
  C   C317      1.0  0.24106  0.21612  0.93233  1.0000
  C   C318      1.0  0.28044  0.20395  0.66753  1.0000
  P   P10       1.0  0.23309  0.99764  0.78139  1.0000
  H   H252      1.0  0.28990  0.18714  0.69333  1.0000
  H   H253      1.0  0.10600  0.00780  0.80385  1.0000
  C   C319      1.0  0.12742  0.03611  0.82343  1.0000
  C   C320      1.0  0.41171  0.21154  0.78575  1.0000
  H   H254      1.0  0.46343  0.17351  0.68222  1.0000
  C   C321      1.0  0.44893  0.12652  0.67867  1.0000
  H   H255      1.0  0.41486  0.08745  0.67240  1.0000
  H   H256      1.0  0.35692  0.08148  0.66839  1.0000
  H   H257      1.0  0.17303  0.09009  0.80987  1.0000
  H   H258      1.0  0.09798  0.03120  0.82591  1.0000
  C   C322      1.0  0.44370  0.23232  0.76490  1.0000
  H   H259      1.0  0.47822  0.21536  0.88225  1.0000
  C   C323      1.0  0.16713  0.08141  0.82310  1.0000
  C   C324      1.0  0.03705  0.08574  0.79631  1.0000
  C   C325      1.0  0.39350  0.02547  0.68208  1.0000
  C   C326      1.0  0.45751  0.21942  0.77471  1.0000
  H   H260      1.0  0.20742  0.21959  0.74814  1.0000
  C   C327      1.0  0.25710  0.01171  0.79944  1.0000
  C   C328      1.0  0.99531  0.04160  0.84738  1.0000
  H   H261      1.0  0.43606  0.99233  0.65732  1.0000
  H   H262      1.0  0.23605  0.98876  0.85118  1.0000
  C   C329      1.0  0.39567  0.99268  0.69958  1.0000
  C   C330      1.0  0.26307  0.01571  0.81544  1.0000
  C   C331      1.0  0.25244  0.99683  0.76082  1.0000
  C   C332      1.0  0.15548  0.23133  0.91991  1.0000
  P   P11       1.0  0.00113  0.03650  0.80865  1.0000
  H   H263      1.0  0.27316  0.02572  0.81338  1.0000
  H   H264      1.0  0.35666  0.22449  0.74304  1.0000
  C   C333      1.0  0.41321  0.02481  0.68187  1.0000
  C   C334      1.0  0.02829  0.00304  0.81369  1.0000
  C   C335      1.0  0.19824  0.23008  0.81093  1.0000
  C   C336      1.0  0.23658  0.23099  0.81340  1.0000
  H   H265      1.0  0.99281  0.04398  0.87734  1.0000
  C   C337      1.0  0.28536  0.98392  0.74724  1.0000
  S   S46       1.0  0.17290  0.22569  0.72312  1.0000
  C   C338      1.0  0.99001  0.03580  0.86729  1.0000
  H   H266      1.0  0.48779  0.20866  0.77516  1.0000
  H   H267      1.0  0.23221  0.22970  0.76452  1.0000
  H   H268      1.0  0.14374  0.22680  0.79068  1.0000
  H   H269      1.0  0.23429  0.22655  0.66455  1.0000
  C   C339      1.0  0.25100  0.22965  0.73722  1.0000
  C   C340      1.0  0.48083  0.12091  0.78030  1.0000
  C   C341      1.0  0.36435  0.01729  0.65103  1.0000
  H   H270      1.0  0.29288  0.03245  0.65198  1.0000
  H   H271      1.0  0.32833  0.22335  0.65116  1.0000
  Fe  Fe23      1.0  0.16164  0.23143  0.69515  1.0000
  C   C342      1.0  0.14242  0.23263  0.77577  1.0000
  C   C343      1.0  0.33890  0.05241  0.64829  1.0000
  C   C344      1.0  0.27021  0.98474  0.76294  1.0000
  H   H272      1.0  0.35179  0.11830  0.64885  1.0000
  C   C345      1.0  0.48345  0.23033  0.75019  1.0000
  C   C346      1.0  0.02850  0.99349  0.77767  1.0000
  H   H273      1.0  0.02859  0.98973  0.76373  1.0000
  H   H274      1.0  0.99038  0.07820  0.80697  1.0000
  C   C347      1.0  0.04076  0.98681  0.80791  1.0000
  H   H275      1.0  0.99898  0.05778  0.76967  1.0000
  H   H276      1.0  0.30558  0.23223  0.68016  1.0000
  H   H277      1.0  0.27090  0.23337  0.71036  1.0000
  H   H278      1.0  0.32899  0.06601  0.64716  1.0000
  H   H279      1.0  0.22165  0.27227  0.98811  1.0000
  H   H280      1.0  0.19258  0.25815  0.98835  1.0000
  Fe  Fe24      1.0  0.03334  0.33197  0.60756  1.0000
  S   S47       1.0  0.03485  0.35455  0.58075  1.0000
  S   S48       1.0  0.05560  0.30479  0.60704  1.0000
  Fe  Fe25      1.0  0.02955  0.37541  0.60183  1.0000
  S   S49       1.0  0.04633  0.40084  0.59577  1.0000
  C   C348      1.0  0.31330  0.26793  0.57859  1.0000
  S   S50       1.0  0.02967  0.35264  0.62837  1.0000
  C   C349      1.0  0.00324  0.41753  0.62683  1.0000
  S   S51       1.0  0.13558  0.44678  0.63459  1.0000
  H   H281      1.0  0.32709  0.26578  0.54928  1.0000
  C   C350      1.0  0.26913  0.27812  0.63881  1.0000
  H   H282      1.0  0.13263  0.31354  0.60295  1.0000
  H   H283      1.0  0.12791  0.46390  0.59220  1.0000
  C   C351      1.0  0.12322  0.32387  0.61128  1.0000
  H   H284      1.0  0.40776  0.30045  0.61924  1.0000
  H   H285      1.0  0.00792  0.41198  0.61337  1.0000
  H   H286      1.0  0.04916  0.38942  0.63696  1.0000
  C   C352      1.0  0.32938  0.25278  0.63737  1.0000
  C   C353      1.0  0.05694  0.41007  0.61181  1.0000
  C   C354      1.0  0.07436  0.43439  0.61705  1.0000
  C   C355      1.0  0.06631  0.42622  0.60472  1.0000
  H   H287      1.0  0.08126  0.44696  0.61142  1.0000
  H   H288      1.0  0.06720  0.43254  0.58960  1.0000
  C   C356      1.0  0.06887  0.29614  0.62614  1.0000
  C   C357      1.0  0.27044  0.25806  0.64229  1.0000
  C   C358      1.0  0.11694  0.46828  0.58299  1.0000
  H   H289      1.0  0.16625  0.37146  0.62735  1.0000
  H   H290      1.0  0.29675  0.31099  0.60083  1.0000
  C   C359      1.0  0.08354  0.28002  0.62485  1.0000
  C   C360      1.0  0.34329  0.27934  0.56354  1.0000
  C   C361      1.0  0.20195  0.39645  0.64410  1.0000
  H   H291      1.0  0.08696  0.27350  0.61193  1.0000
  H   H292      1.0  0.30126  0.26118  0.57782  1.0000
  H   H293      1.0  0.14842  0.42600  0.59332  1.0000
  Fe  Fe26      1.0  0.13595  0.47888  0.62589  1.0000
  H   H294      1.0  0.10314  0.45562  0.54511  1.0000
  H   H295      1.0  0.09727  0.31965  0.60275  1.0000
  H   H296      1.0  0.38554  0.32668  0.60250  1.0000
  H   H297      1.0  0.17438  0.40043  0.60489  1.0000
  C   C362      1.0  0.05602  0.40199  0.63138  1.0000
  H   H298      1.0  0.26175  0.30457  0.61955  1.0000
  H   H299      1.0  0.25601  0.28804  0.59434  1.0000
  C   C363      1.0  0.11877  0.34678  0.63330  1.0000
  C   C364      1.0  0.14471  0.41329  0.60332  1.0000
  C   C365      1.0  0.12534  0.41127  0.60968  1.0000
  H   H300      1.0  0.99795  0.47727  0.42512  1.0000
  H   H301      1.0  0.25928  0.25254  0.59980  1.0000
  H   H302      1.0  0.05324  0.31688  0.64388  1.0000
  C   C366      1.0  0.26048  0.27963  0.60753  1.0000
  S   S52       1.0  0.00147  0.33175  0.60991  1.0000
  C   C367      1.0  0.26381  0.28894  0.62163  1.0000
  H   H303      1.0  0.35212  0.32251  0.60248  1.0000
  H   H304      1.0  0.28008  0.36224  0.62647  1.0000
  H   H305      1.0  0.27493  0.34182  0.60450  1.0000
  H   H306      1.0  0.19965  0.47193  0.62830  1.0000
  H   H307      1.0  0.11399  0.42232  0.60446  1.0000
  C   C368      1.0  0.15933  0.39894  0.60992  1.0000
  H   H308      1.0  0.39629  0.27006  0.63614  1.0000
  C   C369      1.0  0.99430  0.43673  0.62658  1.0000
  H   H309      1.0  0.21427  0.29974  0.63601  1.0000
  C   C370      1.0  0.09115  0.34071  0.62172  1.0000
  C   C371      1.0  0.20048  0.47017  0.64353  1.0000
  S   S53       1.0  0.99737  0.37885  0.60304  1.0000
  C   C372      1.0  0.07308  0.42652  0.63670  1.0000
  C   C373      1.0  0.15460  0.38262  0.62301  1.0000
  H   H310      1.0  0.10459  0.25939  0.63937  1.0000
  H   H311      1.0  0.05875  0.47199  0.58777  1.0000
  H   H312      1.0  0.20501  0.39556  0.62886  1.0000
  H   H313      1.0  0.03085  0.45982  0.60886  1.0000
  H   H314      1.0  0.20067  0.23535  0.61999  1.0000
  H   H315      1.0  0.36306  0.26578  0.63672  1.0000
  C   C374      1.0  0.11704  0.45783  0.56845  1.0000
  H   H316      1.0  0.10542  0.39371  0.62758  1.0000
  C   C375      1.0  0.08913  0.48015  0.55876  1.0000
  H   H317      1.0  0.08913  0.36106  0.64052  1.0000
  C   C376      1.0  0.38673  0.28140  0.62852  1.0000
  C   C377      1.0  0.36164  0.31094  0.60986  1.0000
  C   C378      1.0  0.34425  0.28555  0.58060  1.0000
  C   C379      1.0  0.26221  0.25951  0.61076  1.0000
  C   C380      1.0  0.35499  0.29383  0.61956  1.0000
  C   C381      1.0  0.36773  0.27902  0.62883  1.0000
  P   P12       1.0  0.33063  0.29076  0.61905  1.0000
  C   C382      1.0  0.31470  0.31356  0.62099  1.0000
  C   C383      1.0  0.32971  0.28297  0.59680  1.0000
  C   C384      1.0  0.31425  0.27411  0.59565  1.0000
  C   C385      1.0  0.10312  0.46376  0.55634  1.0000
  H   H318      1.0  0.17749  0.41956  0.64152  1.0000
  H   H319      1.0  0.35455  0.28138  0.55108  1.0000
  C   C386      1.0  0.13512  0.38083  0.63011  1.0000
  H   H320      1.0  0.99206  0.44588  0.61294  1.0000
  H   H321      1.0  0.12795  0.44522  0.56649  1.0000
  C   C387      1.0  0.28998  0.34889  0.62461  1.0000
  C   C388      1.0  0.28701  0.33726  0.61232  1.0000
  C   C389      1.0  0.29936  0.31970  0.61042  1.0000
  C   C390      1.0  0.09881  0.35046  0.63274  1.0000
  C   C391      1.0  0.32296  0.27237  0.63878  1.0000
  H   H322      1.0  0.33937  0.24860  0.62485  1.0000
  C   C392      1.0  0.38061  0.31332  0.60973  1.0000
  C   C393      1.0  0.26692  0.24860  0.62832  1.0000
  Fe  Fe27      1.0  0.99783  0.35460  0.62825  1.0000
  C   C394      1.0  0.12054  0.39506  0.62291  1.0000
  H   H323      1.0  0.04060  0.27004  0.63212  1.0000
  C   C395      1.0  0.32783  0.27053  0.56253  1.0000
  C   C396      1.0  0.30534  0.34298  0.63498  1.0000
  C   C397      1.0  0.10331  0.32729  0.61116  1.0000
  H   H324      1.0  0.30290  0.27206  0.60798  1.0000
  C   C398      1.0  0.39314  0.29856  0.61909  1.0000
  C   C399      1.0  0.31759  0.32537  0.63327  1.0000
  H   H325      1.0  0.35635  0.29232  0.58105  1.0000
  H   H326      1.0  0.14651  0.33134  0.62154  1.0000
  C   C400      1.0  0.09356  0.27203  0.64035  1.0000
  S   S54       1.0  0.19075  0.27074  0.63706  1.0000
  C   C401      1.0  0.13099  0.33381  0.62204  1.0000
  H   H327      1.0  0.32912  0.32084  0.64181  1.0000
  Fe  Fe28      1.0  0.00252  0.35579  0.58436  1.0000
  C   C402      1.0  0.03152  0.47512  0.60655  1.0000
  S   S55       1.0  0.14586  0.24142  0.64469  1.0000
  H   H328      1.0  0.99631  0.32230  0.55183  1.0000
  C   C403      1.0  0.06449  0.30447  0.64288  1.0000
  H   H329      1.0  0.30417  0.23670  0.61400  1.0000
  C   C404      1.0  0.06388  0.41028  0.64373  1.0000
  H   H330      1.0  0.22667  0.23965  0.63563  1.0000
  H   H331      1.0  0.07577  0.34360  0.62122  1.0000
  C   C405      1.0  0.00631  0.40554  0.64430  1.0000
  H   H332      1.0  0.01309  0.39066  0.64411  1.0000
  H   H333      1.0  0.01963  0.29739  0.64604  1.0000
  H   H334      1.0  0.30742  0.35176  0.64488  1.0000
  H   H335      1.0  0.00445  0.48225  0.62513  1.0000
  C   C406      1.0  0.04743  0.48214  0.59452  1.0000
  H   H336      1.0  0.21087  0.43957  0.64624  1.0000
  C   C407      1.0  0.01512  0.37339  0.68184  1.0000
  Fe  Fe29      1.0  0.12896  0.25034  0.67248  1.0000
  S   S56       1.0  0.15331  0.26130  0.67990  1.0000
  H   H337      1.0  0.05012  0.44074  0.68626  1.0000
  C   C408      1.0  0.04620  0.42037  0.71269  1.0000
  C   C409      1.0  0.46987  0.24334  0.74042  1.0000
  Fe  Fe30      1.0  0.12479  0.25351  0.85368  1.0000
  S   S57       1.0  0.13166  0.27818  0.86591  1.0000
  H   H338      1.0  0.39759  0.24668  0.71161  1.0000
  S   S58       1.0  0.09663  0.25316  0.84393  1.0000
  Fe  Fe31      1.0  0.47128  0.28419  0.88670  1.0000
  S   S59       1.0  0.47292  0.30149  0.85700  1.0000
  S   S60       1.0  0.44966  0.26311  0.89795  1.0000
  Fe  Fe32      1.0  0.47348  0.32684  0.87087  1.0000
  S   S61       1.0  0.45488  0.35479  0.85913  1.0000
  S   S62       1.0  0.46983  0.31000  0.90099  1.0000
  H   H339      1.0  0.23861  0.28833  0.95715  1.0000
  H   H340      1.0  0.20965  0.41836  0.86471  1.0000
  C   C410      1.0  0.32569  0.32768  0.93800  1.0000
  C   C411      1.0  0.19404  0.39012  0.83113  1.0000
  S   S63       1.0  0.11421  0.45723  0.67733  1.0000
  C   C412      1.0  0.37386  0.26910  0.92157  1.0000
  H   H341      1.0  0.42513  0.33101  0.88188  1.0000
  C   C413      1.0  0.39530  0.25136  0.72551  1.0000
  Fe  Fe33      1.0  0.22227  0.33893  0.85148  1.0000
  S   S64       1.0  0.24656  0.31383  0.85141  1.0000
  S   S65       1.0  0.19317  0.33623  0.84393  1.0000
  Fe  Fe34      1.0  0.24905  0.36632  0.85785  1.0000
  S   S66       1.0  0.27472  0.34262  0.85808  1.0000
  S   S67       1.0  0.25437  0.39675  0.85767  1.0000
  Fe  Fe35      1.0  0.26481  0.33493  0.83324  1.0000
  S   S68       1.0  0.28465  0.32889  0.80586  1.0000
  Fe  Fe36      1.0  0.25372  0.32425  0.87622  1.0000
  S   S69       1.0  0.25941  0.30533  0.90412  1.0000
  S   S70       1.0  0.24036  0.35976  0.83161  1.0000
  S   S71       1.0  0.22824  0.34838  0.87777  1.0000
  Fe  Fe37      1.0  0.24741  0.34724  0.67126  1.0000
  S   S72       1.0  0.22886  0.33081  0.69530  1.0000
  C   C414      1.0  0.31025  0.27730  0.65534  1.0000
  Fe  Fe38      1.0  0.28456  0.32853  0.68749  1.0000
  S   S73       1.0  0.26886  0.31108  0.71308  1.0000
  H   H342      1.0  0.43843  0.26516  0.78086  1.0000
  Fe  Fe39      1.0  0.25269  0.30576  0.69144  1.0000
  S   S74       1.0  0.24752  0.27600  0.69212  1.0000
  Fe  Fe40      1.0  0.24681  0.33806  0.71431  1.0000
  S   S75       1.0  0.23148  0.34824  0.74185  1.0000
  C   C415      1.0  0.15168  0.24989  0.90937  1.0000
  S   S76       1.0  0.26383  0.35635  0.69059  1.0000
  Fe  Fe41      1.0  0.36965  0.43672  0.89870  1.0000
  S   S77       1.0  0.34693  0.43806  0.92540  1.0000
  S   S78       1.0  0.39669  0.41561  0.90571  1.0000
  Fe  Fe42      1.0  0.34316  0.46579  0.87409  1.0000
  C   C416      1.0  0.14904  0.34592  0.65788  1.0000
  Fe  Fe43      1.0  0.34267  0.47032  0.91577  1.0000
  H   H343      1.0  0.39105  0.30742  0.83909  1.0000
  Fe  Fe44      1.0  0.32609  0.43645  0.90612  1.0000
  S   S79       1.0  0.30453  0.41541  0.91407  1.0000
  S   S80       1.0  0.36633  0.46929  0.88986  1.0000
  S   S81       1.0  0.34900  0.43334  0.88021  1.0000
  H   H344      1.0  0.23151  0.43612  0.76475  1.0000
  C   C417      1.0  0.00414  0.28594  0.72035  1.0000
  C   C418      1.0  0.18921  0.38532  0.85121  1.0000
  C   C419      1.0  0.10482  0.38524  0.67049  1.0000
  C   C420      1.0  0.11028  0.36614  0.66704  1.0000
  C   C421      1.0  0.29246  0.40930  0.89721  1.0000
  C   C422      1.0  0.28247  0.39351  0.90290  1.0000
  C   C423      1.0  0.27162  0.38891  0.89051  1.0000
  C   C424      1.0  0.27018  0.40040  0.87244  1.0000
  C   C425      1.0  0.28059  0.41587  0.86650  1.0000
  C   C426      1.0  0.29185  0.42019  0.87871  1.0000
  H   H345      1.0  0.28283  0.38499  0.91714  1.0000
  H   H346      1.0  0.26370  0.37697  0.89530  1.0000
  H   H347      1.0  0.27976  0.42472  0.85247  1.0000
  H   H348      1.0  0.29953  0.43232  0.87409  1.0000
  C   C427      1.0  0.27021  0.33207  0.78795  1.0000
  C   C428      1.0  0.25012  0.33356  0.79319  1.0000
  C   C429      1.0  0.23831  0.33807  0.77897  1.0000
  C   C430      1.0  0.24653  0.34087  0.75943  1.0000
  C   C431      1.0  0.26669  0.33832  0.75410  1.0000
  C   C432      1.0  0.27854  0.33397  0.76838  1.0000
  H   H349      1.0  0.24360  0.33126  0.80823  1.0000
  H   H350      1.0  0.22282  0.33928  0.78318  1.0000
  H   H351      1.0  0.27314  0.34029  0.73898  1.0000
  H   H352      1.0  0.29409  0.33256  0.76426  1.0000
  C   C433      1.0  0.13844  0.46397  0.74144  1.0000
  C   C434      1.0  0.03258  0.33527  0.67813  1.0000
  H   H353      1.0  0.27330  0.43754  0.77209  1.0000
  C   C435      1.0  0.19096  0.31481  0.90151  1.0000
  H   H354      1.0  0.16377  0.46488  0.69599  1.0000
  H   H355      1.0  0.32868  0.33573  0.94806  1.0000
  C   C436      1.0  0.36727  0.29145  0.67333  1.0000
  H   H356      1.0  0.30948  0.25778  0.87287  1.0000
  H   H357      1.0  0.05954  0.34616  0.67069  1.0000
  C   C437      1.0  0.30044  0.26139  0.88611  1.0000
  C   C438      1.0  0.28770  0.27919  0.88597  1.0000
  C   C439      1.0  0.27592  0.28372  0.90318  1.0000
  C   C440      1.0  0.27706  0.27066  0.92039  1.0000
  C   C441      1.0  0.26693  0.46382  0.75214  1.0000
  C   C442      1.0  0.08156  0.37498  0.69838  1.0000
  H   H358      1.0  0.28693  0.28932  0.87263  1.0000
  H   H359      1.0  0.26813  0.27415  0.93371  1.0000
  C   C443      1.0  0.35316  0.30795  0.67471  1.0000
  S   S82       1.0  0.31683  0.32791  0.68278  1.0000
  C   C444      1.0  0.44511  0.42657  0.93858  1.0000
  H   H360      1.0  0.41138  0.27624  0.83749  1.0000
  C   C445      1.0  0.32881  0.28793  0.68891  1.0000
  C   C446      1.0  0.34306  0.27122  0.68741  1.0000
  H   H361      1.0  0.31397  0.28660  0.69513  1.0000
  H   H362      1.0  0.33910  0.25706  0.69229  1.0000
  C   C447      1.0  0.43744  0.37046  0.87262  1.0000
  C   C448      1.0  0.43514  0.36814  0.89277  1.0000
  C   C449      1.0  0.42219  0.38186  0.90270  1.0000
  C   C450      1.0  0.41103  0.39768  0.89273  1.0000
  C   C451      1.0  0.41273  0.39956  0.87267  1.0000
  C   C452      1.0  0.42602  0.38610  0.86267  1.0000
  H   H363      1.0  0.44367  0.35608  0.90066  1.0000
  H   H364      1.0  0.42098  0.38035  0.91821  1.0000
  H   H365      1.0  0.40439  0.41179  0.86481  1.0000
  H   H366      1.0  0.42780  0.38807  0.84709  1.0000
  C   C453      1.0  0.43769  0.25122  0.88525  1.0000
  H   H367      1.0  0.18652  0.31105  0.80087  1.0000
  C   C454      1.0  0.18194  0.29983  0.91317  1.0000
  P   P13       1.0  0.48486  0.37991  0.92412  1.0000
  Fe  Fe45      1.0  0.10512  0.45570  0.64931  1.0000
  C   C455      1.0  0.15038  0.29266  0.86009  1.0000
  C   C456      1.0  0.14729  0.30917  0.86874  1.0000
  C   C457      1.0  0.16090  0.32176  0.86444  1.0000
  C   C458      1.0  0.17842  0.31780  0.85201  1.0000
  C   C459      1.0  0.18179  0.30110  0.84343  1.0000
  C   C460      1.0  0.16784  0.28858  0.84740  1.0000
  H   H368      1.0  0.13387  0.31265  0.87842  1.0000
  H   H369      1.0  0.15748  0.33501  0.87033  1.0000
  H   H370      1.0  0.19497  0.29817  0.83335  1.0000
  H   H371      1.0  0.17045  0.27599  0.84046  1.0000
  H   H372      1.0  0.26521  0.45647  0.74091  1.0000
  C   C461      1.0  0.20717  0.26007  0.66973  1.0000
  C   C462      1.0  0.22007  0.26099  0.68166  1.0000
  C   C463      1.0  0.23080  0.27595  0.67732  1.0000
  C   C464      1.0  0.45287  0.36230  0.94266  1.0000
  C   C465      1.0  0.25091  0.25113  0.75953  1.0000
  H   H373      1.0  0.27360  0.25012  0.65613  1.0000
  C   C466      1.0  0.44400  0.24940  0.86578  1.0000
  H   H374      1.0  0.12365  0.46486  0.74899  1.0000
  C   C467      1.0  0.12450  0.25348  0.75199  1.0000
  C   C468      1.0  0.26115  0.46333  0.86097  1.0000
  H   H375      1.0  0.11216  0.26413  0.74850  1.0000
  C   C469      1.0  0.27642  0.47381  0.85637  1.0000
  H   H376      1.0  0.24596  0.41325  0.81326  1.0000
  H   H377      1.0  0.02787  0.42908  0.67103  1.0000
  C   C470      1.0  0.46023  0.41082  0.93894  1.0000
  C   C471      1.0  0.02446  0.39801  0.71397  1.0000
  C   C472      1.0  0.37761  0.27287  0.74747  1.0000
  H   H378      1.0  0.07078  0.30256  0.67155  1.0000
  H   H379      1.0  0.38909  0.25345  0.83920  1.0000
  C   C473      1.0  0.02984  0.42242  0.68562  1.0000
  C   C474      1.0  0.09296  0.30482  0.73376  1.0000
  C   C475      1.0  0.09793  0.29828  0.71601  1.0000
  C   C476      1.0  0.11707  0.29664  0.70647  1.0000
  C   C477      1.0  0.13134  0.30112  0.71481  1.0000
  C   C478      1.0  0.12655  0.30742  0.73278  1.0000
  C   C479      1.0  0.10715  0.30968  0.74200  1.0000
  P   P14       1.0  0.14493  0.31464  0.74251  1.0000
  C   C480      1.0  0.13895  0.31325  0.76852  1.0000
  C   C481      1.0  0.16685  0.29746  0.73775  1.0000
  C   C482      1.0  0.16914  0.27893  0.74898  1.0000
  C   C483      1.0  0.18612  0.26571  0.74527  1.0000
  C   C484      1.0  0.20094  0.27084  0.73034  1.0000
  C   C485      1.0  0.19857  0.28906  0.71889  1.0000
  C   C486      1.0  0.18153  0.30215  0.72231  1.0000
  C   C487      1.0  0.14425  0.32653  0.77771  1.0000
  C   C488      1.0  0.14113  0.32432  0.79793  1.0000
  C   C489      1.0  0.13250  0.30898  0.80911  1.0000
  C   C490      1.0  0.12683  0.29596  0.80009  1.0000
  C   C491      1.0  0.13005  0.29806  0.77993  1.0000
  C   C492      1.0  0.14809  0.33889  0.73054  1.0000
  C   C493      1.0  0.13372  0.35084  0.72076  1.0000
  C   C494      1.0  0.13655  0.36922  0.71084  1.0000
  C   C495      1.0  0.15374  0.37582  0.71050  1.0000
  C   C496      1.0  0.16809  0.36409  0.72020  1.0000
  C   C497      1.0  0.16519  0.34582  0.73035  1.0000
  H   H380      1.0  0.07814  0.30593  0.74124  1.0000
  H   H381      1.0  0.08706  0.29432  0.70961  1.0000
  H   H382      1.0  0.12088  0.29167  0.69267  1.0000
  H   H383      1.0  0.14612  0.29961  0.70719  1.0000
  H   H384      1.0  0.10296  0.31503  0.75559  1.0000
  H   H385      1.0  0.15776  0.27438  0.76034  1.0000
  H   H386      1.0  0.18752  0.25135  0.75371  1.0000
  H   H387      1.0  0.21411  0.26066  0.72734  1.0000
  H   H388      1.0  0.20990  0.29307  0.70722  1.0000
  H   H389      1.0  0.17992  0.31583  0.71275  1.0000
  H   H390      1.0  0.15096  0.33848  0.76940  1.0000
  H   H391      1.0  0.14551  0.33439  0.80500  1.0000
  H   H392      1.0  0.13019  0.30713  0.82478  1.0000
  H   H393      1.0  0.12005  0.28408  0.80872  1.0000
  H   H394      1.0  0.12580  0.28759  0.77328  1.0000
  H   H395      1.0  0.12037  0.34600  0.72057  1.0000
  H   H396      1.0  0.12553  0.37834  0.70321  1.0000
  H   H397      1.0  0.15594  0.38999  0.70258  1.0000
  H   H398      1.0  0.18160  0.36904  0.71965  1.0000
  H   H399      1.0  0.17658  0.33688  0.73752  1.0000
  C   C498      1.0  0.21482  0.27131  0.89783  1.0000
  C   C499      1.0  0.19413  0.39880  0.68339  1.0000
  S   S83       1.0  0.14374  0.24303  0.82781  1.0000
  C   C500      1.0  0.22801  0.29052  0.66140  1.0000
  C   C501      1.0  0.02029  0.40710  0.69564  1.0000
  C   C502      1.0  0.46707  0.40174  0.92263  1.0000
  C   C503      1.0  0.47240  0.35959  0.93380  1.0000
  C   C504      1.0  0.35000  0.23430  0.77065  1.0000
  H   H400      1.0  0.06238  0.25953  0.70120  1.0000
  C   C505      1.0  0.07433  0.29633  0.65849  1.0000
  C   C506      1.0  0.20861  0.24282  0.79741  1.0000
  C   C507      1.0  0.44337  0.42440  0.90572  1.0000
  C   C508      1.0  0.45848  0.40867  0.90600  1.0000
  H   H401      1.0  0.39771  0.28217  0.88526  1.0000
  H   H402      1.0  0.21854  0.37590  0.68610  1.0000
  H   H403      1.0  0.00355  0.32894  0.68486  1.0000
  P   P15       1.0  0.00411  0.39793  0.68458  1.0000
  C   C509      1.0  0.03531  0.36867  0.67677  1.0000
  C   C510      1.0  0.00104  0.31841  0.72724  1.0000
  H   H404      1.0  0.43631  0.42922  0.89311  1.0000
  H   H405      1.0  0.46283  0.40170  0.89341  1.0000
  C   C511      1.0  0.40346  0.24753  0.75763  1.0000
  C   C512      1.0  0.13876  0.24711  0.73710  1.0000
  H   H406      1.0  0.26944  0.37677  0.75883  1.0000
  C   C513      1.0  0.27820  0.25150  0.79022  1.0000
  H   H407      1.0  0.23880  0.45438  0.85040  1.0000
  C   C514      1.0  0.16126  0.46426  0.71150  1.0000
  H   H408      1.0  0.31602  0.32600  0.84442  1.0000
  C   C515      1.0  0.36234  0.27301  0.67941  1.0000
  C   C516      1.0  0.27146  0.45316  0.76972  1.0000
  H   H409      1.0  0.17206  0.29959  0.66876  1.0000
  C   C517      1.0  0.21640  0.40432  0.72573  1.0000
  H   H410      1.0  0.47517  0.36756  0.89111  1.0000
  H   H411      1.0  0.21041  0.28142  0.80702  1.0000
  H   H412      1.0  0.18779  0.35233  0.67566  1.0000
  C   C518      1.0  0.42745  0.26258  0.79341  1.0000
  C   C519      1.0  0.42589  0.27255  0.80872  1.0000
  C   C520      1.0  0.41202  0.26929  0.82521  1.0000
  C   C521      1.0  0.39941  0.25643  0.82619  1.0000
  H   H413      1.0  0.36607  0.28469  0.75068  1.0000
  C   C522      1.0  0.45010  0.24447  0.74780  1.0000
  C   C523      1.0  0.35396  0.25846  0.90339  1.0000
  C   C524      1.0  0.17268  0.46128  0.74177  1.0000
  C   C525      1.0  0.38082  0.26695  0.72948  1.0000
  H   H414      1.0  0.00769  0.33026  0.72869  1.0000
  H   H415      1.0  0.32685  0.32478  0.87526  1.0000
  C   C526      1.0  0.40076  0.24656  0.81087  1.0000
  H   H416      1.0  0.43570  0.28250  0.80800  1.0000
  C   C527      1.0  0.33636  0.48286  0.79459  1.0000
  C   C528      1.0  0.04267  0.42903  0.69417  1.0000
  H   H417      1.0  0.24104  0.44939  0.71792  1.0000
  C   C529      1.0  0.25521  0.47246  0.82793  1.0000
  H   H418      1.0  0.25946  0.41693  0.72676  1.0000
  S   S84       1.0  0.10805  0.25370  0.78972  1.0000
  H   H419      1.0  0.48097  0.31041  0.94031  1.0000
  H   H420      1.0  0.21172  0.43513  0.68093  1.0000
  H   H421      1.0  0.22158  0.25015  0.69438  1.0000
  H   H422      1.0  0.08264  0.25103  0.75522  1.0000
  H   H423      1.0  0.35560  0.32001  0.92618  1.0000
  C   C530      1.0  0.35835  0.38410  0.89719  1.0000
  C   C531      1.0  0.34204  0.37681  0.90794  1.0000
  C   C532      1.0  0.33099  0.36829  0.89905  1.0000
  C   C533      1.0  0.33607  0.36726  0.87934  1.0000
  C   C534      1.0  0.35196  0.37534  0.86825  1.0000
  C   C535      1.0  0.36330  0.38338  0.87742  1.0000
  P   P16       1.0  0.35870  0.37459  0.84269  1.0000
  C   C536      1.0  0.37946  0.35568  0.84021  1.0000
  C   C537      1.0  0.33879  0.37112  0.83241  1.0000
  C   C538      1.0  0.34194  0.35995  0.81766  1.0000
  C   C539      1.0  0.32626  0.35680  0.81040  1.0000
  C   C540      1.0  0.30749  0.36520  0.81741  1.0000
  C   C541      1.0  0.30440  0.37716  0.83127  1.0000
  C   C542      1.0  0.31996  0.38036  0.83856  1.0000
  C   C543      1.0  0.39817  0.35965  0.83892  1.0000
  C   C544      1.0  0.41425  0.34502  0.83694  1.0000
  C   C545      1.0  0.41175  0.32624  0.83669  1.0000
  C   C546      1.0  0.39311  0.32204  0.83872  1.0000
  C   C547      1.0  0.37704  0.33664  0.84070  1.0000
  C   C548      1.0  0.36426  0.39780  0.83025  1.0000
  C   C549      1.0  0.35415  0.41468  0.83702  1.0000
  C   C550      1.0  0.35871  0.43269  0.82773  1.0000
  C   C551      1.0  0.37313  0.43400  0.81142  1.0000
  C   C552      1.0  0.38272  0.41731  0.80413  1.0000
  C   C553      1.0  0.37818  0.39926  0.81339  1.0000
  H   H424      1.0  0.36687  0.39082  0.90409  1.0000
  H   H425      1.0  0.33771  0.37820  0.92306  1.0000
  H   H426      1.0  0.31822  0.36285  0.90737  1.0000
  H   H427      1.0  0.32743  0.36033  0.87292  1.0000
  H   H428      1.0  0.37582  0.38939  0.86927  1.0000
  H   H429      1.0  0.35640  0.35360  0.81178  1.0000
  H   H430      1.0  0.32855  0.34767  0.79948  1.0000
  H   H431      1.0  0.29529  0.36247  0.81213  1.0000
  H   H432      1.0  0.28985  0.38378  0.83655  1.0000
  H   H433      1.0  0.31719  0.38981  0.84925  1.0000
  H   H434      1.0  0.40040  0.37398  0.83964  1.0000
  H   H435      1.0  0.42866  0.34817  0.83600  1.0000
  H   H436      1.0  0.36274  0.33301  0.84272  1.0000
  H   H437      1.0  0.34281  0.41396  0.84956  1.0000
  H   H438      1.0  0.35112  0.44563  0.83332  1.0000
  H   H439      1.0  0.37685  0.44795  0.80443  1.0000
  H   H440      1.0  0.39374  0.41836  0.79134  1.0000
  H   H441      1.0  0.38561  0.38650  0.80745  1.0000
  H   H442      1.0  0.02823  0.30018  0.72016  1.0000
  H   H443      1.0  0.02161  0.26073  0.75455  1.0000
  C   C554      1.0  0.23575  0.40228  0.72769  1.0000
  C   C555      1.0  0.20489  0.41077  0.85532  1.0000
  P   P17       1.0  0.21184  0.41103  0.79700  1.0000
  H   H444      1.0  0.34402  0.26137  0.89315  1.0000
  H   H445      1.0  0.03912  0.32059  0.67655  1.0000
  C   C556      1.0  0.20191  0.47694  0.77649  1.0000
  C   C557      1.0  0.00676  0.24372  0.72001  1.0000
  P   P18       1.0  0.24087  0.26051  0.78165  1.0000
  C   C558      1.0  0.22785  0.24346  0.79865  1.0000
  C   C559      1.0  0.26052  0.26424  0.79210  1.0000
  C   C560      1.0  0.25823  0.27928  0.80271  1.0000
  C   C561      1.0  0.27345  0.28146  0.81126  1.0000
  C   C562      1.0  0.29110  0.26893  0.80903  1.0000
  H   H446      1.0  0.45616  0.25600  0.85768  1.0000
  H   H447      1.0  0.04003  0.39799  0.73687  1.0000
  H   H448      1.0  0.23590  0.25607  0.91596  1.0000
  C   C563      1.0  0.21366  0.38413  0.65663  1.0000
  C   C564      1.0  0.16134  0.35537  0.66439  1.0000
  Fe  Fe46      1.0  0.11587  0.24091  0.81897  1.0000
  C   C565      1.0  0.22400  0.28254  0.77705  1.0000
  C   C566      1.0  0.22368  0.29281  0.75822  1.0000
  C   C567      1.0  0.20999  0.30941  0.75487  1.0000
  C   C568      1.0  0.19668  0.31597  0.77023  1.0000
  C   C569      1.0  0.19685  0.30586  0.78898  1.0000
  C   C570      1.0  0.21045  0.28917  0.79240  1.0000
  C   C571      1.0  0.20042  0.38119  0.78444  1.0000
  C   C572      1.0  0.40661  0.24172  0.73947  1.0000
  C   C573      1.0  0.16387  0.26322  0.90829  1.0000
  H   H449      1.0  0.24489  0.28948  0.80427  1.0000
  H   H450      1.0  0.27172  0.29314  0.81930  1.0000
  H   H451      1.0  0.30306  0.27094  0.81525  1.0000
  C   C574      1.0  0.23390  0.43704  0.72013  1.0000
  C   C575      1.0  0.99139  0.43214  0.66138  1.0000
  C   C576      1.0  0.26562  0.25942  0.74645  1.0000
  H   H452      1.0  0.38763  0.24702  0.94199  1.0000
  H   H453      1.0  0.23390  0.28818  0.74604  1.0000
  H   H454      1.0  0.21009  0.31745  0.74035  1.0000
  H   H455      1.0  0.18644  0.32906  0.76767  1.0000
  H   H456      1.0  0.19283  0.35824  0.77377  1.0000
  H   H457      1.0  0.16885  0.37989  0.75507  1.0000
  C   C577      1.0  0.02001  0.28332  0.67566  1.0000
  H   H458      1.0  0.38548  0.26755  0.77563  1.0000
  C   C578      1.0  0.31036  0.24342  0.66863  1.0000
  S   S85       1.0  0.09988  0.26949  0.67757  1.0000
  H   H459      1.0  0.18433  0.45978  0.74982  1.0000
  C   C579      1.0  0.18400  0.41335  0.77365  1.0000
  C   C580      1.0  0.47307  0.32491  0.94093  1.0000
  H   H460      1.0  0.20158  0.25225  0.78609  1.0000
  C   C581      1.0  0.38872  0.26310  0.76159  1.0000
  H   H461      1.0  0.19881  0.24863  0.67355  1.0000
  C   C582      1.0  0.37823  0.25021  0.93122  1.0000
  C   C583      1.0  0.20956  0.41578  0.83526  1.0000
  C   C584      1.0  0.32779  0.31493  0.84874  1.0000
  C   C585      1.0  0.20137  0.46533  0.68326  1.0000
  C   C586      1.0  0.21173  0.27756  0.87870  1.0000
  C   C587      1.0  0.01263  0.30132  0.72243  1.0000
  H   H462      1.0  0.27116  0.27126  0.74962  1.0000
  H   H463      1.0  0.47464  0.25283  0.72726  1.0000
  H   H464      1.0  0.29375  0.26684  0.68270  1.0000
  H   H465      1.0  0.42423  0.31489  0.83555  1.0000
  H   H466      1.0  0.29479  0.33291  0.94737  1.0000
  H   H467      1.0  0.16327  0.41518  0.75493  1.0000
  C   C588      1.0  0.17676  0.38581  0.76327  1.0000
  H   H468      1.0  0.16802  0.23751  0.87046  1.0000
  C   C589      1.0  0.00385  0.35875  0.68504  1.0000
  H   H469      1.0  0.20580  0.31200  0.89425  1.0000
  H   H470      1.0  0.17843  0.47802  0.80052  1.0000
  H   H471      1.0  0.08056  0.34446  0.70494  1.0000
  H   H472      1.0  0.33169  0.30194  0.82327  1.0000
  C   C590      1.0  0.17363  0.40569  0.76321  1.0000
  C   C591      1.0  0.19014  0.37360  0.77389  1.0000
  C   C592      1.0  0.19862  0.23763  0.86699  1.0000
  C   C593      1.0  0.18375  0.23938  0.92832  1.0000
  H   H473      1.0  0.42726  0.29655  0.88001  1.0000
  H   H474      1.0  0.21078  0.37150  0.79258  1.0000
  H   H475      1.0  0.15851  0.37094  0.66344  1.0000
  C   C594      1.0  0.25072  0.40556  0.80119  1.0000
  H   H476      1.0  0.22454  0.28006  0.84859  1.0000
  C   C595      1.0  0.24523  0.26531  0.86700  1.0000
  C   C596      1.0  0.27180  0.48285  0.78110  1.0000
  H   H477      1.0  0.13937  0.25391  0.90181  1.0000
  H   H478      1.0  0.01789  0.38566  0.72158  1.0000
  H   H479      1.0  0.15065  0.46129  0.76720  1.0000
  C   C597      1.0  0.27298  0.25280  0.72893  1.0000
  C   C598      1.0  0.44353  0.34640  0.95041  1.0000
  C   C599      1.0  0.33388  0.31402  0.86634  1.0000
  C   C600      1.0  0.23743  0.40188  0.79087  1.0000
  H   H480      1.0  0.28399  0.25959  0.71871  1.0000
  C   C601      1.0  0.33670  0.30143  0.83675  1.0000
  C   C602      1.0  0.21661  0.27272  0.97469  1.0000
  C   C603      1.0  0.43660  0.43328  0.92201  1.0000
  H   H481      1.0  0.08594  0.40451  0.68826  1.0000
  H   H482      1.0  0.16086  0.27737  0.89965  1.0000
  C   C604      1.0  0.19770  0.40118  0.78416  1.0000
  C   C605      1.0  0.30381  0.26286  0.67010  1.0000
  C   C606      1.0  0.08878  0.28004  0.65729  1.0000
  H   H483      1.0  0.18130  0.42875  0.77336  1.0000
  H   H484      1.0  0.28028  0.23963  0.78234  1.0000
  H   H485      1.0  0.21750  0.42759  0.82947  1.0000
  H   H486      1.0  0.19501  0.31672  0.67767  1.0000
  H   H487      1.0  0.10585  0.33658  0.67742  1.0000
  C   C607      1.0  0.03711  0.40484  0.72259  1.0000
  H   H488      1.0  0.01064  0.29535  0.68144  1.0000
  C   C608      1.0  0.27052  0.39903  0.79620  1.0000
  H   H489      1.0  0.04434  0.37966  0.67411  1.0000
  C   C609      1.0  0.10158  0.35145  0.67970  1.0000
  C   C610      1.0  0.21582  0.28897  0.64879  1.0000
  H   H490      1.0  0.27845  0.45408  0.79729  1.0000
  C   C611      1.0  0.15253  0.32564  0.66038  1.0000
  C   C612      1.0  0.23309  0.26132  0.90139  1.0000
  Fe  Fe47      1.0  0.17077  0.25037  0.65366  1.0000
  H   H491      1.0  0.13729  0.25275  0.72220  1.0000
  C   C613      1.0  0.03984  0.25991  0.72657  1.0000
  H   H492      1.0  0.24669  0.47196  0.81718  1.0000
  H   H493      1.0  0.19757  0.25227  0.85916  1.0000
  H   H494      1.0  0.04426  0.23806  0.68907  1.0000
  C   C614      1.0  0.20444  0.40532  0.82293  1.0000
  C   C615      1.0  0.16903  0.31518  0.66757  1.0000
  H   H495      1.0  0.18152  0.37334  0.85737  1.0000
  C   C616      1.0  0.15366  0.46200  0.75166  1.0000
  C   C617      1.0  0.27728  0.38866  0.78094  1.0000
  P   P19       1.0  0.19513  0.27558  0.91742  1.0000
  C   C618      1.0  0.19337  0.44889  0.79934  1.0000
  C   C619      1.0  0.30277  0.31529  0.92503  1.0000
  C   C620      1.0  0.22012  0.44514  0.77289  1.0000
  C   C621      1.0  0.20851  0.43692  0.78950  1.0000
  H   H496      1.0  0.18385  0.44282  0.81185  1.0000
  C   C622      1.0  0.03630  0.25905  0.74674  1.0000
  C   C623      1.0  0.15292  0.32311  0.92066  1.0000
  C   C624      1.0  0.48225  0.34078  0.93261  1.0000
  C   C625      1.0  0.24445  0.39171  0.77533  1.0000
  C   C626      1.0  0.26424  0.38506  0.77049  1.0000
  H   H497      1.0  0.26238  0.25101  0.88895  1.0000
  C   C627      1.0  0.18081  0.33371  0.89911  1.0000
  C   C628      1.0  0.41515  0.24919  0.79456  1.0000
  C   C629      1.0  0.16300  0.30420  0.92309  1.0000
  H   H498      1.0  0.19156  0.39138  0.87885  1.0000
  C   C630      1.0  0.12622  0.24607  0.77130  1.0000
  C   C631      1.0  0.28957  0.25301  0.92050  1.0000
  S   S86       1.0  0.16388  0.42845  0.68067  1.0000
  C   C632      1.0  0.19479  0.39550  0.86330  1.0000
  H   H499      1.0  0.23479  0.38863  0.76696  1.0000
  H   H500      1.0  0.34684  0.47262  0.80203  1.0000
  H   H501      1.0  0.18989  0.38159  0.82228  1.0000
  H   H502      1.0  0.39087  0.23656  0.81202  1.0000
  H   H503      1.0  0.05618  0.42558  0.71921  1.0000
  C   C633      1.0  0.17787  0.34487  0.67150  1.0000
  H   H504      1.0  0.35162  0.24902  0.76456  1.0000
  C   C634      1.0  0.20370  0.27383  0.93987  1.0000
  C   C635      1.0  0.17967  0.25824  0.91826  1.0000
  H   H505      1.0  0.35875  0.27674  0.83280  1.0000
  C   C636      1.0  0.35198  0.28721  0.84217  1.0000
  C   C637      1.0  0.32314  0.23841  0.65226  1.0000
  H   H506      1.0  0.28801  0.31369  0.92498  1.0000
  C   C638      1.0  0.05170  0.25586  0.75698  1.0000
  P   P20       1.0  0.41831  0.23506  0.77555  1.0000
  H   H507      1.0  0.19764  0.28495  0.87575  1.0000
  C   C639      1.0  0.15494  0.23364  0.74156  1.0000
  C   C640      1.0  0.02480  0.28444  0.65560  1.0000
  H   H508      1.0  0.13819  0.32633  0.92807  1.0000
  H   H509      1.0  0.42442  0.44502  0.92191  1.0000
  H   H510      1.0  0.23578  0.30256  0.65836  1.0000
  S   S87       1.0  0.31929  0.46872  0.89936  1.0000
  C   C641      1.0  0.21457  0.43918  0.71752  1.0000
  C   C642      1.0  0.01253  0.33989  0.68293  1.0000
  C   C643      1.0  0.20028  0.26470  0.97480  1.0000
  H   H511      1.0  0.25715  0.26358  0.85513  1.0000
  C   C644      1.0  0.41202  0.32484  0.88409  1.0000
  C   C645      1.0  0.27416  0.46261  0.78406  1.0000
  C   C646      1.0  0.24442  0.41863  0.72518  1.0000
  C   C647      1.0  0.36197  0.27331  0.90732  1.0000
  C   C648      1.0  0.18190  0.32482  0.67273  1.0000
  H   H512      1.0  0.18065  0.25976  0.95795  1.0000
  H   H513      1.0  0.15599  0.29298  0.93268  1.0000
  H   H514      1.0  0.14276  0.31781  0.65656  1.0000
  S   S88       1.0  0.38096  0.25299  0.67622  1.0000
  C   C649      1.0  0.24821  0.25836  0.88603  1.0000
  S   S89       1.0  0.26981  0.32126  0.66563  1.0000
  H   H515      1.0  0.20978  0.39154  0.72773  1.0000
  C   C650      1.0  0.21965  0.28242  0.94000  1.0000
  C   C651      1.0  0.19016  0.46883  0.79289  1.0000
  H   H516      1.0  0.38210  0.29302  0.66732  1.0000
  C   C652      1.0  0.20960  0.38527  0.67633  1.0000
  H   H517      1.0  0.30529  0.29223  0.65700  1.0000
  C   C653      1.0  0.20721  0.44949  0.67343  1.0000
  C   C654      1.0  0.08725  0.35587  0.69530  1.0000
  C   C655      1.0  0.09035  0.38963  0.68600  1.0000
  C   C656      1.0  0.33384  0.30634  0.68226  1.0000
  C   C657      1.0  0.30661  0.32604  0.93768  1.0000
  C   C658      1.0  0.29342  0.25394  0.79854  1.0000
  H   H518      1.0  0.36321  0.33758  0.89312  1.0000
  H   H519      1.0  0.22570  0.47139  0.75358  1.0000
  H   H520      1.0  0.37193  0.27425  0.71867  1.0000
  H   H521      1.0  0.22698  0.28983  0.92670  1.0000
  C   C659      1.0  0.34870  0.29926  0.87231  1.0000
  C   C660      1.0  0.30120  0.24824  0.90344  1.0000
  C   C661      1.0  0.41322  0.30540  0.88305  1.0000
  H   H522      1.0  0.31466  0.29791  0.90301  1.0000
  H   H523      1.0  0.39313  0.35154  0.88820  1.0000
  C   C662      1.0  0.35811  0.28622  0.85981  1.0000
  H   H524      1.0  0.19620  0.23507  0.93558  1.0000
  C   C663      1.0  0.34091  0.31895  0.92535  1.0000
  H   H525      1.0  0.19118  0.39967  0.69859  1.0000
  C   C664      1.0  0.18258  0.41130  0.67092  1.0000
  H   H526      1.0  0.36992  0.27505  0.86388  1.0000
  C   C665      1.0  0.16181  0.33786  0.90863  1.0000
  H   H527      1.0  0.07039  0.37842  0.71037  1.0000
  C   C666      1.0  0.22689  0.27463  0.86333  1.0000
  C   C667      1.0  0.20555  0.27352  0.65286  1.0000
  H   H528      1.0  0.15395  0.35249  0.90657  1.0000
  H   H529      1.0  0.18758  0.34511  0.88959  1.0000
  C   C668      1.0  0.02706  0.26666  0.68795  1.0000
  H   H530      1.0  0.31235  0.47026  0.81144  1.0000
  S   S90       1.0  0.14801  0.48093  0.65201  1.0000
  C   C669      1.0  0.37705  0.32842  0.89049  1.0000
  C   C670      1.0  0.39395  0.33640  0.88765  1.0000
  C   C671      1.0  0.19370  0.26543  0.95748  1.0000
  C   C672      1.0  0.31795  0.30651  0.91242  1.0000
  P   P21       1.0  0.01951  0.26412  0.71381  1.0000
  C   C673      1.0  0.14227  0.46491  0.72141  1.0000
  H   H531      1.0  0.25778  0.45544  0.87548  1.0000
  C   C674      1.0  0.25051  0.46270  0.84678  1.0000
  C   C675      1.0  0.39638  0.29733  0.88602  1.0000
  P   P22       1.0  0.35648  0.29786  0.89519  1.0000
  H   H532      1.0  0.29257  0.38314  0.77737  1.0000
  C   C676      1.0  0.37813  0.30870  0.89025  1.0000
  C   C677      1.0  0.33708  0.30891  0.91195  1.0000
  H   H533      1.0  0.37987  0.28040  0.92518  1.0000
  Fe  Fe48      1.0  0.14456  0.44988  0.66197  1.0000
  H   H534      1.0  0.35722  0.32208  0.66970  1.0000
  H   H535      1.0  0.41690  0.24372  0.91049  1.0000
  H   H536      1.0  0.24400  0.38794  0.73109  1.0000
  C   C678      1.0  0.04400  0.34966  0.67495  1.0000
  C   C679      1.0  0.21684  0.46509  0.76647  1.0000
  H   H537      1.0  0.13051  0.46642  0.71342  1.0000
  H   H538      1.0  0.28056  0.40178  0.80441  1.0000
  C   C680      1.0  0.22620  0.28170  0.95730  1.0000
  C   C681      1.0  0.20583  0.42267  0.72065  1.0000
  C   C682      1.0  0.03884  0.25114  0.67986  1.0000
  H   H539      1.0  0.11156  0.39684  0.66130  1.0000
  H   H540      1.0  0.19100  0.42394  0.71852  1.0000
  H   H541      1.0  0.44022  0.23669  0.84207  1.0000
  S   S91       1.0  0.08166  0.43688  0.65336  1.0000
  C   C683      1.0  0.05904  0.25823  0.71677  1.0000
  P   P23       1.0  0.20117  0.46250  0.70896  1.0000
  C   C684      1.0  0.17656  0.46296  0.72156  1.0000
  C   C685      1.0  0.20676  0.45195  0.65364  1.0000
  H   H542      1.0  0.06289  0.40408  0.65885  1.0000
  S   S92       1.0  0.34408  0.24539  0.80632  1.0000
  H   H543      1.0  0.43992  0.25518  0.74035  1.0000
  C   C686      1.0  0.42179  0.24256  0.89542  1.0000
  S   S93       1.0  0.23339  0.36747  0.64762  1.0000
  H   H544      1.0  0.43960  0.43328  0.95131  1.0000
  C   C687      1.0  0.26561  0.23799  0.72426  1.0000
  H   H545      1.0  0.05330  0.24063  0.65360  1.0000
  C   C688      1.0  0.04379  0.25242  0.65981  1.0000
  C   C689      1.0  0.24365  0.23618  0.75480  1.0000
  H   H546      1.0  0.27114  0.28535  0.64999  1.0000
  C   C690      1.0  0.45367  0.32769  0.94967  1.0000
  H   H547      1.0  0.44649  0.31535  0.95571  1.0000
  H   H548      1.0  0.28489  0.47410  0.86728  1.0000
  C   C691      1.0  0.43500  0.23835  0.85698  1.0000
  H   H549      1.0  0.04894  0.25499  0.77256  1.0000
  C   C692      1.0  0.00062  0.41287  0.66168  1.0000
  C   C693      1.0  0.18637  0.41000  0.65124  1.0000
  C   C694      1.0  0.27091  0.48258  0.82306  1.0000
  H   H550      1.0  0.08922  0.25351  0.71947  1.0000
  H   H551      1.0  0.23702  0.47678  0.69096  1.0000
  C   C695      1.0  0.31665  0.48183  0.80017  1.0000
  C   C696      1.0  0.21155  0.48241  0.71246  1.0000
  C   C697      1.0  0.37075  0.23539  0.92675  1.0000
  C   C698      1.0  0.07441  0.25499  0.72710  1.0000
  H   H552      1.0  0.44469  0.37660  0.94354  1.0000
  C   C699      1.0  0.07074  0.25369  0.74719  1.0000
  S   S94       1.0  0.35587  0.23676  0.85946  1.0000
  C   C700      1.0  0.99211  0.24317  0.70973  1.0000
  C   C701      1.0  0.35867  0.23951  0.91284  1.0000
  H   H553      1.0  0.22932  0.23357  0.86504  1.0000
  H   H554      1.0  0.29025  0.24298  0.93391  1.0000
  H   H555      1.0  0.42842  0.34860  0.95700  1.0000
  H   H556      1.0  0.30708  0.24424  0.79681  1.0000
  H   H557      1.0  0.46613  0.40534  0.95216  1.0000
  S   S95       1.0  0.33140  0.48098  0.84700  1.0000
  P   P24       1.0  0.12868  0.35985  0.64708  1.0000
  C   C702      1.0  0.03664  0.26899  0.64769  1.0000
  Fe  Fe49      1.0  0.10810  0.60131  0.27970  1.0000
  H   H558      1.0  0.19419  0.70145  0.13938  1.0000
  S   S96       1.0  0.35257  0.62957  0.98359  1.0000
  Fe  Fe50      1.0  0.12651  0.61383  0.23789  1.0000
  S   S97       1.0  0.13720  0.63851  0.24483  1.0000
  S   S98       1.0  0.12999  0.60567  0.20847  1.0000
  P   P25       1.0  0.38595  0.62273  0.08342  1.0000
  Fe  Fe51      1.0  0.10824  0.64367  0.26386  1.0000
  S   S99       1.0  0.08945  0.67286  0.26463  1.0000
  S   S100      1.0  0.13707  0.59227  0.26231  1.0000
  S   S101      1.0  0.09656  0.62080  0.25458  1.0000
  S   S102      1.0  0.46034  0.64325  0.13466  1.0000
  H   H559      1.0  0.29400  0.56130  0.14848  1.0000
  Fe  Fe52      1.0  0.39570  0.62822  0.23178  1.0000
  S   S103      1.0  0.38297  0.65902  0.22173  1.0000
  S   S104      1.0  0.42648  0.61455  0.22171  1.0000
  Fe  Fe53      1.0  0.35833  0.62009  0.25928  1.0000
  S   S105      1.0  0.34290  0.65021  0.25166  1.0000
  H   H560      1.0  0.42534  0.68220  0.09047  1.0000
  Fe  Fe54      1.0  0.35645  0.64679  0.22123  1.0000
  S   S106      1.0  0.33857  0.65713  0.19751  1.0000
  Fe  Fe55      1.0  0.37092  0.65923  0.25305  1.0000
  S   S107      1.0  0.37085  0.68252  0.26997  1.0000
  S   S108      1.0  0.37019  0.61605  0.22857  1.0000
  S   S109      1.0  0.38533  0.62919  0.26334  1.0000
  Fe  Fe56      1.0  0.40539  0.57781  0.01133  1.0000
  S   S110      1.0  0.37887  0.59695  0.02333  1.0000
  S   S111      1.0  0.43479  0.57284  0.02112  1.0000
  C   C703      1.0  0.32213  0.67876  0.11279  1.0000
  C   C704      1.0  0.29019  0.52095  0.04241  1.0000
  H   H561      1.0  0.40622  0.58173  0.23161  1.0000
  Fe  Fe57      1.0  0.36476  0.57075  0.03007  1.0000
  S   S112      1.0  0.34828  0.56448  0.06028  1.0000
  S   S113      1.0  0.39170  0.55108  0.01972  1.0000
  Fe  Fe58      1.0  0.26584  0.62891  0.11419  1.0000
  S   S114      1.0  0.27561  0.64337  0.13466  1.0000
  S   S115      1.0  0.28105  0.63225  0.08310  1.0000
  Fe  Fe59      1.0  0.23268  0.61528  0.14490  1.0000
  S   S116      1.0  0.24003  0.62843  0.16775  1.0000
  S   S117      1.0  0.20896  0.59766  0.14928  1.0000
  Fe  Fe60      1.0  0.24399  0.65354  0.14385  1.0000
  S   S118      1.0  0.23094  0.68341  0.14927  1.0000
  Fe  Fe61      1.0  0.27083  0.61679  0.15634  1.0000
  S   S119      1.0  0.29287  0.60042  0.17481  1.0000
  S   S120      1.0  0.23440  0.64131  0.12165  1.0000
  S   S121      1.0  0.26325  0.60148  0.13521  1.0000
  C   C705      1.0  0.24659  0.69994  0.13893  1.0000
  H   H562      1.0  0.26317  0.68361  0.11716  1.0000
  C   C706      1.0  0.32988  0.58351  0.06659  1.0000
  C   C707      1.0  0.31933  0.58205  0.08539  1.0000
  C   C708      1.0  0.30433  0.59694  0.09061  1.0000
  C   C709      1.0  0.29979  0.61334  0.07703  1.0000
  C   C710      1.0  0.31026  0.61472  0.05819  1.0000
  C   C711      1.0  0.32533  0.59990  0.05298  1.0000
  H   H563      1.0  0.32275  0.56934  0.09592  1.0000
  H   H564      1.0  0.29627  0.59565  0.10512  1.0000
  H   H565      1.0  0.30668  0.62719  0.04753  1.0000
  H   H566      1.0  0.33328  0.60108  0.03838  1.0000
  C   C712      1.0  0.17352  0.66393  0.20267  1.0000
  H   H567      1.0  0.19690  0.64101  0.20938  1.0000
  C   C713      1.0  0.22611  0.58461  0.27827  1.0000
  C   C714      1.0  0.12903  0.71419  0.20204  1.0000
  C   C715      1.0  0.32576  0.64083  0.19225  1.0000
  C   C716      1.0  0.30975  0.64822  0.18298  1.0000
  C   C717      1.0  0.29934  0.63584  0.17811  1.0000
  C   C718      1.0  0.30505  0.61589  0.18223  1.0000
  C   C719      1.0  0.32108  0.60835  0.19156  1.0000
  C   C720      1.0  0.33144  0.62083  0.19658  1.0000
  H   H568      1.0  0.30515  0.66358  0.17984  1.0000
  H   H569      1.0  0.28678  0.64177  0.17128  1.0000
  H   H570      1.0  0.32553  0.59289  0.19482  1.0000
  H   H571      1.0  0.34383  0.61494  0.20364  1.0000
  C   C721      1.0  0.46365  0.61229  0.04591  1.0000
  C   C722      1.0  0.46867  0.59220  0.05002  1.0000
  C   C723      1.0  0.45947  0.58033  0.04257  1.0000
  C   C724      1.0  0.44447  0.58832  0.03182  1.0000
  C   C725      1.0  0.43862  0.60835  0.02876  1.0000
  C   C726      1.0  0.44846  0.62028  0.03540  1.0000
  C   C727      1.0  0.44608  0.72041  0.26921  1.0000
  H   H572      1.0  0.46417  0.56488  0.04491  1.0000
  H   H573      1.0  0.42711  0.61467  0.02055  1.0000
  H   H574      1.0  0.44456  0.63580  0.03206  1.0000
  C   C728      1.0  0.43589  0.62208  0.19739  1.0000
  C   C729      1.0  0.42606  0.63799  0.18653  1.0000
  C   C730      1.0  0.43410  0.64452  0.16747  1.0000
  C   C731      1.0  0.45156  0.63473  0.15884  1.0000
  C   C732      1.0  0.46142  0.61864  0.16953  1.0000
  C   C733      1.0  0.45364  0.61241  0.18891  1.0000
  H   H575      1.0  0.41235  0.64541  0.19285  1.0000
  H   H576      1.0  0.42656  0.65698  0.15919  1.0000
  H   H577      1.0  0.22928  0.71546  0.28908  1.0000
  C   C734      1.0  0.15239  0.60432  0.19265  1.0000
  C   C735      1.0  0.16718  0.61406  0.19393  1.0000
  C   C736      1.0  0.18462  0.61268  0.18044  1.0000
  C   C737      1.0  0.18732  0.60120  0.16603  1.0000
  C   C738      1.0  0.17245  0.59164  0.16489  1.0000
  C   C739      1.0  0.15507  0.59337  0.17793  1.0000
  H   H578      1.0  0.16509  0.62270  0.20519  1.0000
  H   H579      1.0  0.19600  0.62022  0.18133  1.0000
  H   H580      1.0  0.17438  0.58278  0.15384  1.0000
  H   H581      1.0  0.14371  0.58590  0.17678  1.0000
  C   C740      1.0  0.13180  0.69906  0.27225  1.0000
  C   C741      1.0  0.12103  0.68497  0.27147  1.0000
  C   C742      1.0  0.10258  0.69048  0.26648  1.0000
  C   C743      1.0  0.09474  0.71013  0.26260  1.0000
  H   H582      1.0  0.42095  0.60294  0.09982  1.0000
  H   H583      1.0  0.12707  0.66984  0.27455  1.0000
  H   H584      1.0  0.08043  0.71444  0.25877  1.0000
  C   C744      1.0  0.30569  0.59520  0.25020  1.0000
  C   C745      1.0  0.31270  0.61263  0.24437  1.0000
  C   C746      1.0  0.29995  0.62991  0.24085  1.0000
  C   C747      1.0  0.28006  0.62983  0.24341  1.0000
  C   C748      1.0  0.27282  0.61234  0.24947  1.0000
  C   C749      1.0  0.28585  0.59500  0.25255  1.0000
  P   P26       1.0  0.24711  0.61184  0.25367  1.0000
  C   C750      1.0  0.23387  0.63573  0.25595  1.0000
  C   C751      1.0  0.23998  0.60437  0.23380  1.0000
  C   C752      1.0  0.25380  0.59591  0.21969  1.0000
  C   C753      1.0  0.24787  0.58936  0.20500  1.0000
  C   C754      1.0  0.22819  0.59126  0.20422  1.0000
  C   C755      1.0  0.21439  0.59988  0.21806  1.0000
  C   C756      1.0  0.22025  0.60662  0.23264  1.0000
  H   H585      1.0  0.32662  0.60598  0.14738  1.0000
  H   H586      1.0  0.13905  0.66091  0.17394  1.0000
  C   C757      1.0  0.30712  0.73310  0.06442  1.0000
  H   H587      1.0  0.32806  0.61272  0.24271  1.0000
  H   H588      1.0  0.30558  0.64334  0.23622  1.0000
  H   H589      1.0  0.27052  0.64344  0.24086  1.0000
  H   H590      1.0  0.26913  0.59432  0.21987  1.0000
  H   H591      1.0  0.25858  0.58290  0.19410  1.0000
  H   H592      1.0  0.22361  0.58624  0.19278  1.0000
  H   H593      1.0  0.19911  0.60119  0.21761  1.0000
  H   H594      1.0  0.20930  0.61300  0.24340  1.0000
  H   H595      1.0  0.23878  0.64641  0.22517  1.0000
  H   H596      1.0  0.17284  0.70620  0.11491  1.0000
  C   C758      1.0  0.13804  0.72437  0.21151  1.0000
  H   H597      1.0  0.48472  0.54699  0.13915  1.0000
  H   H598      1.0  0.20721  0.66214  0.28972  1.0000
  C   C759      1.0  0.37718  0.69083  0.04474  1.0000
  H   H599      1.0  0.31598  0.72500  0.25039  1.0000
  H   H600      1.0  0.31564  0.52364  0.02068  1.0000
  C   C760      1.0  0.37004  0.57081  0.16012  1.0000
  P   P27       1.0  0.40587  0.57866  0.16333  1.0000
  C   C761      1.0  0.33922  0.60190  0.11835  1.0000
  C   C762      1.0  0.18931  0.72449  0.24753  1.0000
  C   C763      1.0  0.17880  0.70138  0.14394  1.0000
  H   H601      1.0  0.41242  0.59329  0.19648  1.0000
  C   C764      1.0  0.40468  0.71948  0.23538  1.0000
  C   C765      1.0  0.41867  0.64015  0.07966  1.0000
  C   C766      1.0  0.42823  0.65476  0.08142  1.0000
  C   C767      1.0  0.35159  0.64106  0.04129  1.0000
  C   C768      1.0  0.36497  0.64626  0.02492  1.0000
  C   C769      1.0  0.38444  0.64440  0.02639  1.0000
  C   C770      1.0  0.39056  0.63712  0.04419  1.0000
  H   H602      1.0  0.42706  0.62814  0.07303  1.0000
  H   H603      1.0  0.44379  0.65346  0.07676  1.0000
  H   H604      1.0  0.33658  0.64210  0.04000  1.0000
  H   H605      1.0  0.36034  0.65127  0.01099  1.0000
  H   H606      1.0  0.39486  0.64820  0.01365  1.0000
  C   C771      1.0  0.15135  0.69720  0.16960  1.0000
  S   S122      1.0  0.11766  0.62464  0.29042  1.0000
  H   H607      1.0  0.14961  0.71296  0.03346  1.0000
  H   H608      1.0  0.47531  0.67609  0.15558  1.0000
  H   H609      1.0  0.22105  0.49243  0.12797  1.0000
  C   C772      1.0  0.19488  0.72368  0.02900  1.0000
  H   H610      1.0  0.10322  0.71454  0.19034  1.0000
  C   C773      1.0  0.28572  0.55373  0.12397  1.0000
  H   H611      1.0  0.40578  0.63542  0.04499  1.0000
  C   C774      1.0  0.22936  0.69707  0.03381  1.0000
  C   C775      1.0  0.23605  0.70049  0.04979  1.0000
  C   C776      1.0  0.24212  0.68507  0.06381  1.0000
  C   C777      1.0  0.24130  0.66620  0.06211  1.0000
  C   C778      1.0  0.23451  0.66268  0.04634  1.0000
  C   C779      1.0  0.22840  0.67807  0.03230  1.0000
  H   H612      1.0  0.04630  0.66369  0.25875  1.0000
  Fe  Fe62      1.0  0.48546  0.62580  0.11789  1.0000
  C   C780      1.0  0.28000  0.52582  0.06008  1.0000
  H   H613      1.0  0.40611  0.56051  0.05973  1.0000
  C   C781      1.0  0.20492  0.72508  0.23234  1.0000
  S   S123      1.0  0.34485  0.59573  0.27873  1.0000
  C   C782      1.0  0.47603  0.71764  0.18486  1.0000
  H   H614      1.0  0.17508  0.66131  0.18800  1.0000
  H   H615      1.0  0.32361  0.70454  0.09206  1.0000
  C   C783      1.0  0.36360  0.56010  0.13233  1.0000
  H   H616      1.0  0.47645  0.57898  0.14945  1.0000
  C   C784      1.0  0.17114  0.69802  0.16364  1.0000
  C   C785      1.0  0.26178  0.73106  0.30847  1.0000
  H   H617      1.0  0.24714  0.68768  0.07625  1.0000
  H   H618      1.0  0.24571  0.65431  0.07316  1.0000
  H   H619      1.0  0.23365  0.64803  0.04523  1.0000
  C   C786      1.0  0.31836  0.67076  0.00852  1.0000
  C   C787      1.0  0.22520  0.64047  0.27414  1.0000
  C   C788      1.0  0.38717  0.61563  0.16913  1.0000
  C   C789      1.0  0.31178  0.61689  0.29750  1.0000
  H   H620      1.0  0.41009  0.56738  0.12536  1.0000
  C   C790      1.0  0.03320  0.70747  0.23194  1.0000
  C   C791      1.0  0.47023  0.64281  0.21450  1.0000
  H   H621      1.0  0.38959  0.68552  0.10013  1.0000
  H   H622      1.0  0.47209  0.70561  0.21540  1.0000
  C   C792      1.0  0.32750  0.69323  0.16003  1.0000
  H   H623      1.0  0.37053  0.70504  0.21734  1.0000
  H   H624      1.0  0.45425  0.68652  0.18927  1.0000
  C   C793      1.0  0.15636  0.68020  0.22920  1.0000
  C   C794      1.0  0.16870  0.66851  0.24131  1.0000
  C   C795      1.0  0.18323  0.65435  0.23421  1.0000
  H   H625      1.0  0.34231  0.56500  0.15759  1.0000
  H   H626      1.0  0.19885  0.71548  0.30927  1.0000
  H   H627      1.0  0.14431  0.69007  0.23533  1.0000
  H   H628      1.0  0.16636  0.66968  0.25649  1.0000
  H   H629      1.0  0.19202  0.64469  0.24397  1.0000
  C   C796      1.0  0.24937  0.49913  0.12687  1.0000
  C   C797      1.0  0.12421  0.71870  0.26791  1.0000
  H   H630      1.0  0.04065  0.58467  0.28132  1.0000
  C   C798      1.0  0.43084  0.56848  0.15574  1.0000
  C   C799      1.0  0.41767  0.59398  0.09083  1.0000
  C   C800      1.0  0.15736  0.73152  0.04989  1.0000
  C   C801      1.0  0.32526  0.70188  0.21154  1.0000
  C   C802      1.0  0.24124  0.60618  0.08311  1.0000
  C   C803      1.0  0.15882  0.67823  0.20970  1.0000
  S   S124      1.0  0.09323  0.57812  0.29954  1.0000
  C   C804      1.0  0.27838  0.70609  0.21399  1.0000
  C   C805      1.0  0.28117  0.69766  0.25396  1.0000
  C   C806      1.0  0.26155  0.69593  0.25959  1.0000
  C   C807      1.0  0.25581  0.68183  0.27507  1.0000
  H   H631      1.0  0.39072  0.54457  0.18684  1.0000
  C   C808      1.0  0.28907  0.67117  0.27963  1.0000
  C   C809      1.0  0.29492  0.68520  0.26417  1.0000
  H   H632      1.0  0.06572  0.61378  0.29556  1.0000
  H   H633      1.0  0.27643  0.50912  0.12288  1.0000
  C   C810      1.0  0.25783  0.69301  0.19093  1.0000
  C   C811      1.0  0.27044  0.67983  0.20172  1.0000
  C   C812      1.0  0.28079  0.68633  0.21309  1.0000
  C   C813      1.0  0.40158  0.59988  0.08130  1.0000
  H   H634      1.0  0.35375  0.69189  0.19702  1.0000
  H   H635      1.0  0.31823  0.69615  0.20241  1.0000
  C   C814      1.0  0.18581  0.65220  0.21484  1.0000
  H   H636      1.0  0.25076  0.70514  0.25170  1.0000
  C   C815      1.0  0.01856  0.67328  0.24891  1.0000
  C   C816      1.0  0.02662  0.61365  0.27204  1.0000
  H   H637      1.0  0.31311  0.52111  0.09658  1.0000
  H   H638      1.0  0.41234  0.68700  0.17171  1.0000
  C   C817      1.0  0.20773  0.72796  0.09266  1.0000
  H   H639      1.0  0.41342  0.71512  0.11266  1.0000
  H   H640      1.0  0.24980  0.68796  0.18212  1.0000
  H   H641      1.0  0.27208  0.66453  0.20136  1.0000
  H   H642      1.0  0.29035  0.67588  0.22155  1.0000
  H   H643      1.0  0.39282  0.66079  0.14537  1.0000
  H   H644      1.0  0.43529  0.55091  0.07539  1.0000
  H   H645      1.0  0.38127  0.70754  0.18117  1.0000
  C   C818      1.0  0.34200  0.70363  0.16026  1.0000
  C   C819      1.0  0.48439  0.61103  0.98710  1.0000
  H   H646      1.0  0.25317  0.48716  0.13809  1.0000
  C   C820      1.0  0.48483  0.68495  0.14567  1.0000
  H   H647      1.0  0.33124  0.67800  0.15912  1.0000
  H   H648      1.0  0.47998  0.67496  0.12081  1.0000
  C   C821      1.0  0.40577  0.69769  0.16085  1.0000
  C   C822      1.0  0.38869  0.72530  0.13295  1.0000
  C   C823      1.0  0.34424  0.71611  0.23493  1.0000
  H   H649      1.0  0.03882  0.72069  0.22552  1.0000
  H   H650      1.0  0.27802  0.65597  0.03663  1.0000
  C   C824      1.0  0.41487  0.69970  0.14155  1.0000
  C   C825      1.0  0.40633  0.71351  0.12761  1.0000
  C   C826      1.0  0.31657  0.66182  0.08284  1.0000
  H   H651      1.0  0.00521  0.62905  0.23145  1.0000
  H   H652      1.0  0.44210  0.65773  0.20923  1.0000
  C   C827      1.0  0.16244  0.64258  0.29938  1.0000
  C   C828      1.0  0.48518  0.59277  0.98232  1.0000
  C   C829      1.0  0.48117  0.71503  0.26375  1.0000
  S   S125      1.0  0.17500  0.61224  0.27947  1.0000
  H   H653      1.0  0.47493  0.61103  0.16286  1.0000
  H   H654      1.0  0.22248  0.67513  0.02060  1.0000
  Fe  Fe63      1.0  0.36976  0.60070  0.99433  1.0000
  H   H655      1.0  0.24876  0.69272  0.99369  1.0000
  H   H656      1.0  0.31469  0.65470  0.07157  1.0000
  C   C830      1.0  0.11330  0.64956  0.18775  1.0000
  C   C831      1.0  0.35150  0.62003  0.13689  1.0000
  H   H657      1.0  0.37251  0.65993  0.09677  1.0000
  C   C832      1.0  0.22182  0.66831  0.24098  1.0000
  H   H658      1.0  0.12383  0.70076  0.15992  1.0000
  H   H659      1.0  0.28064  0.58134  0.25715  1.0000
  H   H660      1.0  0.99296  0.68753  0.23664  1.0000
  C   C833      1.0  0.45744  0.65838  0.20662  1.0000
  H   H661      1.0  0.31568  0.58189  0.25320  1.0000
  H   H662      1.0  0.26515  0.65824  0.29678  1.0000
  H   H663      1.0  0.08363  0.66283  0.22799  1.0000
  S   S126      1.0  0.48182  0.60198  0.10353  1.0000
  C   C834      1.0  0.26583  0.71922  0.20292  1.0000
  H   H664      1.0  0.22047  0.67907  0.22812  1.0000
  C   C835      1.0  0.25760  0.52729  0.10379  1.0000
  C   C836      1.0  0.39725  0.58744  0.07050  1.0000
  H   H665      1.0  0.20485  0.71921  0.21953  1.0000
  H   H666      1.0  0.14614  0.69473  0.27602  1.0000
  C   C837      1.0  0.29491  0.67412  0.04432  1.0000
  C   C838      1.0  0.38027  0.70754  0.03148  1.0000
  H   H667      1.0  0.35285  0.68790  0.30758  1.0000
  C   C839      1.0  0.46440  0.67466  0.19539  1.0000
  C   C840      1.0  0.16119  0.71925  0.03619  1.0000
  S   S127      1.0  0.35363  0.57555  0.00196  1.0000
  H   H668      1.0  0.38417  0.53356  0.22207  1.0000
  P   P28       1.0  0.14126  0.69151  0.19485  1.0000
  H   H669      1.0  0.23374  0.62095  0.08127  1.0000
  C   C841      1.0  0.00734  0.68860  0.23838  1.0000
  H   H670      1.0  0.29698  0.69448  0.16041  1.0000
  C   C842      1.0  0.32259  0.59874  0.29472  1.0000
  H   H671      1.0  0.28867  0.72915  0.16233  1.0000
  C   C843      1.0  0.43571  0.54997  0.15066  1.0000
  Fe  Fe64      1.0  0.38207  0.55823  0.99064  1.0000
  H   H672      1.0  0.20416  0.68676  0.26044  1.0000
  C   C844      1.0  0.36450  0.72079  0.02558  1.0000
  H   H673      1.0  0.18078  0.69577  0.17408  1.0000
  H   H674      1.0  0.26342  0.61115  0.05838  1.0000
  C   C845      1.0  0.38391  0.63578  0.16461  1.0000
  C   C846      1.0  0.39512  0.64517  0.14860  1.0000
  C   C847      1.0  0.03729  0.67523  0.25067  1.0000
  H   H675      1.0  0.37283  0.64411  0.17372  1.0000
  C   C848      1.0  0.26167  0.69632  0.12364  1.0000
  H   H676      1.0  0.39819  0.69153  0.23426  1.0000
  H   H677      1.0  0.36473  0.57521  0.17412  1.0000
  C   C849      1.0  0.37722  0.63187  0.06075  1.0000
  C   C850      1.0  0.35760  0.63407  0.05919  1.0000
  C   C851      1.0  0.31601  0.54028  0.13544  1.0000
  C   C852      1.0  0.41780  0.67098  0.08904  1.0000
  H   H678      1.0  0.46390  0.69255  0.26812  1.0000
  C   C853      1.0  0.38423  0.70140  0.26090  1.0000
  C   C854      1.0  0.39603  0.70292  0.24272  1.0000
  C   C855      1.0  0.38812  0.65814  0.09283  1.0000
  H   H679      1.0  0.45879  0.52810  0.14046  1.0000
  H   H680      1.0  0.13754  0.70680  0.12523  1.0000
  C   C856      1.0  0.34240  0.70071  0.04641  1.0000
  H   H681      1.0  0.31694  0.62971  0.28921  1.0000
  C   C857      1.0  0.31448  0.71108  0.22670  1.0000
  C   C858      1.0  0.23216  0.64980  0.23935  1.0000
  C   C859      1.0  0.23946  0.53004  0.09799  1.0000
  H   H682      1.0  0.28601  0.67465  0.05843  1.0000
  C   C860      1.0  0.25174  0.59290  0.29102  1.0000
  H   H683      1.0  0.20995  0.56388  0.29711  1.0000
  H   H684      1.0  0.42854  0.69056  0.13741  1.0000
  C   C861      1.0  0.16675  0.70429  0.13012  1.0000
  H   H685      1.0  0.34684  0.63035  0.07154  1.0000
  C   C862      1.0  0.04084  0.59733  0.27012  1.0000
  C   C863      1.0  0.11040  0.72203  0.19781  1.0000
  H   H686      1.0  0.15256  0.71896  0.21450  1.0000
  C   C864      1.0  0.12652  0.66217  0.18522  1.0000
  C   C865      1.0  0.39862  0.64133  0.08607  1.0000
  S   S128      1.0  0.47730  0.62785  0.05171  1.0000
  C   C866      1.0  0.04200  0.63036  0.24181  1.0000
  H   H687      1.0  0.06775  0.61403  0.22759  1.0000
  H   H688      1.0  0.26071  0.71792  0.01322  1.0000
  C   C867      1.0  0.17994  0.71508  0.02599  1.0000
  C   C868      1.0  0.09527  0.66302  0.21572  1.0000
  C   C869      1.0  0.27462  0.70945  0.11650  1.0000
  H   H689      1.0  0.28573  0.70714  0.10422  1.0000
  P   P29       1.0  0.31811  0.69580  0.05546  1.0000
  C   C870      1.0  0.30486  0.54369  0.06159  1.0000
  H   H690      1.0  0.35495  0.59952  0.08989  1.0000
  C   C871      1.0  0.24427  0.71675  0.14671  1.0000
  C   C872      1.0  0.13920  0.70097  0.15562  1.0000
  H   H691      1.0  0.32557  0.53927  0.14571  1.0000
  H   H692      1.0  0.23224  0.71983  0.15808  1.0000
  C   C873      1.0  0.38945  0.57094  0.15140  1.0000
  H   H693      1.0  0.44274  0.57231  0.09532  1.0000
  H   H694      1.0  0.39490  0.71016  0.02569  1.0000
  C   C874      1.0  0.38201  0.71589  0.27203  1.0000
  C   C875      1.0  0.39772  0.67277  0.09456  1.0000
  C   C876      1.0  0.34561  0.71737  0.03295  1.0000
  C   C877      1.0  0.46374  0.70786  0.26716  1.0000
  C   C878      1.0  0.30770  0.52745  0.03434  1.0000
  P   P30       1.0  0.00891  0.65154  0.26055  1.0000
  C   C879      1.0  0.31136  0.68316  0.03889  1.0000
  H   H695      1.0  0.02184  0.66905  0.28883  1.0000
  C   C880      1.0  0.40963  0.63438  0.13705  1.0000
  H   H696      1.0  0.41344  0.72090  0.22115  1.0000
  C   C881      1.0  0.14690  0.70443  0.13595  1.0000
  H   H697      1.0  0.23606  0.71508  0.05169  1.0000
  C   C882      1.0  0.21434  0.65877  0.27566  1.0000
  C   C883      1.0  0.30825  0.70240  0.16094  1.0000
  H   H698      1.0  0.41878  0.64159  0.12497  1.0000
  H   H699      1.0  0.23542  0.54193  0.08679  1.0000
  C   C884      1.0  0.36698  0.61769  0.10372  1.0000
  C   C885      1.0  0.29822  0.55264  0.13703  1.0000
  C   C886      1.0  0.22181  0.57175  0.29535  1.0000
  C   C887      1.0  0.12382  0.67577  0.19757  1.0000
  C   C888      1.0  0.10836  0.67580  0.21313  1.0000
  H   H700      1.0  0.10666  0.68535  0.22354  1.0000
  H   H701      1.0  0.05892  0.69371  0.24380  1.0000
  Fe  Fe65      1.0  0.14569  0.61739  0.27066  1.0000
  C   C889      1.0  0.35389  0.60580  0.10272  1.0000
  H   H702      1.0  0.38738  0.55772  0.10872  1.0000
  H   H703      1.0  0.33511  0.51942  0.11951  1.0000
  C   C890      1.0  0.40604  0.58036  0.20184  1.0000
  C   C891      1.0  0.40926  0.56977  0.06859  1.0000
  H   H704      1.0  0.37668  0.63209  0.12301  1.0000
  H   H705      1.0  0.27182  0.56302  0.12574  1.0000
  H   H706      1.0  0.46472  0.63012  0.22301  1.0000
  C   C892      1.0  0.25788  0.60062  0.07019  1.0000
  C   C893      1.0  0.26958  0.66935  0.28498  1.0000
  C   C894      1.0  0.48738  0.68426  0.12591  1.0000
  C   C895      1.0  0.45507  0.54229  0.14457  1.0000
  H   H707      1.0  0.37827  0.60863  0.18158  1.0000
  C   C896      1.0  0.46971  0.55286  0.14392  1.0000
  C   C897      1.0  0.36608  0.62411  0.12124  1.0000
  C   C898      1.0  0.05614  0.61396  0.23991  1.0000
  C   C899      1.0  0.39548  0.56656  0.13267  1.0000
  C   C900      1.0  0.48425  0.67560  0.19216  1.0000
  C   C901      1.0  0.34545  0.69965  0.20827  1.0000
  C   C902      1.0  0.22634  0.51751  0.10669  1.0000
  H   H708      1.0  0.41244  0.62784  0.98752  1.0000
  C   C903      1.0  0.29029  0.66352  0.03196  1.0000
  H   H709      1.0  0.32861  0.54390  0.03777  1.0000
  C   C904      1.0  0.32133  0.52905  0.12075  1.0000
  C   C905      1.0  0.40187  0.60470  0.15772  1.0000
  C   C906      1.0  0.40124  0.57027  0.18905  1.0000
  H   H710      1.0  0.35627  0.67423  0.06219  1.0000
  C   C907      1.0  0.30143  0.71823  0.05780  1.0000
  C   C908      1.0  0.09772  0.64993  0.20302  1.0000
  H   H711      1.0  0.06703  0.58507  0.25304  1.0000
  C   C909      1.0  0.44571  0.57862  0.15583  1.0000
  C   C910      1.0  0.17614  0.62606  0.29666  1.0000
  C   C911      1.0  0.42567  0.56433  0.07747  1.0000
  C   C912      1.0  0.31847  0.68140  0.07926  1.0000
  C   C913      1.0  0.40264  0.57379  0.22177  1.0000
  C   C914      1.0  0.35834  0.68739  0.05214  1.0000
  H   H712      1.0  0.22176  0.59718  0.10893  1.0000
  H   H713      1.0  0.31021  0.68578  0.26001  1.0000
  C   C915      1.0  0.39378  0.55307  0.19643  1.0000
  H   H714      1.0  0.38461  0.59135  0.06349  1.0000
  H   H715      1.0  0.35071  0.62518  0.15033  1.0000
  C   C916      1.0  0.21266  0.67268  0.25912  1.0000
  H   H716      1.0  0.48042  0.58587  0.05796  1.0000
  H   H717      1.0  0.39166  0.55225  0.24455  1.0000
  H   H718      1.0  0.11574  0.63871  0.17853  1.0000
  C   C917      1.0  0.22081  0.71120  0.99345  1.0000
  C   C918      1.0  0.33791  0.60918  0.13531  1.0000
  H   H719      1.0  0.32901  0.59293  0.11753  1.0000
  H   H720      1.0  0.08809  0.63949  0.20544  1.0000
  C   C919      1.0  0.39451  0.55710  0.22906  1.0000
  C   C920      1.0  0.41282  0.61423  0.14142  1.0000
  H   H721      1.0  0.18270  0.70510  0.01584  1.0000
  H   H722      1.0  0.19400  0.72986  0.98746  1.0000
  H   H723      1.0  0.28107  0.57799  0.06307  1.0000
  H   H724      1.0  0.31921  0.65127  0.13085  1.0000
  C   C921      1.0  0.39022  0.54665  0.21639  1.0000
  H   H725      1.0  0.42461  0.54142  0.15143  1.0000
  C   C922      1.0  0.38817  0.70942  0.16620  1.0000
  H   H726      1.0  0.42411  0.60619  0.13224  1.0000
  C   C923      1.0  0.42990  0.57644  0.08858  1.0000
  H   H727      1.0  0.46127  0.60002  0.19729  1.0000
  C   C924      1.0  0.24120  0.59526  0.27586  1.0000
  C   C925      1.0  0.05570  0.59755  0.25418  1.0000
  H   H728      1.0  0.38942  0.68045  0.04917  1.0000
  C   C926      1.0  0.23589  0.72542  0.29414  1.0000
  C   C927      1.0  0.35492  0.70685  0.21986  1.0000
  C   C928      1.0  0.26792  0.58170  0.07297  1.0000
  C   C929      1.0  0.29106  0.54281  0.10895  1.0000
  C   C930      1.0  0.31696  0.65101  0.10134  1.0000
  C   C931      1.0  0.35727  0.56506  0.15076  1.0000
  C   C932      1.0  0.23703  0.69882  0.98564  1.0000
  C   C933      1.0  0.39039  0.73245  0.26466  1.0000
  C   C934      1.0  0.32180  0.68960  0.09431  1.0000
  C   C935      1.0  0.26252  0.51166  0.11821  1.0000
  H   H729      1.0  0.31074  0.55250  0.06881  1.0000
  C   C936      1.0  0.30885  0.53016  0.10765  1.0000
  H   H730      1.0  0.37347  0.71439  0.28631  1.0000
  H   H731      1.0  0.35364  0.55610  0.12482  1.0000
  C   C937      1.0  0.46503  0.57094  0.14971  1.0000
  C   C938      1.0  0.26125  0.56810  0.08865  1.0000
  C   C939      1.0  0.31501  0.53883  0.04394  1.0000
  H   H732      1.0  0.44240  0.59248  0.16061  1.0000
  H   H733      1.0  0.43135  0.54196  0.98364  1.0000
  H   H734      1.0  0.23927  0.56392  0.11416  1.0000
  H   H735      1.0  0.28455  0.51209  0.03495  1.0000
  H   H736      1.0  0.22658  0.63002  0.28717  1.0000
  C   C940      1.0  0.30213  0.66164  0.01417  1.0000
  H   H737      1.0  0.12933  0.57934  0.31131  1.0000
  H   H738      1.0  0.32386  0.68550  0.12442  1.0000
  C   C941      1.0  0.24451  0.57387  0.10160  1.0000
  C   C942      1.0  0.23454  0.59280  0.09876  1.0000
  C   C943      1.0  0.28731  0.53722  0.06985  1.0000
  H   H739      1.0  0.20618  0.71639  0.08570  1.0000
  S   S129      1.0  0.39773  0.58390  0.98126  1.0000
  P   P31       1.0  0.27437  0.54371  0.09271  1.0000
  H   H740      1.0  0.33575  0.68822  0.01604  1.0000
  H   H741      1.0  0.01539  0.61311  0.28465  1.0000
  H   H742      1.0  0.15081  0.64677  0.29102  1.0000
  C   C944      1.0  0.33736  0.72340  0.16141  1.0000
  H   H743      1.0  0.04264  0.64295  0.23062  1.0000
  H   H744      1.0  0.31470  0.63613  0.10409  1.0000
  H   H745      1.0  0.29904  0.65270  0.00497  1.0000
  C   C945      1.0  0.31956  0.65950  0.11637  1.0000
  C   C946      1.0  0.01463  0.70563  0.22999  1.0000
  H   H746      1.0  0.24070  0.68052  0.27941  1.0000
  H   H747      1.0  0.43256  0.71491  0.27155  1.0000
  H   H748      1.0  0.27735  0.70959  0.04929  1.0000
  C   C947      1.0  0.04453  0.69226  0.24222  1.0000
  C   C948      1.0  0.00992  0.66171  0.29613  1.0000
  C   C949      1.0  0.38264  0.56106  0.12321  1.0000
  H   H749      1.0  0.24555  0.72306  0.18363  1.0000
  H   H750      1.0  0.35673  0.69610  0.15942  1.0000
  H   H751      1.0  0.34069  0.72509  0.28426  1.0000
  C   C950      1.0  0.25555  0.71269  0.19159  1.0000
  H   H752      1.0  0.26324  0.60112  0.28985  1.0000
  C   C951      1.0  0.25308  0.71857  0.30165  1.0000
  H   H753      1.0  0.25946  0.70345  0.30280  1.0000
  C   C952      1.0  0.10557  0.72427  0.26331  1.0000
  C   C953      1.0  0.32409  0.71818  0.23839  1.0000
  H   H754      1.0  0.29977  0.66146  0.28722  1.0000
  C   C954      1.0  0.32288  0.68164  0.02070  1.0000
  C   C955      1.0  0.02728  0.63043  0.25807  1.0000
  P   P32       1.0  0.28855  0.71356  0.23195  1.0000
  H   H755      1.0  0.21732  0.58622  0.26726  1.0000
  P   P33       1.0  0.21941  0.71718  0.01712  1.0000
  H   H756      1.0  0.00590  0.71747  0.22198  1.0000
  H   H757      1.0  0.32783  0.66885  0.99491  1.0000
  H   H758      1.0  0.21229  0.51982  0.10231  1.0000
  H   H759      1.0  0.44155  0.60298  0.98988  1.0000
  H   H760      1.0  0.33357  0.72765  0.02802  1.0000
  H   H761      1.0  0.26651  0.52061  0.06601  1.0000
  C   C956      1.0  0.30351  0.72197  0.16216  1.0000
  C   C957      1.0  0.23127  0.50208  0.12115  1.0000
  C   C958      1.0  0.00079  0.65217  0.28607  1.0000
  C   C959      1.0  0.28237  0.72068  0.05421  1.0000
  C   C960      1.0  0.27302  0.72566  0.12519  1.0000
  H   H762      1.0  0.19242  0.73040  0.18094  1.0000
  C   C961      1.0  0.18620  0.72593  0.31303  1.0000
  H   H763      1.0  0.20165  0.60780  0.30560  1.0000
  C   C962      1.0  0.99124  0.63748  0.23583  1.0000
  C   C963      1.0  0.06967  0.58490  0.31162  1.0000
  H   H764      1.0  0.17709  0.71799  0.24671  1.0000
  C   C964      1.0  0.29457  0.61825  0.31133  1.0000
  C   C965      1.0  0.37955  0.72346  0.15234  1.0000
  H   H765      1.0  0.23882  0.72040  0.08981  1.0000
  C   C966      1.0  0.23256  0.56931  0.31018  1.0000
  C   C967      1.0  0.19114  0.62065  0.30754  1.0000
  C   C968      1.0  0.20625  0.71954  0.98226  1.0000
  H   H766      1.0  0.35165  0.72140  0.24409  1.0000
  C   C969      1.0  0.25791  0.72913  0.14045  1.0000
  H   H767      1.0  0.28869  0.71636  0.98322  1.0000
  C   C970      1.0  0.05916  0.60328  0.30665  1.0000
  H   H768      1.0  0.03144  0.62173  0.31102  1.0000
  H   H769      1.0  0.32400  0.56804  0.30318  1.0000
  C   C971      1.0  0.46804  0.71774  0.20444  1.0000
  C   C972      1.0  0.31582  0.58210  0.30527  1.0000
  C   C973      1.0  0.33642  0.66512  0.31160  1.0000
  C   C974      1.0  0.24755  0.57981  0.30797  1.0000
  C   C975      1.0  0.31798  0.73248  0.16221  1.0000
  H   H770      1.0  0.34844  0.65545  0.30493  1.0000
  C   C976      1.0  0.22609  0.73022  0.09487  1.0000
  C   C977      1.0  0.18912  0.73272  0.26372  1.0000
  H   H771      1.0  0.32154  0.73163  0.06764  1.0000
  C   C978      1.0  0.16410  0.65397  0.31260  1.0000
  H   H772      1.0  0.17667  0.73241  0.27510  1.0000
  C   C979      1.0  0.33889  0.68358  0.31315  1.0000
  C   C980      1.0  0.25317  0.73268  0.01201  1.0000
  H   H773      1.0  0.24104  0.67558  0.61599  1.0000
  Fe  Fe66      1.0  0.00260  0.56866  0.40889  1.0000
  H   H774      1.0  0.00636  0.51714  0.62017  1.0000
  S   S130      1.0  0.02850  0.56149  0.42518  1.0000
  H   H775      1.0  0.08080  0.63610  0.31797  1.0000
  S   S131      1.0  0.00620  0.59936  0.33846  1.0000
  S   S132      1.0  0.00594  0.55356  0.38314  1.0000
  C   C981      1.0  0.18189  0.69974  0.41357  1.0000
  Fe  Fe67      1.0  0.11462  0.57102  0.51150  1.0000
  S   S133      1.0  0.08727  0.58340  0.52926  1.0000
  S   S134      1.0  0.12950  0.53997  0.51760  1.0000
  Fe  Fe68      1.0  0.11642  0.60890  0.48290  1.0000
  S   S135      1.0  0.08945  0.62395  0.49941  1.0000
  S   S136      1.0  0.12797  0.62590  0.45417  1.0000
  Fe  Fe69      1.0  0.10216  0.60920  0.52607  1.0000
  S   S137      1.0  0.10470  0.61899  0.55394  1.0000
  Fe  Fe70      1.0  0.07757  0.59673  0.50060  1.0000
  S   S138      1.0  0.04789  0.59835  0.49231  1.0000
  S   S139      1.0  0.13001  0.59593  0.50922  1.0000
  S   S140      1.0  0.10399  0.58249  0.48311  1.0000
  Fe  Fe71      1.0  0.20875  0.65299  0.35227  1.0000
  S   S141      1.0  0.21816  0.62301  0.36711  1.0000
  S   S142      1.0  0.18193  0.66348  0.33895  1.0000
  Fe  Fe72      1.0  0.24250  0.66771  0.35971  1.0000
  S   S143      1.0  0.25518  0.63918  0.37548  1.0000
  S   S144      1.0  0.25630  0.69420  0.35120  1.0000
  Fe  Fe73      1.0  0.24809  0.62713  0.35162  1.0000
  S   S145      1.0  0.26707  0.60152  0.33995  1.0000
  Fe  Fe74      1.0  0.22441  0.63733  0.38977  1.0000
  S   S146      1.0  0.21717  0.62572  0.42169  1.0000
  S   S147      1.0  0.23788  0.65582  0.33462  1.0000
  S   S148      1.0  0.21246  0.66715  0.37620  1.0000
  S   S149      1.0  0.14548  0.67147  0.61720  1.0000
  S   S150      1.0  0.12853  0.69592  0.56827  1.0000
  C   C982      1.0  0.31857  0.65912  0.31873  1.0000
  Fe  Fe75      1.0  0.30192  0.69704  0.63490  1.0000
  H   H776      1.0  0.15352  0.59585  0.31879  1.0000
  Fe  Fe76      1.0  0.27498  0.73307  0.62005  1.0000
  H   H777      1.0  0.22923  0.55939  0.32345  1.0000
  H   H778      1.0  0.14808  0.54463  0.36642  1.0000
  C   C983      1.0  0.36402  0.70369  0.33417  1.0000
  C   C984      1.0  0.10304  0.54681  0.41144  1.0000
  C   C985      1.0  0.14779  0.70828  0.42591  1.0000
  C   C986      1.0  0.08191  0.53419  0.62043  1.0000
  H   H779      1.0  0.10342  0.49267  0.59658  1.0000
  S   S151      1.0  0.29949  0.71378  0.60505  1.0000
  C   C987      1.0  0.08007  0.52697  0.53867  1.0000
  H   H780      1.0  0.17152  0.62730  0.36208  1.0000
  C   C988      1.0  0.04870  0.50187  0.59166  1.0000
  C   C989      1.0  0.29884  0.71526  0.38202  1.0000
  C   C990      1.0  0.21299  0.69360  0.61866  1.0000
  C   C991      1.0  0.24345  0.70546  0.61423  1.0000
  S   S152      1.0  0.32285  0.71397  0.64063  1.0000
  C   C992      1.0  0.14515  0.68196  0.37179  1.0000
  C   C993      1.0  0.20304  0.71240  0.61954  1.0000
  C   C994      1.0  0.01670  0.48773  0.61575  1.0000
  H   H781      1.0  0.14600  0.51263  0.38711  1.0000
  C   C995      1.0  0.24249  0.70311  0.38762  1.0000
  C   C996      1.0  0.25149  0.70916  0.36874  1.0000
  C   C997      1.0  0.19077  0.62662  0.55987  1.0000
  H   H782      1.0  0.23850  0.68889  0.39165  1.0000
  C   C998      1.0  0.09103  0.61101  0.61865  1.0000
  C   C999      1.0  0.13366  0.52697  0.54062  1.0000
  C   C1000     1.0  0.14449  0.50837  0.54145  1.0000
  C   C1001     1.0  0.14909  0.49764  0.55904  1.0000
  C   C1002     1.0  0.14238  0.50500  0.57629  1.0000
  C   C1003     1.0  0.13101  0.52347  0.57568  1.0000
  C   C1004     1.0  0.12685  0.53455  0.55781  1.0000
  H   H783      1.0  0.14985  0.50238  0.52829  1.0000
  H   H784      1.0  0.20987  0.70222  0.34705  1.0000
  H   H785      1.0  0.12600  0.52946  0.58884  1.0000
  H   H786      1.0  0.11870  0.54901  0.55725  1.0000
  C   C1005     1.0  0.11189  0.64042  0.55707  1.0000
  C   C1006     1.0  0.11918  0.64035  0.57393  1.0000
  C   C1007     1.0  0.12425  0.65716  0.57754  1.0000
  C   C1008     1.0  0.12225  0.67434  0.56425  1.0000
  C   C1009     1.0  0.11525  0.67435  0.54721  1.0000
  C   C1010     1.0  0.10990  0.65756  0.54374  1.0000
  H   H787      1.0  0.12072  0.62725  0.58442  1.0000
  H   H788      1.0  0.12957  0.65679  0.59070  1.0000
  H   H789      1.0  0.11358  0.68751  0.53681  1.0000
  H   H790      1.0  0.10378  0.65800  0.53100  1.0000
  C   C1011     1.0  0.15291  0.62544  0.44580  1.0000
  C   C1012     1.0  0.15875  0.63510  0.42716  1.0000
  C   C1013     1.0  0.17841  0.63495  0.41954  1.0000
  C   C1014     1.0  0.19243  0.62552  0.43080  1.0000
  C   C1015     1.0  0.18666  0.61600  0.44961  1.0000
  C   C1016     1.0  0.16691  0.61589  0.45711  1.0000
  H   H791      1.0  0.14795  0.64255  0.41851  1.0000
  H   H792      1.0  0.18268  0.64227  0.40501  1.0000
  H   H793      1.0  0.19749  0.60850  0.45830  1.0000
  H   H794      1.0  0.16253  0.60841  0.47154  1.0000
  C   C1017     1.0  0.00398  0.66149  0.31600  1.0000
  C   C1018     1.0  0.06996  0.62779  0.44331  1.0000
  Fe  Fe77      1.0  0.14246  0.72456  0.62524  1.0000
  C   C1019     1.0  0.28814  0.60141  0.32213  1.0000
  C   C1020     1.0  0.07523  0.51696  0.36544  1.0000
  C   C1021     1.0  0.29872  0.58343  0.31878  1.0000
  Fe  Fe78      1.0  0.12689  0.68705  0.64023  1.0000
  C   C1022     1.0  0.21323  0.72777  0.61709  1.0000
  H   H795      1.0  0.01122  0.66863  0.32377  1.0000
  C   C1023     1.0  0.15251  0.58673  0.54971  1.0000
  C   C1024     1.0  0.27501  0.72853  0.47110  1.0000
  S   S153      1.0  0.99337  0.59824  0.39262  1.0000
  H   H796      1.0  0.13434  0.71842  0.42627  1.0000
  C   C1025     1.0  0.21438  0.73120  0.34560  1.0000
  H   H797      1.0  0.10792  0.63563  0.36644  1.0000
  H   H798      1.0  0.18157  0.70463  0.37314  1.0000
  P   P34       1.0  0.08331  0.66722  0.38451  1.0000
  C   C1026     1.0  0.12940  0.72791  0.38617  1.0000
  H   H799      1.0  0.13843  0.63978  0.37693  1.0000
  C   C1027     1.0  0.16267  0.57216  0.53943  1.0000
  C   C1028     1.0  0.03370  0.57260  0.44335  1.0000
  C   C1029     1.0  0.05207  0.56716  0.44900  1.0000
  C   C1030     1.0  0.05679  0.57524  0.46356  1.0000
  C   C1031     1.0  0.04307  0.58866  0.47295  1.0000
  C   C1032     1.0  0.02479  0.59426  0.46716  1.0000
  C   C1033     1.0  0.02017  0.58642  0.45235  1.0000
  H   H800      1.0  0.06265  0.55648  0.44218  1.0000
  H   H801      1.0  0.07086  0.57068  0.46788  1.0000
  H   H802      1.0  0.01404  0.60462  0.47428  1.0000
  H   H803      1.0  0.00599  0.59078  0.44822  1.0000
  H   H804      1.0  0.39292  0.69091  0.33906  1.0000
  C   C1034     1.0  0.03098  0.59399  0.32932  1.0000
  C   C1035     1.0  0.04183  0.57598  0.33503  1.0000
  C   C1036     1.0  0.31525  0.72478  0.34929  1.0000
  C   C1037     1.0  0.08016  0.64495  0.60754  1.0000
  H   H805      1.0  0.16969  0.63324  0.62418  1.0000
  C   C1038     1.0  0.09587  0.63420  0.34171  1.0000
  H   H806      1.0  0.19691  0.61222  0.55689  1.0000
  H   H807      1.0  0.07827  0.48439  0.54942  1.0000
  C   C1039     1.0  0.16474  0.61936  0.37535  1.0000
  S   S154      1.0  0.30119  0.66513  0.64322  1.0000
  H   H808      1.0  0.04638  0.52840  0.37828  1.0000
  H   H809      1.0  0.14943  0.61634  0.55299  1.0000
  H   H810      1.0  0.24169  0.53708  0.37939  1.0000
  H   H811      1.0  0.17374  0.52833  0.42826  1.0000
  H   H812      1.0  0.35797  0.69100  0.34168  1.0000
  C   C1040     1.0  0.19287  0.63167  0.57715  1.0000
  C   C1041     1.0  0.15347  0.54117  0.38003  1.0000
  C   C1042     1.0  0.12943  0.57627  0.61644  1.0000
  P   P35       1.0  0.17877  0.63330  0.52405  1.0000
  C   C1043     1.0  0.04800  0.68947  0.39722  1.0000
  C   C1044     1.0  0.18085  0.64007  0.54651  1.0000
  C   C1045     1.0  0.18285  0.59456  0.51951  1.0000
  C   C1046     1.0  0.11816  0.67130  0.39493  1.0000
  C   C1047     1.0  0.15971  0.51861  0.40899  1.0000
  C   C1048     1.0  0.16795  0.53217  0.41487  1.0000
  H   H813      1.0  0.14143  0.68806  0.34197  1.0000
  C   C1049     1.0  0.21428  0.55026  0.39393  1.0000
  C   C1050     1.0  0.16860  0.55051  0.40355  1.0000
  C   C1051     1.0  0.23883  0.71548  0.40135  1.0000
  C   C1052     1.0  0.23475  0.61247  0.64357  1.0000
  H   H814      1.0  0.25590  0.57784  0.31947  1.0000
  C   C1053     1.0  0.03852  0.72334  0.38478  1.0000
  H   H815      1.0  0.07250  0.65620  0.59794  1.0000
  H   H816      1.0  0.05491  0.55499  0.50457  1.0000
  H   H817      1.0  0.10374  0.72222  0.37846  1.0000
  H   H818      1.0  0.25874  0.56386  0.38006  1.0000
  H   H819      1.0  0.20637  0.59124  0.64387  1.0000
  H   H820      1.0  0.08330  0.70648  0.36219  1.0000
  C   C1054     1.0  0.17943  0.64877  0.32313  1.0000
  C   C1055     1.0  0.13991  0.54159  0.62103  1.0000
  C   C1056     1.0  0.16196  0.62466  0.63632  1.0000
  C   C1057     1.0  0.23065  0.69385  0.56798  1.0000
  C   C1058     1.0  0.25078  0.68938  0.56633  1.0000
  C   C1059     1.0  0.26228  0.70261  0.55529  1.0000
  C   C1060     1.0  0.11611  0.67923  0.36079  1.0000
  C   C1061     1.0  0.08073  0.62554  0.60661  1.0000
  H   H821      1.0  0.14200  0.72767  0.34168  1.0000
  H   H822      1.0  0.10739  0.63952  0.64263  1.0000
  H   H823      1.0  0.07100  0.50435  0.36233  1.0000
  S   S155      1.0  0.15194  0.49236  0.59721  1.0000
  H   H824      1.0  0.07350  0.62180  0.59626  1.0000
  C   C1062     1.0  0.08153  0.54505  0.58075  1.0000
  C   C1063     1.0  0.08896  0.49076  0.57333  1.0000
  C   C1064     1.0  0.07643  0.52718  0.59026  1.0000
  H   H825      1.0  0.18744  0.71519  0.62230  1.0000
  C   C1065     1.0  0.24361  0.56434  0.38650  1.0000
  C   C1066     1.0  0.06989  0.70630  0.37229  1.0000
  C   C1067     1.0  0.17786  0.57607  0.52438  1.0000
  H   H826      1.0  0.04430  0.67647  0.40670  1.0000
  H   H827      1.0  0.10847  0.68049  0.34883  1.0000
  H   H828      1.0  0.20634  0.71493  0.56074  1.0000
  C   C1068     1.0  0.01780  0.50737  0.61296  1.0000
  H   H829      1.0  0.22170  0.68370  0.57676  1.0000
  H   H830      1.0  0.25742  0.67577  0.57384  1.0000
  H   H831      1.0  0.27789  0.69914  0.55412  1.0000
  H   H832      1.0  0.26459  0.72623  0.44543  1.0000
  C   C1069     1.0  0.06952  0.62139  0.42626  1.0000
  C   C1070     1.0  0.10674  0.54298  0.43041  1.0000
  H   H833      1.0  0.29260  0.70445  0.39302  1.0000
  H   H834      1.0  0.16618  0.66388  0.44855  1.0000
  H   H835      1.0  0.05447  0.66168  0.32878  1.0000
  H   H836      1.0  0.20474  0.62792  0.32876  1.0000
  C   C1071     1.0  0.19285  0.63201  0.32072  1.0000
  P   P36       1.0  0.06980  0.51095  0.57723  1.0000
  C   C1072     1.0  0.08722  0.55178  0.61081  1.0000
  H   H837      1.0  0.20904  0.63126  0.63501  1.0000
  H   H838      1.0  0.14041  0.55982  0.59322  1.0000
  H   H839      1.0  0.18560  0.56477  0.51636  1.0000
  H   H840      1.0  0.16309  0.55842  0.49381  1.0000
  H   H841      1.0  0.13939  0.55245  0.47586  1.0000
  H   H842      1.0  0.14560  0.52841  0.61508  1.0000
  H   H843      1.0  0.10945  0.55517  0.45469  1.0000
  C   C1073     1.0  0.17254  0.65843  0.55105  1.0000
  H   H844      1.0  0.09166  0.56107  0.61872  1.0000
  C   C1074     1.0  0.17077  0.71961  0.32652  1.0000
  P   P37       1.0  0.11502  0.59738  0.64668  1.0000
  C   C1075     1.0  0.18249  0.68218  0.42635  1.0000
  H   H845      1.0  0.17184  0.70456  0.33308  1.0000
  C   C1076     1.0  0.07654  0.53797  0.52090  1.0000
  Fe  Fe79      1.0  0.13632  0.69839  0.59707  1.0000
  H   H846      1.0  0.19450  0.59728  0.50766  1.0000
  H   H847      1.0  0.26271  0.73068  0.53794  1.0000
  H   H848      1.0  0.19595  0.67202  0.42654  1.0000
  C   C1077     1.0  0.13693  0.55930  0.60873  1.0000
  C   C1078     1.0  0.06617  0.66321  0.35389  1.0000
  H   H849      1.0  0.29387  0.57036  0.32694  1.0000
  C   C1079     1.0  0.04571  0.53230  0.55118  1.0000
  H   H850      1.0  0.14071  0.59177  0.42345  1.0000
  H   H851      1.0  0.03454  0.52963  0.59921  1.0000
  C   C1080     1.0  0.07849  0.65143  0.40743  1.0000
  C   C1081     1.0  0.10717  0.55816  0.43979  1.0000
  H   H852      1.0  0.08854  0.54039  0.50929  1.0000
  C   C1082     1.0  0.14460  0.64394  0.50832  1.0000
  C   C1083     1.0  0.39187  0.71990  0.32320  1.0000
  H   H853      1.0  0.18663  0.65417  0.59460  1.0000
  C   C1084     1.0  0.10086  0.58103  0.41104  1.0000
  C   C1085     1.0  0.17278  0.60923  0.52991  1.0000
  C   C1086     1.0  0.16433  0.71265  0.41274  1.0000
  H   H854      1.0  0.15143  0.60185  0.35197  1.0000
  H   H855      1.0  0.11899  0.65177  0.49512  1.0000
  H   H856      1.0  0.10459  0.58896  0.43744  1.0000
  C   C1087     1.0  0.09976  0.56592  0.40170  1.0000
  P   P38       1.0  0.09288  0.57122  0.37796  1.0000
  C   C1088     1.0  0.07173  0.58980  0.37784  1.0000
  C   C1089     1.0  0.11230  0.57903  0.35943  1.0000
  C   C1090     1.0  0.11353  0.57601  0.34042  1.0000
  C   C1091     1.0  0.12847  0.58184  0.32594  1.0000
  C   C1092     1.0  0.14210  0.59113  0.33016  1.0000
  C   C1093     1.0  0.14086  0.59451  0.34893  1.0000
  C   C1094     1.0  0.12608  0.58846  0.36357  1.0000
  C   C1095     1.0  0.06703  0.60078  0.36037  1.0000
  C   C1096     1.0  0.04989  0.61420  0.36026  1.0000
  C   C1097     1.0  0.03731  0.61668  0.37751  1.0000
  C   C1098     1.0  0.04174  0.60559  0.39491  1.0000
  C   C1099     1.0  0.05879  0.59211  0.39506  1.0000
  C   C1100     1.0  0.08596  0.54997  0.37304  1.0000
  C   C1101     1.0  0.06664  0.54695  0.37818  1.0000
  C   C1102     1.0  0.06134  0.53053  0.37434  1.0000
  C   C1103     1.0  0.23342  0.72545  0.54857  1.0000
  C   C1104     1.0  0.09454  0.51965  0.36061  1.0000
  C   C1105     1.0  0.09994  0.53599  0.36455  1.0000
  C   C1106     1.0  0.03439  0.70645  0.39720  1.0000
  H   H857      1.0  0.10288  0.56918  0.33672  1.0000
  C   C1107     1.0  0.25674  0.72750  0.36361  1.0000
  C   C1108     1.0  0.17481  0.66346  0.56827  1.0000
  C   C1109     1.0  0.13156  0.65663  0.49762  1.0000
  H   H858      1.0  0.12554  0.59117  0.37797  1.0000
  H   H859      1.0  0.07621  0.59863  0.34675  1.0000
  H   H860      1.0  0.04602  0.62224  0.34671  1.0000
  H   H861      1.0  0.02377  0.62665  0.37729  1.0000
  H   H862      1.0  0.03158  0.60680  0.40824  1.0000
  H   H863      1.0  0.06140  0.58295  0.40854  1.0000
  H   H864      1.0  0.05554  0.55716  0.38518  1.0000
  H   H865      1.0  0.13544  0.68699  0.44816  1.0000
  H   H866      1.0  0.13261  0.71350  0.39397  1.0000
  H   H867      1.0  0.27483  0.72559  0.31464  1.0000
  H   H868      1.0  0.11497  0.53778  0.36080  1.0000
  C   C1110     1.0  0.16166  0.55475  0.38590  1.0000
  H   H869      1.0  0.27041  0.71532  0.47931  1.0000
  C   C1111     1.0  0.14841  0.69064  0.43857  1.0000
  H   H870      1.0  0.10874  0.52826  0.43804  1.0000
  Fe  Fe80      1.0  0.31809  0.73251  0.61201  1.0000
  C   C1112     1.0  0.07643  0.52198  0.61023  1.0000
  S   S156      1.0  0.16098  0.71252  0.59945  1.0000
  H   H871      1.0  0.27702  0.60297  0.61253  1.0000
  H   H872      1.0  0.12753  0.58990  0.60667  1.0000
  H   H873      1.0  0.28642  0.63217  0.31382  1.0000
  C   C1113     1.0  0.10017  0.63538  0.63252  1.0000
  C   C1114     1.0  0.15236  0.52315  0.39164  1.0000
  C   C1115     1.0  0.07412  0.64614  0.44257  1.0000
  H   H874      1.0  0.20709  0.53853  0.39331  1.0000
  H   H875      1.0  0.15905  0.50455  0.41790  1.0000
  C   C1116     1.0  0.20412  0.56636  0.40217  1.0000
  P   P39       1.0  0.17846  0.56845  0.41141  1.0000
  C   C1117     1.0  0.06604  0.65602  0.33714  1.0000
  H   H876      1.0  0.14028  0.58398  0.56092  1.0000
  C   C1118     1.0  0.32354  0.69612  0.32197  1.0000
  C   C1119     1.0  0.15269  0.55714  0.46800  1.0000
  S   S157      1.0  0.11670  0.71376  0.62007  1.0000
  H   H877      1.0  0.14572  0.55737  0.44023  1.0000
  C   C1120     1.0  0.16619  0.59170  0.40124  1.0000
  C   C1121     1.0  0.16615  0.56042  0.47815  1.0000
  H   H878      1.0  0.20072  0.57334  0.44053  1.0000
  C   C1122     1.0  0.26208  0.60889  0.61745  1.0000
  C   C1123     1.0  0.25115  0.62134  0.60446  1.0000
  C   C1124     1.0  0.23201  0.62923  0.61089  1.0000
  C   C1125     1.0  0.18343  0.56624  0.46809  1.0000
  H   H879      1.0  0.24117  0.59180  0.39546  1.0000
  C   C1126     1.0  0.23394  0.54934  0.38603  1.0000
  H   H880      1.0  0.18881  0.59634  0.37646  1.0000
  C   C1127     1.0  0.23370  0.58014  0.39509  1.0000
  C   C1128     1.0  0.13478  0.68369  0.35680  1.0000
  H   H881      1.0  0.15821  0.48363  0.55922  1.0000
  H   H882      1.0  0.16264  0.56849  0.37657  1.0000
  Fe  Fe81      1.0  0.16860  0.68660  0.62138  1.0000
  C   C1129     1.0  0.38381  0.70365  0.33283  1.0000
  H   H883      1.0  0.25762  0.62510  0.58948  1.0000
  H   H884      1.0  0.22366  0.63934  0.60101  1.0000
  H   H885      1.0  0.07335  0.62785  0.39531  1.0000
  H   H886      1.0  0.16827  0.67763  0.57171  1.0000
  P   P40       1.0  0.32706  0.71928  0.32574  1.0000
  C   C1130     1.0  0.10440  0.57718  0.43007  1.0000
  C   C1131     1.0  0.21403  0.58122  0.40276  1.0000
  H   H887      1.0  0.19653  0.73306  0.48607  1.0000
  C   C1132     1.0  0.14601  0.62638  0.38377  1.0000
  H   H888      1.0  0.40725  0.71974  0.32187  1.0000
  H   H889      1.0  0.22710  0.72970  0.33474  1.0000
  H   H890      1.0  0.19381  0.56895  0.47594  1.0000
  C   C1133     1.0  0.10759  0.67289  0.37990  1.0000
  H   H891      1.0  0.26389  0.73215  0.34913  1.0000
  C   C1134     1.0  0.03975  0.60772  0.31533  1.0000
  C   C1135     1.0  0.35228  0.71978  0.32531  1.0000
  H   H892      1.0  0.15980  0.68500  0.36861  1.0000
  H   H893      1.0  0.25908  0.70265  0.61232  1.0000
  H   H894      1.0  0.03357  0.53046  0.56268  1.0000
  H   H895      1.0  0.02055  0.70644  0.40672  1.0000
  C   C1136     1.0  0.10299  0.48470  0.58542  1.0000
  C   C1137     1.0  0.30288  0.67193  0.32644  1.0000
  C   C1138     1.0  0.30531  0.69048  0.32775  1.0000
  C   C1139     1.0  0.04224  0.54333  0.53336  1.0000
  H   H896      1.0  0.08159  0.54958  0.56541  1.0000
  C   C1140     1.0  0.18503  0.65015  0.58126  1.0000
  C   C1141     1.0  0.16573  0.67758  0.43877  1.0000
  H   H897      1.0  0.14185  0.61994  0.61984  1.0000
  C   C1142     1.0  0.17377  0.56552  0.43755  1.0000
  H   H898      1.0  0.06557  0.60738  0.42713  1.0000
  C   C1143     1.0  0.22198  0.71174  0.55901  1.0000
  H   H899      1.0  0.03519  0.56536  0.34587  1.0000
  H   H900      1.0  0.09487  0.52105  0.54057  1.0000
  C   C1144     1.0  0.08093  0.64161  0.33099  1.0000
  C   C1145     1.0  0.05623  0.72325  0.37229  1.0000
  C   C1146     1.0  0.15638  0.55984  0.44782  1.0000
  C   C1147     1.0  0.09607  0.64133  0.35849  1.0000
  H   H901      1.0  0.09100  0.57096  0.58349  1.0000
  C   C1148     1.0  0.06110  0.57138  0.32605  1.0000
  H   H902      1.0  0.05457  0.67451  0.35821  1.0000
  H   H903      1.0  0.28890  0.66740  0.33171  1.0000
  H   H904      1.0  0.29317  0.70019  0.33395  1.0000
  H   H905      1.0  0.09108  0.59610  0.61790  1.0000
  C   C1149     1.0  0.07392  0.63307  0.40832  1.0000
  C   C1150     1.0  0.06599  0.68933  0.38495  1.0000
  S   S158      1.0  0.20025  0.67458  0.62000  1.0000
  C   C1151     1.0  0.14746  0.59908  0.40984  1.0000
  H   H906      1.0  0.07421  0.65109  0.45591  1.0000
  C   C1152     1.0  0.08136  0.65611  0.36455  1.0000
  C   C1153     1.0  0.18728  0.56874  0.44788  1.0000
  H   H907      1.0  0.15850  0.55796  0.54285  1.0000
  H   H908      1.0  0.06678  0.61866  0.45716  1.0000
  C   C1154     1.0  0.08690  0.55729  0.59100  1.0000
  C   C1155     1.0  0.13730  0.61624  0.40100  1.0000
  H   H909      1.0  0.12300  0.62200  0.40795  1.0000
  H   H910      1.0  0.10529  0.50912  0.35368  1.0000
  C   C1156     1.0  0.22377  0.62468  0.63030  1.0000
  C   C1157     1.0  0.13568  0.54086  0.64104  1.0000
  H   H911      1.0  0.30962  0.69581  0.36188  1.0000
  C   C1158     1.0  0.03376  0.51442  0.60103  1.0000
  C   C1159     1.0  0.15761  0.60515  0.54504  1.0000
  H   H912      1.0  0.20049  0.62123  0.58739  1.0000
  C   C1160     1.0  0.23323  0.69011  0.61634  1.0000
  C   C1161     1.0  0.17465  0.60189  0.38378  1.0000
  H   H913      1.0  0.10219  0.53484  0.40472  1.0000
  H   H914      1.0  0.08047  0.67252  0.42456  1.0000
  H   H915      1.0  0.14507  0.67443  0.40237  1.0000
  C   C1162     1.0  0.30815  0.71055  0.36405  1.0000
  H   H916      1.0  0.09835  0.59584  0.40381  1.0000
  H   H917      1.0  0.31689  0.64458  0.31819  1.0000
  H   H918      1.0  0.06926  0.55720  0.33005  1.0000
  C   C1163     1.0  0.06469  0.52408  0.55399  1.0000
  C   C1164     1.0  0.18890  0.71691  0.36771  1.0000
  C   C1165     1.0  0.07797  0.65808  0.42476  1.0000
  H   H919      1.0  0.07237  0.50837  0.61789  1.0000
  C   C1166     1.0  0.23345  0.72437  0.61420  1.0000
  C   C1167     1.0  0.20480  0.71550  0.35289  1.0000
  H   H920      1.0  0.11250  0.66607  0.40976  1.0000
  H   H921      1.0  0.19519  0.70311  0.40440  1.0000
  H   H922      1.0  0.15369  0.66694  0.31441  1.0000
  Fe  Fe82      1.0  0.99500  0.58309  0.36767  1.0000
  H   H923      1.0  0.10738  0.62304  0.33684  1.0000
  H   H924      1.0  0.14175  0.62951  0.51408  1.0000
  H   H925      1.0  0.20644  0.59384  0.40888  1.0000
  C   C1168     1.0  0.25395  0.60447  0.63693  1.0000
  C   C1169     1.0  0.12450  0.57554  0.63655  1.0000
  H   H926      1.0  0.23190  0.71083  0.41595  1.0000
  C   C1170     1.0  0.05764  0.54620  0.51825  1.0000
  C   C1171     1.0  0.16091  0.65002  0.51170  1.0000
  C   C1172     1.0  0.16408  0.66896  0.50399  1.0000
  C   C1173     1.0  0.15073  0.68180  0.49375  1.0000
  C   C1174     1.0  0.13440  0.67565  0.49068  1.0000
  C   C1175     1.0  0.20135  0.63347  0.50738  1.0000
  C   C1176     1.0  0.20145  0.63416  0.48760  1.0000
  C   C1177     1.0  0.21872  0.63436  0.47443  1.0000
  C   C1178     1.0  0.23605  0.63382  0.48086  1.0000
  C   C1179     1.0  0.23610  0.63317  0.50049  1.0000
  C   C1180     1.0  0.21882  0.63302  0.51373  1.0000
  H   H927      1.0  0.16398  0.66887  0.54166  1.0000
  H   H928      1.0  0.17682  0.67381  0.50605  1.0000
  H   H929      1.0  0.15300  0.69652  0.48825  1.0000
  H   H930      1.0  0.12385  0.68563  0.48306  1.0000
  H   H931      1.0  0.18817  0.63448  0.48234  1.0000
  H   H932      1.0  0.21870  0.63486  0.45919  1.0000
  H   H933      1.0  0.24941  0.63387  0.47058  1.0000
  H   H934      1.0  0.24955  0.63276  0.50545  1.0000
  H   H935      1.0  0.21923  0.63261  0.52881  1.0000
  C   C1181     1.0  0.13685  0.67584  0.39082  1.0000
  C   C1182     1.0  0.10127  0.61586  0.63132  1.0000
  C   C1183     1.0  0.14621  0.61707  0.63394  1.0000
  C   C1184     1.0  0.25365  0.72051  0.54626  1.0000
  H   H936      1.0  0.02763  0.54992  0.53125  1.0000
  H   H937      1.0  0.19821  0.73279  0.52028  1.0000
  C   C1185     1.0  0.08974  0.64985  0.62061  1.0000
  S   S159      1.0  0.10492  0.48770  0.63892  1.0000
  H   H938      1.0  0.08222  0.52992  0.63580  1.0000
  H   H939      1.0  0.08927  0.66489  0.62144  1.0000
  C   C1186     1.0  0.15399  0.73262  0.33138  1.0000
  C   C1187     1.0  0.11301  0.73279  0.37721  1.0000
  H   H940      1.0  0.18959  0.50009  0.64538  1.0000
  H   H941      1.0  0.99293  0.56580  0.31357  1.0000
  C   C1188     1.0  0.42349  0.62631  0.97489  1.0000
  H   H942      1.0  0.07402  0.66782  0.69260  1.0000
  C   C1189     1.0  0.15014  0.68413  0.80012  1.0000
  C   C1190     1.0  0.42826  0.58327  0.93171  1.0000
  S   S160      1.0  0.10740  0.51318  0.68266  1.0000
  H   H943      1.0  0.26751  0.68300  0.68083  1.0000
  C   C1191     1.0  0.19479  0.48603  0.65317  1.0000
  Fe  Fe83      1.0  0.30827  0.60686  0.76852  1.0000
  S   S161      1.0  0.34045  0.60114  0.76028  1.0000
  S   S162      1.0  0.29208  0.63197  0.78276  1.0000
  Fe  Fe84      1.0  0.30336  0.57369  0.75074  1.0000
  S   S163      1.0  0.33527  0.56572  0.74035  1.0000
  S   S164      1.0  0.28178  0.55606  0.74736  1.0000
  Fe  Fe85      1.0  0.33808  0.56993  0.76992  1.0000
  S   S165      1.0  0.36019  0.55098  0.78715  1.0000
  Fe  Fe86      1.0  0.33463  0.59781  0.73168  1.0000
  S   S166      1.0  0.35046  0.61543  0.70593  1.0000
  S   S167      1.0  0.30616  0.57595  0.78079  1.0000
  S   S168      1.0  0.30256  0.60536  0.73932  1.0000
  Fe  Fe87      1.0  0.13327  0.60455  0.74814  1.0000
  S   S169      1.0  0.12972  0.57647  0.76791  1.0000
  S   S170      1.0  0.10674  0.62564  0.74219  1.0000
  Fe  Fe88      1.0  0.17655  0.59668  0.74495  1.0000
  S   S171      1.0  0.17646  0.56804  0.76426  1.0000
  S   S172      1.0  0.20307  0.61032  0.73470  1.0000
  Fe  Fe89      1.0  0.15475  0.56390  0.74700  1.0000
  S   S173      1.0  0.16008  0.53611  0.73421  1.0000
  Fe  Fe90      1.0  0.15157  0.58394  0.78294  1.0000
  S   S174      1.0  0.14850  0.58176  0.81568  1.0000
  S   S175      1.0  0.15680  0.59180  0.72637  1.0000
  S   S176      1.0  0.15322  0.61260  0.76440  1.0000
  Fe  Fe91      1.0  0.15238  0.66830  0.87677  1.0000
  S   S177      1.0  0.16765  0.68533  0.85085  1.0000
  S   S178      1.0  0.13968  0.64254  0.87317  1.0000
  Fe  Fe92      1.0  0.15863  0.69490  0.90430  1.0000
  H   H944      1.0  0.31093  0.51536  0.82755  1.0000
  S   S179      1.0  0.15260  0.70103  0.93538  1.0000
  C   C1192     1.0  0.30241  0.72862  0.78604  1.0000
  Fe  Fe93      1.0  0.18894  0.68549  0.86990  1.0000
  S   S180      1.0  0.22000  0.68020  0.85629  1.0000
  S   S181      1.0  0.13446  0.69461  0.88841  1.0000
  S   S182      1.0  0.17488  0.66665  0.89548  1.0000
  Fe  Fe94      1.0  0.31972  0.71516  0.86048  1.0000
  S   S183      1.0  0.30493  0.69197  0.85620  1.0000
  C   C1193     1.0  0.09025  0.70709  0.84892  1.0000
  Fe  Fe95      1.0  0.34752  0.68606  0.88384  1.0000
  S   S184      1.0  0.33484  0.66102  0.88080  1.0000
  S   S185      1.0  0.37310  0.67605  0.89939  1.0000
  Fe  Fe96      1.0  0.33482  0.67556  0.85019  1.0000
  S   S186      1.0  0.34732  0.65884  0.82621  1.0000
  Fe  Fe97      1.0  0.30646  0.67989  0.88738  1.0000
  S   S187      1.0  0.28243  0.66796  0.90888  1.0000
  S   S188      1.0  0.34978  0.69935  0.85239  1.0000
  S   S189      1.0  0.31882  0.70445  0.89253  1.0000
  C   C1194     1.0  0.24347  0.52172  0.79531  1.0000
  C   C1195     1.0  0.31427  0.65223  0.66152  1.0000
  H   H945      1.0  0.30460  0.53087  0.92303  1.0000
  C   C1196     1.0  0.36694  0.66179  0.92204  1.0000
  C   C1197     1.0  0.34856  0.66585  0.93300  1.0000
  C   C1198     1.0  0.34426  0.65560  0.95175  1.0000
  C   C1199     1.0  0.35804  0.64079  0.95940  1.0000
  C   C1200     1.0  0.37606  0.63595  0.94805  1.0000
  C   C1201     1.0  0.38064  0.64672  0.92953  1.0000
  H   H946      1.0  0.33789  0.67734  0.92726  1.0000
  H   H947      1.0  0.33022  0.65919  0.96035  1.0000
  H   H948      1.0  0.38661  0.62431  0.95375  1.0000
  H   H949      1.0  0.39479  0.64343  0.92102  1.0000
  C   C1202     1.0  0.23650  0.67281  0.87226  1.0000
  C   C1203     1.0  0.23084  0.67380  0.89195  1.0000
  C   C1204     1.0  0.24498  0.67104  0.90375  1.0000
  C   C1205     1.0  0.26458  0.66723  0.89575  1.0000
  C   C1206     1.0  0.27001  0.66450  0.87653  1.0000
  C   C1207     1.0  0.25598  0.66742  0.86473  1.0000
  H   H950      1.0  0.21572  0.67782  0.89779  1.0000
  H   H951      1.0  0.24079  0.67298  0.91870  1.0000
  H   H952      1.0  0.28509  0.66056  0.87061  1.0000
  H   H953      1.0  0.26032  0.66622  0.84959  1.0000
  C   C1208     1.0  0.14694  0.59987  0.83021  1.0000
  C   C1209     1.0  0.13928  0.59553  0.84984  1.0000
  C   C1210     1.0  0.13737  0.60880  0.86236  1.0000
  C   C1211     1.0  0.14361  0.62665  0.85584  1.0000
  C   C1212     1.0  0.15183  0.63109  0.83620  1.0000
  C   C1213     1.0  0.15329  0.61779  0.82337  1.0000
  H   H954      1.0  0.13439  0.58183  0.85541  1.0000
  H   H955      1.0  0.13097  0.60513  0.87736  1.0000
  H   H956      1.0  0.15675  0.64478  0.83085  1.0000
  H   H957      1.0  0.15944  0.62130  0.80831  1.0000
  C   C1214     1.0  0.30616  0.63843  0.79706  1.0000
  C   C1215     1.0  0.30002  0.65538  0.80508  1.0000
  C   C1216     1.0  0.31211  0.66126  0.81524  1.0000
  C   C1217     1.0  0.33032  0.65020  0.81720  1.0000
  C   C1218     1.0  0.33590  0.63277  0.81012  1.0000
  C   C1219     1.0  0.32369  0.62676  0.80035  1.0000
  H   H958      1.0  0.28619  0.66416  0.80302  1.0000
  H   H959      1.0  0.30779  0.67478  0.82063  1.0000
  H   H960      1.0  0.34988  0.62410  0.81182  1.0000
  H   H961      1.0  0.32798  0.61316  0.79524  1.0000
  C   C1220     1.0  0.25891  0.57034  0.74651  1.0000
  C   C1221     1.0  0.25597  0.58969  0.74868  1.0000
  C   C1222     1.0  0.23873  0.60187  0.74512  1.0000
  C   C1223     1.0  0.22395  0.59449  0.74037  1.0000
  C   C1224     1.0  0.22617  0.57474  0.73984  1.0000
  C   C1225     1.0  0.24380  0.56270  0.74261  1.0000
  H   H962      1.0  0.26708  0.59541  0.75276  1.0000
  H   H963      1.0  0.23692  0.61700  0.74605  1.0000
  H   H964      1.0  0.21465  0.56888  0.73653  1.0000
  H   H965      1.0  0.24592  0.54764  0.74128  1.0000
  C   C1226     1.0  0.41671  0.56888  0.93681  1.0000
  H   H966      1.0  0.34263  0.56547  0.85024  1.0000
  C   C1227     1.0  0.38414  0.53325  0.89524  1.0000
  H   H967      1.0  0.33949  0.57041  0.91184  1.0000
  C   C1228     1.0  0.37055  0.56550  0.90228  1.0000
  H   H968      1.0  0.23316  0.57065  0.79120  1.0000
  C   C1229     1.0  0.35205  0.53254  0.80528  1.0000
  C   C1230     1.0  0.33236  0.53151  0.81040  1.0000
  C   C1231     1.0  0.32615  0.51614  0.82404  1.0000
  H   H969      1.0  0.32194  0.54225  0.80351  1.0000
  H   H970      1.0  0.06777  0.56286  0.69420  1.0000
  C   C1232     1.0  0.12259  0.52023  0.69599  1.0000
  C   C1233     1.0  0.14179  0.51116  0.69612  1.0000
  C   C1234     1.0  0.15313  0.51640  0.70763  1.0000
  C   C1235     1.0  0.14561  0.53109  0.71882  1.0000
  C   C1236     1.0  0.12668  0.54077  0.71804  1.0000
  C   C1237     1.0  0.11521  0.53523  0.70682  1.0000
  C   C1238     1.0  0.34387  0.70366  0.68311  1.0000
  H   H971      1.0  0.16774  0.50892  0.70794  1.0000
  H   H972      1.0  0.12064  0.55210  0.72655  1.0000
  H   H973      1.0  0.10040  0.54236  0.70686  1.0000
  C   C1239     1.0  0.30858  0.63521  0.67257  1.0000
  C   C1240     1.0  0.31920  0.62420  0.68673  1.0000
  C   C1241     1.0  0.33595  0.62985  0.68946  1.0000
  C   C1242     1.0  0.23385  0.72512  0.82018  1.0000
  H   H974      1.0  0.29605  0.63045  0.66997  1.0000
  H   H975      1.0  0.31488  0.61094  0.69498  1.0000
  H   H976      1.0  0.12534  0.55686  0.66437  1.0000
  C   C1243     1.0  0.10450  0.66081  0.68207  1.0000
  C   C1244     1.0  0.12237  0.65047  0.68641  1.0000
  C   C1245     1.0  0.12336  0.63920  0.70484  1.0000
  C   C1246     1.0  0.10656  0.63872  0.71882  1.0000
  C   C1247     1.0  0.08891  0.64918  0.71436  1.0000
  C   C1248     1.0  0.08783  0.65991  0.69597  1.0000
  H   H977      1.0  0.13527  0.65114  0.67561  1.0000
  H   H978      1.0  0.13703  0.63115  0.70831  1.0000
  H   H979      1.0  0.07593  0.64881  0.72511  1.0000
  H   H980      1.0  0.30671  0.58335  0.83071  1.0000
  H   H981      1.0  0.32682  0.52486  0.95706  1.0000
  C   C1249     1.0  0.14108  0.67140  0.79381  1.0000
  C   C1250     1.0  0.11296  0.68143  0.83540  1.0000
  H   H982      1.0  0.47790  0.58146  0.92329  1.0000
  C   C1251     1.0  0.32030  0.67407  0.74402  1.0000
  C   C1252     1.0  0.28348  0.68616  0.70224  1.0000
  H   H983      1.0  0.22665  0.62744  0.89750  1.0000
  H   H984      1.0  0.07142  0.68827  0.74972  1.0000
  H   H985      1.0  0.10420  0.64773  0.83579  1.0000
  C   C1253     1.0  0.26680  0.65933  0.70457  1.0000
  C   C1254     1.0  0.34620  0.64647  0.74534  1.0000
  H   H986      1.0  0.26522  0.49703  0.96129  1.0000
  C   C1255     1.0  0.39527  0.58709  0.91468  1.0000
  C   C1256     1.0  0.07554  0.57495  0.69095  1.0000
  H   H987      1.0  0.32587  0.68189  0.69339  1.0000
  H   H988      1.0  0.39480  0.72144  0.72845  1.0000
  C   C1257     1.0  0.26294  0.51883  0.79769  1.0000
  C   C1258     1.0  0.37592  0.69563  0.75259  1.0000
  C   C1259     1.0  0.34244  0.49767  0.78015  1.0000
  C   C1260     1.0  0.33419  0.71296  0.79285  1.0000
  C   C1261     1.0  0.27621  0.72346  0.73500  1.0000
  C   C1262     1.0  0.20824  0.72515  0.66804  1.0000
  C   C1263     1.0  0.23263  0.54034  0.79331  1.0000
  H   H989      1.0  0.34679  0.54112  0.97148  1.0000
  H   H990      1.0  0.43207  0.61094  0.91445  1.0000
  C   C1264     1.0  0.39279  0.68211  0.75509  1.0000
  H   H991      1.0  0.33566  0.53735  0.91022  1.0000
  C   C1265     1.0  0.38230  0.50889  0.95066  1.0000
  H   H992      1.0  0.17712  0.54963  0.68488  1.0000
  H   H993      1.0  0.34030  0.50578  0.87318  1.0000
  C   C1266     1.0  0.08242  0.71232  0.83186  1.0000
  H   H994      1.0  0.18563  0.56618  0.65111  1.0000
  H   H995      1.0  0.34288  0.70451  0.80329  1.0000
  C   C1267     1.0  0.34232  0.52028  0.95529  1.0000
  H   H996      1.0  0.46240  0.62043  0.92934  1.0000
  H   H997      1.0  0.19811  0.70029  0.68605  1.0000
  C   C1268     1.0  0.35089  0.50516  0.94482  1.0000
  H   H998      1.0  0.40140  0.68277  0.76568  1.0000
  C   C1269     1.0  0.42130  0.63847  0.95735  1.0000
  H   H999      1.0  0.29297  0.49156  0.83436  1.0000
  H   H1000     1.0  0.35800  0.53112  0.85292  1.0000
  C   C1270     1.0  0.26801  0.57483  0.69646  1.0000
  C   C1271     1.0  0.25199  0.58067  0.68697  1.0000
  C   C1272     1.0  0.20987  0.58925  0.67365  1.0000
  C   C1273     1.0  0.20501  0.57972  0.69263  1.0000
  C   C1274     1.0  0.19345  0.56536  0.69658  1.0000
  H   H1001     1.0  0.18735  0.49366  0.73314  1.0000
  P   P41       1.0  0.27728  0.49496  0.79866  1.0000
  H   H1002     1.0  0.19760  0.72987  0.79819  1.0000
  H   H1003     1.0  0.24686  0.53444  0.91139  1.0000
  H   H1004     1.0  0.27384  0.55966  0.70003  1.0000
  C   C1275     1.0  0.39509  0.72260  0.80937  1.0000
  H   H1005     1.0  0.18960  0.55823  0.71132  1.0000
  H   H1006     1.0  0.13806  0.52714  0.65060  1.0000
  C   C1276     1.0  0.48282  0.55147  0.95896  1.0000
  C   C1277     1.0  0.23733  0.50179  0.70308  1.0000
  C   C1278     1.0  0.40679  0.60166  0.90992  1.0000
  C   C1279     1.0  0.21868  0.62479  0.88718  1.0000
  C   C1280     1.0  0.19955  0.62175  0.89306  1.0000
  C   C1281     1.0  0.18890  0.61960  0.87948  1.0000
  C   C1282     1.0  0.19745  0.62011  0.86008  1.0000
  C   C1283     1.0  0.21705  0.62195  0.85425  1.0000
  C   C1284     1.0  0.22736  0.62496  0.86786  1.0000
  P   P42       1.0  0.22875  0.62132  0.82945  1.0000
  C   C1285     1.0  0.21635  0.60873  0.81745  1.0000
  C   C1286     1.0  0.22855  0.64554  0.81630  1.0000
  C   C1287     1.0  0.21401  0.66060  0.82174  1.0000
  C   C1288     1.0  0.21411  0.67938  0.81152  1.0000
  C   C1289     1.0  0.22823  0.68307  0.79534  1.0000
  C   C1290     1.0  0.24246  0.66796  0.78953  1.0000
  C   C1291     1.0  0.24254  0.64928  0.79993  1.0000
  C   C1292     1.0  0.21410  0.61535  0.79805  1.0000
  C   C1293     1.0  0.20350  0.60627  0.78925  1.0000
  C   C1294     1.0  0.19522  0.59046  0.79962  1.0000
  C   C1295     1.0  0.19768  0.58352  0.81875  1.0000
  C   C1296     1.0  0.20833  0.59252  0.82760  1.0000
  C   C1297     1.0  0.25347  0.60916  0.82975  1.0000
  C   C1298     1.0  0.25883  0.58962  0.82780  1.0000
  H   H1007     1.0  0.30738  0.51443  0.89058  1.0000
  C   C1299     1.0  0.29179  0.59039  0.83092  1.0000
  C   C1300     1.0  0.28647  0.60968  0.83337  1.0000
  C   C1301     1.0  0.26750  0.61915  0.83244  1.0000
  H   H1008     1.0  0.19269  0.62184  0.90798  1.0000
  H   H1009     1.0  0.17383  0.61796  0.88392  1.0000
  H   H1010     1.0  0.18865  0.61915  0.84975  1.0000
  H   H1011     1.0  0.24195  0.62786  0.86359  1.0000
  H   H1012     1.0  0.20294  0.65801  0.83425  1.0000
  H   H1013     1.0  0.20344  0.69109  0.81653  1.0000
  C   C1302     1.0  0.25010  0.71929  0.88160  1.0000
  H   H1014     1.0  0.25356  0.67058  0.77704  1.0000
  H   H1015     1.0  0.25333  0.63761  0.79512  1.0000
  H   H1016     1.0  0.22023  0.62764  0.78967  1.0000
  H   H1017     1.0  0.20144  0.61163  0.77444  1.0000
  H   H1018     1.0  0.18660  0.58377  0.79296  1.0000
  H   H1019     1.0  0.19072  0.57156  0.82684  1.0000
  H   H1020     1.0  0.20974  0.58723  0.84251  1.0000
  H   H1021     1.0  0.24839  0.58157  0.82567  1.0000
  H   H1022     1.0  0.29720  0.61753  0.83538  1.0000
  H   H1023     1.0  0.26387  0.63433  0.83363  1.0000
  H   H1024     1.0  0.41180  0.65713  0.74570  1.0000
  C   C1303     1.0  0.21401  0.66215  0.73607  1.0000
  C   C1304     1.0  0.22726  0.66858  0.74422  1.0000
  C   C1305     1.0  0.22528  0.68816  0.74522  1.0000
  Fe  Fe98      1.0  0.11712  0.48817  0.66559  1.0000
  C   C1306     1.0  0.19588  0.69475  0.73118  1.0000
  C   C1307     1.0  0.19856  0.67521  0.72928  1.0000
  H   H1025     1.0  0.11124  0.68716  0.86401  1.0000
  H   H1026     1.0  0.21782  0.54266  0.79081  1.0000
  C   C1308     1.0  0.38094  0.69298  0.79932  1.0000
  C   C1309     1.0  0.07333  0.58718  0.70447  1.0000
  H   H1027     1.0  0.09756  0.61474  0.84348  1.0000
  C   C1310     1.0  0.28609  0.71372  0.96967  1.0000
  H   H1028     1.0  0.27564  0.72560  0.88864  1.0000
  H   H1029     1.0  0.31646  0.72737  0.72709  1.0000
  H   H1030     1.0  0.25057  0.68434  0.96144  1.0000
  H   H1031     1.0  0.27861  0.70421  0.92050  1.0000
  C   C1311     1.0  0.27105  0.53470  0.79910  1.0000
  H   H1032     1.0  0.21586  0.64708  0.73467  1.0000
  H   H1033     1.0  0.23926  0.65844  0.74940  1.0000
  H   H1034     1.0  0.23603  0.69333  0.75070  1.0000
  H   H1035     1.0  0.14778  0.49987  0.68759  1.0000
  H   H1036     1.0  0.18901  0.66995  0.72234  1.0000
  H   H1037     1.0  0.08467  0.71509  0.86075  1.0000
  C   C1312     1.0  0.15823  0.70133  0.71606  1.0000
  H   H1038     1.0  0.10293  0.61854  0.67940  1.0000
  S   S190      1.0  0.15108  0.69887  0.64711  1.0000
  H   H1039     1.0  0.38074  0.51922  0.81050  1.0000
  H   H1040     1.0  0.13509  0.59328  0.67997  1.0000
  H   H1041     1.0  0.35320  0.70542  0.73540  1.0000
  S   S191      1.0  0.38888  0.53499  0.97125  1.0000
  H   H1042     1.0  0.37785  0.48802  0.93451  1.0000
  C   C1313     1.0  0.10534  0.61977  0.79452  1.0000
  H   H1043     1.0  0.14179  0.69522  0.80812  1.0000
  C   C1314     1.0  0.39897  0.66771  0.74353  1.0000
  P   P43       1.0  0.37394  0.58939  0.90390  1.0000
  C   C1315     1.0  0.35328  0.60087  0.91896  1.0000
  C   C1316     1.0  0.37733  0.60361  0.87995  1.0000
  C   C1317     1.0  0.38122  0.59484  0.86337  1.0000
  C   C1318     1.0  0.38409  0.60599  0.84496  1.0000
  C   C1319     1.0  0.38319  0.62590  0.84295  1.0000
  C   C1320     1.0  0.37915  0.63477  0.85932  1.0000
  C   C1321     1.0  0.37610  0.62372  0.87774  1.0000
  C   C1322     1.0  0.33815  0.61323  0.91065  1.0000
  C   C1323     1.0  0.32245  0.62256  0.92230  1.0000
  C   C1324     1.0  0.32145  0.61920  0.94234  1.0000
  C   C1325     1.0  0.33610  0.60638  0.95076  1.0000
  C   C1326     1.0  0.35201  0.59729  0.93915  1.0000
  H   H1044     1.0  0.40320  0.61459  0.89978  1.0000
  H   H1045     1.0  0.38191  0.57948  0.86446  1.0000
  H   H1046     1.0  0.38681  0.59923  0.83221  1.0000
  H   H1047     1.0  0.38513  0.63457  0.82867  1.0000
  H   H1048     1.0  0.37792  0.65031  0.85774  1.0000
  H   H1049     1.0  0.33854  0.61591  0.89516  1.0000
  H   H1050     1.0  0.31119  0.63262  0.91574  1.0000
  H   H1051     1.0  0.30944  0.62668  0.95132  1.0000
  H   H1052     1.0  0.33539  0.60385  0.96631  1.0000
  H   H1053     1.0  0.36330  0.58762  0.94599  1.0000
  H   H1054     1.0  0.30987  0.57465  0.86788  1.0000
  C   C1327     1.0  0.35050  0.65103  0.76191  1.0000
  H   H1055     1.0  0.35479  0.63432  0.73903  1.0000
  H   H1056     1.0  0.36207  0.64205  0.76888  1.0000
  H   H1057     1.0  0.34381  0.67124  0.78177  1.0000
  C   C1328     1.0  0.23293  0.56078  0.86853  1.0000
  C   C1329     1.0  0.23801  0.54849  0.85476  1.0000
  C   C1330     1.0  0.25660  0.53765  0.85215  1.0000
  C   C1331     1.0  0.27011  0.53906  0.86328  1.0000
  C   C1332     1.0  0.26519  0.55162  0.87693  1.0000
  C   C1333     1.0  0.24646  0.56241  0.87951  1.0000
  P   P44       1.0  0.28169  0.55176  0.89301  1.0000
  C   C1334     1.0  0.30615  0.54527  0.88086  1.0000
  C   C1335     1.0  0.27958  0.57563  0.89876  1.0000
  C   C1336     1.0  0.28443  0.57792  0.91615  1.0000
  C   C1337     1.0  0.28389  0.59638  0.92009  1.0000
  C   C1338     1.0  0.27865  0.61268  0.90666  1.0000
  C   C1339     1.0  0.27401  0.61056  0.88925  1.0000
  C   C1340     1.0  0.27441  0.59213  0.88530  1.0000
  C   C1341     1.0  0.31495  0.52582  0.88213  1.0000
  C   C1342     1.0  0.33364  0.52081  0.87223  1.0000
  C   C1343     1.0  0.34360  0.53509  0.86078  1.0000
  C   C1344     1.0  0.33493  0.55446  0.85931  1.0000
  C   C1345     1.0  0.31630  0.55957  0.86935  1.0000
  C   C1346     1.0  0.27631  0.53463  0.91485  1.0000
  C   C1347     1.0  0.25805  0.52882  0.92014  1.0000
  C   C1348     1.0  0.09563  0.60611  0.68256  1.0000
  C   C1349     1.0  0.22941  0.48600  0.70132  1.0000
  C   C1350     1.0  0.29036  0.52685  0.92674  1.0000
  H   H1058     1.0  0.22751  0.54720  0.84626  1.0000
  H   H1059     1.0  0.26047  0.52787  0.84172  1.0000
  H   H1060     1.0  0.28427  0.53016  0.86134  1.0000
  H   H1061     1.0  0.24210  0.57168  0.89040  1.0000
  H   H1062     1.0  0.28884  0.56553  0.92663  1.0000
  H   H1063     1.0  0.28773  0.59807  0.93349  1.0000
  H   H1064     1.0  0.27834  0.62698  0.90969  1.0000
  H   H1065     1.0  0.27034  0.62324  0.87873  1.0000
  H   H1066     1.0  0.27107  0.59078  0.87159  1.0000
  C   C1351     1.0  0.34977  0.54160  0.90609  1.0000
  C   C1352     1.0  0.37373  0.52388  0.96127  1.0000
  C   C1353     1.0  0.19125  0.56983  0.66266  1.0000
  C   C1354     1.0  0.27651  0.58857  0.70160  1.0000
  H   H1067     1.0  0.29731  0.50733  0.95241  1.0000
  C   C1355     1.0  0.33073  0.65816  0.66461  1.0000
  H   H1068     1.0  0.37488  0.68153  0.79603  1.0000
  C   C1356     1.0  0.34255  0.71964  0.77378  1.0000
  H   H1069     1.0  0.12635  0.70923  0.68451  1.0000
  C   C1357     1.0  0.08347  0.69219  0.75429  1.0000
  C   C1358     1.0  0.26818  0.50766  0.94849  1.0000
  H   H1070     1.0  0.40151  0.70222  0.83473  1.0000
  H   H1071     1.0  0.40094  0.55561  0.89249  1.0000
  H   H1072     1.0  0.35140  0.69713  0.67069  1.0000
  H   H1073     1.0  0.36385  0.51357  0.89980  1.0000
  C   C1359     1.0  0.19818  0.71554  0.68477  1.0000
  H   H1074     1.0  0.22749  0.64910  0.65536  1.0000
  H   H1075     1.0  0.20994  0.58367  0.70443  1.0000
  C   C1360     1.0  0.42326  0.59967  0.91833  1.0000
  C   C1361     1.0  0.35208  0.56026  0.90710  1.0000
  C   C1362     1.0  0.38656  0.55187  0.89626  1.0000
  H   H1076     1.0  0.37274  0.63094  0.89025  1.0000
  C   C1363     1.0  0.34010  0.66739  0.76926  1.0000
  C   C1364     1.0  0.17254  0.65672  0.77841  1.0000
  H   H1077     1.0  0.08733  0.71524  0.73017  1.0000
  C   C1365     1.0  0.17024  0.68277  0.79604  1.0000
  C   C1366     1.0  0.33957  0.50162  0.83263  1.0000
  C   C1367     1.0  0.27909  0.69982  0.76400  1.0000
  H   H1078     1.0  0.17549  0.70982  0.76339  1.0000
  H   H1079     1.0  0.22809  0.69762  0.78741  1.0000
  C   C1368     1.0  0.40018  0.57086  0.92849  1.0000
  H   H1080     1.0  0.39653  0.52267  0.89089  1.0000
  C   C1369     1.0  0.36574  0.52812  0.90018  1.0000
  C   C1370     1.0  0.27795  0.58033  0.82827  1.0000
  H   H1081     1.0  0.26693  0.56564  0.79652  1.0000
  C   C1371     1.0  0.10445  0.64039  0.82397  1.0000
  H   H1082     1.0  0.39122  0.55968  0.93295  1.0000
  H   H1083     1.0  0.26285  0.59512  0.64676  1.0000
  C   C1372     1.0  0.36594  0.69498  0.73782  1.0000
  C   C1373     1.0  0.18644  0.56050  0.68164  1.0000
  H   H1084     1.0  0.18924  0.61613  0.69772  1.0000
  C   C1374     1.0  0.26023  0.55330  0.79683  1.0000
  H   H1085     1.0  0.44094  0.58179  0.93827  1.0000
  H   H1086     1.0  0.10571  0.61173  0.78313  1.0000
  H   H1087     1.0  0.40862  0.64958  0.95638  1.0000
  C   C1375     1.0  0.14223  0.60228  0.66772  1.0000
  C   C1376     1.0  0.09011  0.68195  0.77115  1.0000
  C   C1377     1.0  0.31424  0.71753  0.79892  1.0000
  C   C1378     1.0  0.38872  0.66704  0.72903  1.0000
  C   C1379     1.0  0.33100  0.65774  0.73658  1.0000
  C   C1380     1.0  0.32521  0.67903  0.76023  1.0000
  H   H1088     1.0  0.42029  0.55625  0.94743  1.0000
  H   H1089     1.0  0.32805  0.65398  0.72364  1.0000
  H   H1090     1.0  0.28722  0.69986  0.69443  1.0000
  C   C1381     1.0  0.20951  0.51103  0.72671  1.0000
  H   H1091     1.0  0.45582  0.51533  0.97193  1.0000
  C   C1382     1.0  0.38730  0.72583  0.79233  1.0000
  C   C1383     1.0  0.44573  0.54462  0.97663  1.0000
  C   C1384     1.0  0.10616  0.68649  0.77680  1.0000
  H   H1092     1.0  0.31797  0.69206  0.76567  1.0000
  H   H1093     1.0  0.39341  0.65581  0.72015  1.0000
  Fe  Fe99      1.0  0.15172  0.71131  0.86344  1.0000
  C   C1385     1.0  0.37233  0.68081  0.72605  1.0000
  H   H1094     1.0  0.28219  0.56540  0.82628  1.0000
  H   H1095     1.0  0.14573  0.64854  0.77703  1.0000
  C   C1386     1.0  0.27210  0.67680  0.69459  1.0000
  C   C1387     1.0  0.12688  0.68687  0.70949  1.0000
  H   H1096     1.0  0.26010  0.70702  0.78982  1.0000
  H   H1097     1.0  0.24005  0.51076  0.94070  1.0000
  H   H1098     1.0  0.18116  0.64616  0.76986  1.0000
  H   H1099     1.0  0.26911  0.63736  0.72977  1.0000
  C   C1388     1.0  0.28995  0.69225  0.94656  1.0000
  C   C1389     1.0  0.38881  0.68977  0.81627  1.0000
  C   C1390     1.0  0.37100  0.49954  0.94256  1.0000
  H   H1100     1.0  0.14446  0.71229  0.97293  1.0000
  C   C1391     1.0  0.43541  0.63624  0.94102  1.0000
  C   C1392     1.0  0.24420  0.60036  0.68277  1.0000
  H   H1101     1.0  0.35472  0.65118  0.68032  1.0000
  P   P45       1.0  0.30347  0.69045  0.73032  1.0000
  C   C1393     1.0  0.28991  0.67783  0.71980  1.0000
  H   H1102     1.0  0.25786  0.65230  0.69863  1.0000
  P   P46       1.0  0.17670  0.71220  0.72161  1.0000
  C   C1394     1.0  0.28458  0.66024  0.72975  1.0000
  H   H1103     1.0  0.20432  0.73023  0.90538  1.0000
  P   P47       1.0  0.22460  0.60802  0.66900  1.0000
  H   H1104     1.0  0.20519  0.67889  0.66121  1.0000
  C   C1395     1.0  0.20977  0.63014  0.67555  1.0000
  C   C1396     1.0  0.31908  0.70370  0.71177  1.0000
  C   C1397     1.0  0.45394  0.60938  0.95978  1.0000
  C   C1398     1.0  0.32404  0.72062  0.71492  1.0000
  C   C1399     1.0  0.15119  0.68581  0.72900  1.0000
  H   H1105     1.0  0.22416  0.69815  0.94248  1.0000
  C   C1400     1.0  0.32917  0.69522  0.69582  1.0000
  C   C1401     1.0  0.35362  0.52958  0.96348  1.0000
  Fe  Fe100     1.0  0.29634  0.73321  0.65261  1.0000
  C   C1402     1.0  0.34170  0.64684  0.67836  1.0000
  H   H1106     1.0  0.39782  0.50438  0.94879  1.0000
  C   C1403     1.0  0.11491  0.70196  0.76580  1.0000
  C   C1404     1.0  0.26888  0.60813  0.69747  1.0000
  H   H1107     1.0  0.27563  0.61861  0.70150  1.0000
  C   C1405     1.0  0.09241  0.70740  0.74329  1.0000
  C   C1406     1.0  0.10537  0.69152  0.85072  1.0000
  C   C1407     1.0  0.27311  0.65099  0.72208  1.0000
  C   C1408     1.0  0.09863  0.59337  0.66926  1.0000
  H   H1108     1.0  0.17696  0.69269  0.80101  1.0000
  C   C1409     1.0  0.28539  0.70591  0.74426  1.0000
  C   C1410     1.0  0.13351  0.70255  0.69678  1.0000
  C   C1411     1.0  0.28627  0.51349  0.94348  1.0000
  C   C1412     1.0  0.36548  0.51843  0.81441  1.0000
  C   C1413     1.0  0.27654  0.72861  0.95732  1.0000
  H   H1109     1.0  0.06386  0.58460  0.71823  1.0000
  H   H1110     1.0  0.28701  0.73231  0.79084  1.0000
  C   C1414     1.0  0.16332  0.72717  0.73893  1.0000
  C   C1415     1.0  0.25279  0.61406  0.68805  1.0000
  H   H1111     1.0  0.28925  0.65367  0.74341  1.0000
  C   C1416     1.0  0.10050  0.62153  0.82850  1.0000
  C   C1417     1.0  0.33909  0.72880  0.70248  1.0000
  H   H1112     1.0  0.28589  0.53292  0.80129  1.0000
  H   H1113     1.0  0.29887  0.52068  0.76889  1.0000
  C   C1418     1.0  0.22738  0.51431  0.71579  1.0000
  H   H1114     1.0  0.12705  0.70598  0.77005  1.0000
  C   C1419     1.0  0.21449  0.64814  0.66602  1.0000
  H   H1115     1.0  0.36433  0.68023  0.71488  1.0000
  C   C1420     1.0  0.20191  0.66518  0.66944  1.0000
  H   H1116     1.0  0.22376  0.71588  0.81964  1.0000
  C   C1421     1.0  0.08327  0.60282  0.70022  1.0000
  C   C1422     1.0  0.15668  0.72169  0.94330  1.0000
  C   C1423     1.0  0.10948  0.63856  0.78990  1.0000
  C   C1424     1.0  0.24113  0.55614  0.79379  1.0000
  C   C1425     1.0  0.35925  0.50293  0.82808  1.0000
  H   H1117     1.0  0.19707  0.66802  0.78201  1.0000
  H   H1118     1.0  0.12492  0.66959  0.83704  1.0000
  C   C1426     1.0  0.10510  0.68645  0.81824  1.0000
  H   H1119     1.0  0.28524  0.68586  0.77125  1.0000
  C   C1427     1.0  0.20964  0.70120  0.73877  1.0000
  H   H1120     1.0  0.08272  0.67048  0.77965  1.0000
  C   C1428     1.0  0.30915  0.51016  0.77637  1.0000
  H   H1121     1.0  0.33355  0.52270  0.75972  1.0000
  C   C1429     1.0  0.18482  0.66446  0.68278  1.0000
  C   C1430     1.0  0.19302  0.62964  0.68965  1.0000
  H   H1122     1.0  0.17480  0.67760  0.68496  1.0000
  H   H1123     1.0  0.11310  0.64470  0.77480  1.0000
  C   C1431     1.0  0.18148  0.66903  0.78525  1.0000
  H   H1124     1.0  0.11451  0.68158  0.70716  1.0000
  H   H1125     1.0  0.17896  0.62837  0.65643  1.0000
  C   C1432     1.0  0.19518  0.48364  0.67297  1.0000
  C   C1433     1.0  0.18057  0.64673  0.69318  1.0000
  C   C1434     1.0  0.13582  0.67836  0.72548  1.0000
  C   C1435     1.0  0.45039  0.56308  0.97424  1.0000
  S   S192      1.0  0.17465  0.71342  0.87978  1.0000
  C   C1436     1.0  0.22333  0.70192  0.95660  1.0000
  C   C1437     1.0  0.34889  0.72041  0.68648  1.0000
  C   C1438     1.0  0.32884  0.51118  0.77090  1.0000
  H   H1126     1.0  0.21838  0.56880  0.87104  1.0000
  H   H1127     1.0  0.13038  0.66635  0.73543  1.0000
  H   H1128     1.0  0.28028  0.72801  0.71964  1.0000
  H   H1129     1.0  0.25100  0.50456  0.69428  1.0000
  C   C1439     1.0  0.29279  0.69556  0.96427  1.0000
  H   H1130     1.0  0.11495  0.72415  0.74055  1.0000
  H   H1131     1.0  0.20839  0.71639  0.73946  1.0000
  C   C1440     1.0  0.10105  0.61119  0.81379  1.0000
  P   P48       1.0  0.11505  0.67329  0.79845  1.0000
  C   C1441     1.0  0.10906  0.64912  0.80458  1.0000
  H   H1132     1.0  0.09853  0.59638  0.81731  1.0000
  H   H1133     1.0  0.24588  0.56982  0.68275  1.0000
  C   C1442     1.0  0.20156  0.49524  0.72503  1.0000
  H   H1134     1.0  0.08145  0.61239  0.71065  1.0000
  H   H1135     1.0  0.23330  0.52677  0.71691  1.0000
  H   H1136     1.0  0.29545  0.67828  0.94213  1.0000
  H   H1137     1.0  0.27544  0.72343  0.83714  1.0000
  C   C1443     1.0  0.12824  0.55777  0.64880  1.0000
  C   C1444     1.0  0.15243  0.65801  0.78258  1.0000
  C   C1445     1.0  0.30283  0.49590  0.79155  1.0000
  C   C1446     1.0  0.08971  0.70197  0.81660  1.0000
  C   C1447     1.0  0.28031  0.70705  0.93427  1.0000
  C   C1448     1.0  0.46889  0.56676  0.96522  1.0000
  C   C1449     1.0  0.39586  0.70459  0.82133  1.0000
  C   C1450     1.0  0.38027  0.71099  0.78711  1.0000
  C   C1451     1.0  0.13582  0.60638  0.64980  1.0000
  H   H1138     1.0  0.08333  0.70620  0.80358  1.0000
  C   C1452     1.0  0.20300  0.58409  0.65863  1.0000
  H   H1139     1.0  0.16217  0.60766  0.68411  1.0000
  C   C1453     1.0  0.23819  0.69412  0.96734  1.0000
  C   C1454     1.0  0.16507  0.72200  0.75854  1.0000
  C   C1455     1.0  0.15772  0.61028  0.67011  1.0000
  P   P49       1.0  0.47498  0.59072  0.96181  1.0000
  H   H1140     1.0  0.21575  0.71734  0.65650  1.0000
  C   C1456     1.0  0.25405  0.51537  0.93685  1.0000
  H   H1141     1.0  0.22238  0.71475  0.87763  1.0000
  H   H1142     1.0  0.15730  0.67972  0.74199  1.0000
  C   C1457     1.0  0.14916  0.70978  0.69999  1.0000
  C   C1458     1.0  0.10801  0.71238  0.74913  1.0000
  P   P50       1.0  0.36857  0.71543  0.76610  1.0000
  S   S193      1.0  0.10195  0.67512  0.65964  1.0000
  C   C1459     1.0  0.26454  0.71165  0.77450  1.0000
  C   C1460     1.0  0.08805  0.57808  0.67336  1.0000
  H   H1143     1.0  0.20147  0.52108  0.73613  1.0000
  C   C1461     1.0  0.27341  0.72531  0.93955  1.0000
  C   C1462     1.0  0.26003  0.72695  0.89243  1.0000
  H   H1144     1.0  0.23682  0.50965  0.79453  1.0000
  H   H1145     1.0  0.16748  0.64618  0.70379  1.0000
  H   H1146     1.0  0.25212  0.70235  0.83586  1.0000
  H   H1147     1.0  0.19031  0.49601  0.68030  1.0000
  H   H1148     1.0  0.26677  0.50901  0.76023  1.0000
  S   S194      1.0  0.27577  0.71496  0.64911  1.0000
  H   H1149     1.0  0.30803  0.71272  0.81377  1.0000
  C   C1463     1.0  0.45169  0.62177  0.94219  1.0000
  H   H1150     1.0  0.19594  0.72071  0.95565  1.0000
  H   H1151     1.0  0.43364  0.64574  0.92744  1.0000
  H   H1152     1.0  0.28888  0.58401  0.70905  1.0000
  H   H1153     1.0  0.38883  0.67597  0.82580  1.0000
  C   C1464     1.0  0.24983  0.71748  0.82942  1.0000
  H   H1154     1.0  0.33538  0.67110  0.65593  1.0000
  H   H1155     1.0  0.24727  0.62929  0.68464  1.0000
  C   C1465     1.0  0.21985  0.72956  0.90168  1.0000
  C   C1466     1.0  0.45954  0.52961  0.97007  1.0000
  H   H1156     1.0  0.17631  0.72021  0.82901  1.0000
  C   C1467     1.0  0.23001  0.72080  0.88605  1.0000
  C   C1468     1.0  0.15131  0.72339  0.96299  1.0000
  H   H1157     1.0  0.15381  0.72220  0.69014  1.0000
  H   H1158     1.0  0.07069  0.72440  0.83047  1.0000
  C   C1469     1.0  0.43986  0.61205  0.97615  1.0000
  H   H1159     1.0  0.08946  0.56846  0.66308  1.0000
  C   C1470     1.0  0.18858  0.72547  0.69989  1.0000
  C   C1471     1.0  0.16734  0.62174  0.65449  1.0000
  C   C1472     1.0  0.20741  0.71464  0.96404  1.0000
  C   C1473     1.0  0.25564  0.72927  0.76519  1.0000
  H   H1160     1.0  0.26194  0.49223  0.73514  1.0000
  H   H1161     1.0  0.36015  0.72709  0.67654  1.0000
  C   C1474     1.0  0.26759  0.49344  0.76326  1.0000
  H   H1162     1.0  0.25805  0.71171  0.87006  1.0000
  C   C1475     1.0  0.26285  0.72933  0.83025  1.0000
  H   H1163     1.0  0.35765  0.49891  0.77637  1.0000
  C   C1476     1.0  0.47812  0.53301  0.96130  1.0000
  S   S195      1.0  0.33585  0.49430  0.93446  1.0000
  H   H1164     1.0  0.15438  0.72840  0.78732  1.0000
  H   H1165     1.0  0.30049  0.68410  0.97359  1.0000
  H   H1166     1.0  0.19927  0.49239  0.77143  1.0000
  C   C1477     1.0  0.15303  0.73243  0.77219  1.0000
  C   C1478     1.0  0.33048  0.73073  0.76092  1.0000
  H   H1167     1.0  0.36970  0.49170  0.83455  1.0000
  H   H1168     1.0  0.48888  0.52129  0.95640  1.0000
  C   C1479     1.0  0.26501  0.48395  0.74891  1.0000
  C   C1480     1.0  0.28112  0.48357  0.83756  1.0000
  H   H1169     1.0  0.43947  0.57432  0.97955  1.0000
  H   H1170     1.0  0.47712  0.62391  0.97904  1.0000
  Fe  Fe101     1.0  0.00400  0.80770  0.16525  1.0000
  C   C1481     1.0  0.14426  0.85511  0.26059  1.0000
  S   S196      1.0  0.02763  0.79248  0.18315  1.0000
  C   C1482     1.0  0.23602  0.75727  0.30059  1.0000
  S   S197      1.0  0.02331  0.83194  0.09529  1.0000
  S   S198      1.0  0.00539  0.79182  0.14077  1.0000
  Fe  Fe102     1.0  0.12604  0.76720  0.26535  1.0000
  S   S199      1.0  0.09979  0.77938  0.28497  1.0000
  H   H1171     1.0  0.28952  0.87428  0.30197  1.0000
  Fe  Fe103     1.0  0.13511  0.80645  0.24581  1.0000
  S   S200      1.0  0.10981  0.82137  0.26404  1.0000
  S   S201      1.0  0.15387  0.82424  0.22321  1.0000
  Fe  Fe104     1.0  0.11902  0.79929  0.28897  1.0000
  Fe  Fe105     1.0  0.09328  0.80031  0.25801  1.0000
  S   S202      1.0  0.06425  0.81434  0.24868  1.0000
  S   S203      1.0  0.14553  0.78582  0.27089  1.0000
  S   S204      1.0  0.11836  0.78658  0.23822  1.0000
  Fe  Fe106     1.0  0.39373  0.78046  0.25132  1.0000
  S   S205      1.0  0.38895  0.81040  0.23406  1.0000
  S   S206      1.0  0.41087  0.75585  0.23669  1.0000
  Fe  Fe107     1.0  0.36841  0.79253  0.28739  1.0000
  S   S207      1.0  0.36141  0.82291  0.27267  1.0000
  C   C1483     1.0  0.05006  0.89177  0.26347  1.0000
  Fe  Fe108     1.0  0.35764  0.81021  0.24751  1.0000
  S   S208      1.0  0.32925  0.81898  0.23540  1.0000
  Fe  Fe109     1.0  0.39331  0.81985  0.26115  1.0000
  S   S209      1.0  0.40834  0.84454  0.26344  1.0000
  S   S210      1.0  0.36240  0.77989  0.26347  1.0000
  S   S211      1.0  0.40043  0.78977  0.27714  1.0000
  H   H1172     1.0  0.14470  0.82421  0.16602  1.0000
  Fe  Fe110     1.0  0.15727  0.78926  0.99108  1.0000
  C   C1484     1.0  0.11675  0.85056  0.09263  1.0000
  Fe  Fe111     1.0  0.17049  0.79950  0.02626  1.0000
  S   S212      1.0  0.14487  0.82304  0.03050  1.0000
  S   S213      1.0  0.19366  0.78687  0.04538  1.0000
  Fe  Fe112     1.0  0.12718  0.80224  0.02567  1.0000
  S   S214      1.0  0.10104  0.79206  0.04674  1.0000
  C   C1485     1.0  0.07363  0.81300  0.00722  1.0000
  S   S215      1.0  0.15274  0.77810  0.02292  1.0000
  Fe  Fe113     1.0  0.24560  0.78368  0.16108  1.0000
  S   S216      1.0  0.24986  0.81458  0.15071  1.0000
  S   S217      1.0  0.22621  0.76955  0.18637  1.0000
  Fe  Fe114     1.0  0.27597  0.76898  0.12915  1.0000
  S   S218      1.0  0.28294  0.79836  0.11614  1.0000
  H   H1173     1.0  0.36558  0.91389  0.24019  1.0000
  Fe  Fe115     1.0  0.28182  0.80212  0.14712  1.0000
  S   S219      1.0  0.30771  0.81155  0.15503  1.0000
  Fe  Fe116     1.0  0.25055  0.80794  0.12078  1.0000
  S   S220      1.0  0.23272  0.82565  0.09803  1.0000
  S   S221      1.0  0.27716  0.77181  0.15940  1.0000
  S   S222      1.0  0.24397  0.77830  0.13185  1.0000
  H   H1174     1.0  0.48646  0.76484  0.19059  1.0000
  H   H1175     1.0  0.02720  0.90778  0.24819  1.0000
  C   C1486     1.0  0.44581  0.74014  0.26801  1.0000
  C   C1487     1.0  0.17234  0.73944  0.05353  1.0000
  H   H1176     1.0  0.03463  0.88707  0.22284  1.0000
  P   P51       1.0  0.07906  0.87007  0.28392  1.0000
  C   C1488     1.0  0.09069  0.89026  0.04104  1.0000
  C   C1489     1.0  0.27520  0.75227  0.06377  1.0000
  C   C1490     1.0  0.20439  0.79831  0.05955  1.0000
  C   C1491     1.0  0.19905  0.81793  0.06094  1.0000
  C   C1492     1.0  0.20798  0.82615  0.07255  1.0000
  C   C1493     1.0  0.22205  0.81483  0.08321  1.0000
  C   C1494     1.0  0.22748  0.79528  0.08160  1.0000
  C   C1495     1.0  0.21879  0.78715  0.06978  1.0000
  H   H1177     1.0  0.18811  0.82680  0.05306  1.0000
  H   H1178     1.0  0.20381  0.84133  0.07348  1.0000
  H   H1179     1.0  0.23851  0.78646  0.08937  1.0000
  H   H1180     1.0  0.22321  0.77205  0.06861  1.0000
  P   P52       1.0  0.20408  0.75312  0.28529  1.0000
  H   H1181     1.0  0.13505  0.74902  0.22539  1.0000
  H   H1182     1.0  0.26503  0.76527  0.06641  1.0000
  H   H1183     1.0  0.27685  0.83324  0.27205  1.0000
  H   H1184     1.0  0.03119  0.89459  0.98973  1.0000
  H   H1185     1.0  0.48874  0.74752  0.29701  1.0000
  C   C1496     1.0  0.32154  0.80001  0.30603  1.0000
  H   H1186     1.0  0.99795  0.89878  0.00757  1.0000
  H   H1187     1.0  0.29436  0.81051  0.29609  1.0000
  H   H1188     1.0  0.32974  0.80056  0.29158  1.0000
  C   C1497     1.0  0.32378  0.81457  0.21362  1.0000
  C   C1498     1.0  0.30427  0.81614  0.21174  1.0000
  C   C1499     1.0  0.29915  0.81428  0.19422  1.0000
  C   C1500     1.0  0.31349  0.81101  0.17825  1.0000
  C   C1501     1.0  0.33300  0.80928  0.18021  1.0000
  C   C1502     1.0  0.33815  0.81082  0.19782  1.0000
  H   H1189     1.0  0.29302  0.81934  0.22375  1.0000
  H   H1190     1.0  0.28408  0.81637  0.19277  1.0000
  H   H1191     1.0  0.34421  0.80716  0.16789  1.0000
  H   H1192     1.0  0.35319  0.80977  0.19894  1.0000
  C   C1503     1.0  0.42673  0.84308  0.27751  1.0000
  C   C1504     1.0  0.43577  0.82545  0.28669  1.0000
  C   C1505     1.0  0.45073  0.82495  0.29711  1.0000
  C   C1506     1.0  0.45652  0.84205  0.29904  1.0000
  C   C1507     1.0  0.44722  0.85970  0.29017  1.0000
  C   C1508     1.0  0.43258  0.86018  0.27933  1.0000
  H   H1193     1.0  0.43157  0.81216  0.28536  1.0000
  H   H1194     1.0  0.17723  0.73811  0.09838  1.0000
  H   H1195     1.0  0.30463  0.77759  0.26376  1.0000
  H   H1196     1.0  0.42584  0.87390  0.27219  1.0000
  C   C1509     1.0  0.18204  0.74573  0.15493  1.0000
  C   C1510     1.0  0.31035  0.87389  0.21078  1.0000
  H   H1197     1.0  0.38656  0.74353  0.17906  1.0000
  H   H1198     1.0  0.38588  0.83664  0.31085  1.0000
  H   H1199     1.0  0.36693  0.73368  0.01520  1.0000
  C   C1511     1.0  0.48101  0.73490  0.26231  1.0000
  C   C1512     1.0  0.16822  0.75282  0.18696  1.0000
  H   H1200     1.0  0.32720  0.84237  0.29712  1.0000
  H   H1201     1.0  0.39858  0.86675  0.30902  1.0000
  C   C1513     1.0  0.29926  0.87848  0.27112  1.0000
  C   C1514     1.0  0.17317  0.80910  0.21180  1.0000
  C   C1515     1.0  0.18684  0.81696  0.19702  1.0000
  C   C1516     1.0  0.20300  0.80486  0.18874  1.0000
  C   C1517     1.0  0.20553  0.78496  0.19536  1.0000
  C   C1518     1.0  0.19159  0.77715  0.20979  1.0000
  C   C1519     1.0  0.17540  0.78915  0.21795  1.0000
  H   H1202     1.0  0.18510  0.83240  0.19221  1.0000
  H   H1203     1.0  0.21363  0.81099  0.17754  1.0000
  H   H1204     1.0  0.19337  0.76183  0.21480  1.0000
  H   H1205     1.0  0.16489  0.78297  0.22931  1.0000
  C   C1520     1.0  0.19131  0.74037  0.09986  1.0000
  C   C1521     1.0  0.10649  0.84503  0.11104  1.0000
  H   H1206     1.0  0.14481  0.78374  0.15327  1.0000
  C   C1522     1.0  0.13185  0.86657  0.24844  1.0000
  C   C1523     1.0  0.04586  0.82030  0.08372  1.0000
  C   C1524     1.0  0.05001  0.80034  0.08408  1.0000
  C   C1525     1.0  0.06713  0.79201  0.07298  1.0000
  C   C1526     1.0  0.08037  0.80345  0.06138  1.0000
  C   C1527     1.0  0.07658  0.82335  0.06155  1.0000
  C   C1528     1.0  0.05945  0.83166  0.07268  1.0000
  H   H1207     1.0  0.03968  0.79139  0.09233  1.0000
  H   H1208     1.0  0.06986  0.77661  0.07302  1.0000
  H   H1209     1.0  0.08665  0.83239  0.05289  1.0000
  H   H1210     1.0  0.05658  0.84706  0.07261  1.0000
  C   C1529     1.0  0.03794  0.79945  0.20075  1.0000
  C   C1530     1.0  0.03167  0.81726  0.20707  1.0000
  C   C1531     1.0  0.03997  0.82171  0.22162  1.0000
  C   C1532     1.0  0.05476  0.80853  0.22982  1.0000
  C   C1533     1.0  0.06117  0.79085  0.22331  1.0000
  C   C1534     1.0  0.05278  0.78634  0.20889  1.0000
  H   H1211     1.0  0.02025  0.82747  0.20094  1.0000
  H   H1212     1.0  0.03479  0.83536  0.22668  1.0000
  H   H1213     1.0  0.07218  0.78046  0.22981  1.0000
  H   H1214     1.0  0.05763  0.77251  0.20417  1.0000
  C   C1535     1.0  0.11754  0.85444  0.28733  1.0000
  C   C1536     1.0  0.36769  0.86640  0.23888  1.0000
  C   C1537     1.0  0.33587  0.88434  0.23443  1.0000
  C   C1538     1.0  0.29588  0.94018  0.20533  1.0000
  H   H1215     1.0  0.01958  0.87945  0.14258  1.0000
  C   C1539     1.0  0.05756  0.89226  0.31116  1.0000
  C   C1540     1.0  0.45460  0.73347  0.21002  1.0000
  C   C1541     1.0  0.18495  0.74539  0.30423  1.0000
  H   H1216     1.0  0.15072  0.74026  0.98515  1.0000
  C   C1542     1.0  0.35536  0.74663  0.18149  1.0000
  C   C1543     1.0  0.33758  0.75378  0.19220  1.0000
  C   C1544     1.0  0.33704  0.76187  0.20858  1.0000
  C   C1545     1.0  0.35422  0.76291  0.21445  1.0000
  C   C1546     1.0  0.37198  0.75596  0.20389  1.0000
  C   C1547     1.0  0.37259  0.74806  0.18738  1.0000
  C   C1548     1.0  0.34414  0.86458  0.29545  1.0000
  H   H1217     1.0  0.08121  0.85240  0.24972  1.0000
  H   H1218     1.0  0.06115  0.83770  0.27911  1.0000
  H   H1219     1.0  0.09565  0.80940  0.20786  1.0000
  S   S223      1.0  0.13043  0.81204  0.99316  1.0000
  C   C1549     1.0  0.35144  0.75842  0.14081  1.0000
  C   C1550     1.0  0.34209  0.75717  0.12568  1.0000
  C   C1551     1.0  0.33683  0.77363  0.11242  1.0000
  C   C1552     1.0  0.34120  0.79136  0.11390  1.0000
  C   C1553     1.0  0.35107  0.79259  0.12849  1.0000
  C   C1554     1.0  0.35618  0.77621  0.14192  1.0000
  C   C1555     1.0  0.30577  0.92139  0.20983  1.0000
  H   H1220     1.0  0.11779  0.81073  0.07324  1.0000
  H   H1221     1.0  0.12022  0.88474  0.04592  1.0000
  C   C1556     1.0  0.06382  0.83555  0.29375  1.0000
  C   C1557     1.0  0.08209  0.80916  0.98879  1.0000
  H   H1222     1.0  0.32328  0.76779  0.21646  1.0000
  H   H1223     1.0  0.35380  0.76953  0.22691  1.0000
  H   H1224     1.0  0.38530  0.75708  0.20834  1.0000
  H   H1225     1.0  0.19222  0.82034  0.29774  1.0000
  H   H1226     1.0  0.99078  0.88299  0.04176  1.0000
  C   C1558     1.0  0.22708  0.74483  0.29368  1.0000
  C   C1559     1.0  0.26938  0.73768  0.05710  1.0000
  C   C1560     1.0  0.05857  0.86862  0.23472  1.0000
  H   H1227     1.0  0.09964  0.73943  0.25999  1.0000
  H   H1228     1.0  0.34138  0.86817  0.20092  1.0000
  S   S224      1.0  0.28931  0.74202  0.11672  1.0000
  H   H1229     1.0  0.33651  0.80427  0.10407  1.0000
  H   H1230     1.0  0.35394  0.80648  0.12992  1.0000
  H   H1231     1.0  0.36326  0.77765  0.15345  1.0000
  C   C1561     1.0  0.20457  0.74163  0.26485  1.0000
  C   C1562     1.0  0.11974  0.75853  0.11369  1.0000
  H   H1232     1.0  0.29064  0.74852  0.20334  1.0000
  C   C1563     1.0  0.29759  0.76615  0.29405  1.0000
  H   H1233     1.0  0.27903  0.87833  0.21562  1.0000
  H   H1234     1.0  0.07749  0.81044  0.18173  1.0000
  H   H1235     1.0  0.45802  0.81116  0.30347  1.0000
  H   H1236     1.0  0.08867  0.75052  0.16341  1.0000
  C   C1564     1.0  0.44903  0.74923  0.19616  1.0000
  H   H1237     1.0  0.11235  0.84925  0.30234  1.0000
  H   H1238     1.0  0.22666  0.78577  0.00805  1.0000
  H   H1239     1.0  0.19191  0.83511  0.26333  1.0000
  H   H1240     1.0  0.32408  0.75367  0.18777  1.0000
  H   H1241     1.0  0.20239  0.74163  0.04658  1.0000
  H   H1242     1.0  0.31898  0.91652  0.20045  1.0000
  C   C1565     1.0  0.22019  0.73417  0.23325  1.0000
  C   C1566     1.0  0.29100  0.86593  0.19001  1.0000
  H   H1243     1.0  0.47916  0.75323  0.22553  1.0000
  C   C1567     1.0  0.00953  0.88993  0.01464  1.0000
  H   H1244     1.0  0.19602  0.81428  0.23854  1.0000
  C   C1568     1.0  0.11018  0.88190  0.03774  1.0000
  H   H1245     1.0  0.38607  0.74920  0.30824  1.0000
  C   C1569     1.0  0.15463  0.76762  0.17916  1.0000
  C   C1570     1.0  0.46317  0.74739  0.26454  1.0000
  H   H1246     1.0  0.11828  0.76603  0.98367  1.0000
  C   C1571     1.0  0.29011  0.86913  0.28860  1.0000
  C   C1572     1.0  0.27814  0.77233  0.21822  1.0000
  C   C1573     1.0  0.26989  0.77817  0.23595  1.0000
  C   C1574     1.0  0.26726  0.76434  0.25261  1.0000
  C   C1575     1.0  0.06966  0.86471  0.24948  1.0000
  C   C1576     1.0  0.10964  0.74922  0.21341  1.0000
  H   H1247     1.0  0.30564  0.89096  0.27111  1.0000
  H   H1248     1.0  0.28015  0.78295  0.20524  1.0000
  H   H1249     1.0  0.26567  0.79342  0.23676  1.0000
  H   H1250     1.0  0.26123  0.76893  0.26639  1.0000
  C   C1577     1.0  0.16764  0.82843  0.10564  1.0000
  C   C1578     1.0  0.17971  0.83274  0.11674  1.0000
  C   C1579     1.0  0.18921  0.81798  0.12913  1.0000
  C   C1580     1.0  0.18686  0.79890  0.13026  1.0000
  C   C1581     1.0  0.17506  0.79430  0.11885  1.0000
  C   C1582     1.0  0.16529  0.80933  0.10666  1.0000
  P   P53       1.0  0.17186  0.76942  0.12111  1.0000
  C   C1583     1.0  0.15119  0.76789  0.11080  1.0000
  S   S225      1.0  0.17686  0.80909  0.99415  1.0000
  C   C1584     1.0  0.03251  0.86857  0.14205  1.0000
  C   C1585     1.0  0.04331  0.88416  0.23422  1.0000
  C   C1586     1.0  0.03911  0.89578  0.24854  1.0000
  H   H1251     1.0  0.23154  0.73587  0.22093  1.0000
  C   C1587     1.0  0.13604  0.77182  0.08238  1.0000
  C   C1588     1.0  0.15159  0.77340  0.09077  1.0000
  C   C1589     1.0  0.16878  0.76095  0.14688  1.0000
  C   C1590     1.0  0.15487  0.77167  0.15920  1.0000
  H   H1252     1.0  0.45184  0.87295  0.29100  1.0000
  C   C1591     1.0  0.03932  0.86744  0.03308  1.0000
  H   H1253     1.0  0.10955  0.85787  0.00154  1.0000
  S   S226      1.0  0.47769  0.84044  0.30932  1.0000
  H   H1254     1.0  0.16051  0.83986  0.09582  1.0000
  H   H1255     1.0  0.18212  0.84742  0.11544  1.0000
  H   H1256     1.0  0.19887  0.82128  0.13749  1.0000
  H   H1257     1.0  0.19431  0.78778  0.14013  1.0000
  H   H1258     1.0  0.15587  0.80659  0.09786  1.0000
  H   H1259     1.0  0.21345  0.76859  0.11840  1.0000
  C   C1592     1.0  0.10478  0.86529  0.27503  1.0000
  H   H1260     1.0  0.29330  0.84921  0.24130  1.0000
  C   C1593     1.0  0.07789  0.88705  0.03004  1.0000
  H   H1261     1.0  0.13629  0.77641  0.06696  1.0000
  H   H1262     1.0  0.16399  0.77892  0.08160  1.0000
  H   H1263     1.0  0.04635  0.90083  0.27449  1.0000
  H   H1264     1.0  0.09995  0.78149  0.15966  1.0000
  C   C1594     1.0  0.08178  0.76320  0.15477  1.0000
  H   H1265     1.0  0.14430  0.77633  0.18857  1.0000
  C   C1595     1.0  0.28184  0.85298  0.28888  1.0000
  C   C1596     1.0  0.30783  0.85945  0.17780  1.0000
  H   H1266     1.0  0.30150  0.94974  0.19261  1.0000
  H   H1267     1.0  0.01730  0.86308  0.05816  1.0000
  H   H1268     1.0  0.12120  0.86461  0.08878  1.0000
  C   C1597     1.0  0.29406  0.75000  0.06736  1.0000
  H   H1269     1.0  0.33893  0.85488  0.17261  1.0000
  C   C1598     1.0  0.11945  0.82275  0.15440  1.0000
  C   C1599     1.0  0.08802  0.78090  0.15271  1.0000
  S   S227      1.0  0.15301  0.86182  0.98152  1.0000
  C   C1600     1.0  0.40143  0.73447  0.24620  1.0000
  H   H1270     1.0  0.06165  0.74823  0.14737  1.0000
  H   H1271     1.0  0.08556  0.89956  0.05186  1.0000
  H   H1272     1.0  0.06216  0.84105  0.11112  1.0000
  P   P54       1.0  0.31136  0.88456  0.23135  1.0000
  C   C1601     1.0  0.29214  0.85525  0.25425  1.0000
  C   C1602     1.0  0.10065  0.82685  0.11614  1.0000
  C   C1603     1.0  0.19998  0.77916  0.27818  1.0000
  H   H1273     1.0  0.22988  0.77225  0.30060  1.0000
  H   H1274     1.0  0.12660  0.82617  0.13966  1.0000
  H   H1275     1.0  0.43847  0.76135  0.20056  1.0000
  C   C1604     1.0  0.06666  0.76186  0.14566  1.0000
  H   H1276     1.0  0.34647  0.86774  0.27980  1.0000
  H   H1277     1.0  0.34415  0.85345  0.23570  1.0000
  H   H1278     1.0  0.38226  0.73582  0.12192  1.0000
  Fe  Fe117     1.0  0.14990  0.83128  0.99773  1.0000
  S   S228      1.0  0.00162  0.83692  0.14663  1.0000
  C   C1605     1.0  0.27251  0.74466  0.25149  1.0000
  H   H1279     1.0  0.05068  0.85915  0.04067  1.0000
  C   C1606     1.0  0.30144  0.80571  0.30860  1.0000
  H   H1280     1.0  0.16843  0.75014  0.20236  1.0000
  C   C1607     1.0  0.07870  0.79759  0.14203  1.0000
  C   C1608     1.0  0.05930  0.81879  0.30616  1.0000
  H   H1281     1.0  0.31415  0.74788  0.16192  1.0000
  C   C1609     1.0  0.45700  0.74931  0.17667  1.0000
  H   H1282     1.0  0.10007  0.90179  0.28279  1.0000
  H   H1283     1.0  0.46262  0.76281  0.26321  1.0000
  C   C1610     1.0  0.12824  0.74164  0.21744  1.0000
  H   H1284     1.0  0.06165  0.85928  0.22390  1.0000
  C   C1611     1.0  0.05786  0.77819  0.13441  1.0000
  H   H1285     1.0  0.29837  0.76113  0.07306  1.0000
  H   H1286     1.0  0.06340  0.84180  0.17113  1.0000
  C   C1612     1.0  0.12008  0.76448  0.09382  1.0000
  C   C1613     1.0  0.28293  0.84601  0.27174  1.0000
  P   P55       1.0  0.08644  0.82062  0.13964  1.0000
  C   C1614     1.0  0.32721  0.86753  0.19828  1.0000
  C   C1615     1.0  0.29223  0.87323  0.20637  1.0000
  C   C1616     1.0  0.25421  0.76686  0.00797  1.0000
  H   H1287     1.0  0.26230  0.77853  0.00630  1.0000
  C   C1617     1.0  0.12128  0.81681  0.18856  1.0000
  C   C1618     1.0  0.06371  0.79601  0.13270  1.0000
  C   C1619     1.0  0.00546  0.88110  0.03391  1.0000
  H   H1288     1.0  0.10209  0.76257  0.21809  1.0000
  C   C1620     1.0  0.25318  0.75037  0.30807  1.0000
  C   C1621     1.0  0.27866  0.94658  0.21710  1.0000
  H   H1289     1.0  0.04620  0.77716  0.12727  1.0000
  H   H1290     1.0  0.30688  0.85346  0.16531  1.0000
  H   H1291     1.0  0.06326  0.83428  0.02532  1.0000
  C   C1622     1.0  0.07407  0.84731  0.99608  1.0000
  S   S229      1.0  0.13892  0.73572  0.26745  1.0000
  P   P56       1.0  0.06828  0.87194  0.00075  1.0000
  C   C1623     1.0  0.10073  0.73945  0.20356  1.0000
  Fe  Fe118     1.0  0.00211  0.82111  0.12224  1.0000
  C   C1624     1.0  0.29859  0.90892  0.22628  1.0000
  C   C1625     1.0  0.32590  0.86023  0.18195  1.0000
  C   C1626     1.0  0.21164  0.75740  0.11121  1.0000
  C   C1627     1.0  0.19312  0.75514  0.10934  1.0000
  C   C1628     1.0  0.02850  0.88737  0.00450  1.0000
  H   H1292     1.0  0.32879  0.77275  0.10137  1.0000
  C   C1629     1.0  0.23415  0.77096  0.00888  1.0000
  C   C1630     1.0  0.13522  0.76022  0.12221  1.0000
  C   C1631     1.0  0.34197  0.90132  0.23610  1.0000
  H   H1293     1.0  0.27064  0.73416  0.26453  1.0000
  C   C1632     1.0  0.36088  0.90078  0.23897  1.0000
  H   H1294     1.0  0.10289  0.88057  0.24589  1.0000
  C   C1633     1.0  0.05659  0.84671  0.12446  1.0000
  C   C1634     1.0  0.10237  0.81297  0.19293  1.0000
  C   C1635     1.0  0.12990  0.82149  0.16932  1.0000
  C   C1636     1.0  0.10021  0.81937  0.15869  1.0000
  H   H1295     1.0  0.10295  0.85498  0.12129  1.0000
  C   C1637     1.0  0.10400  0.86662  0.01278  1.0000
  H   H1296     1.0  0.38846  0.88280  0.24248  1.0000
  H   H1297     1.0  0.05633  0.80847  0.12420  1.0000
  C   C1638     1.0  0.27125  0.93415  0.23332  1.0000
  H   H1298     1.0  0.07033  0.80126  0.01884  1.0000
  H   H1299     1.0  0.27096  0.96111  0.21355  1.0000
  H   H1300     1.0  0.27702  0.86511  0.18685  1.0000
  C   C1639     1.0  0.37376  0.88333  0.24027  1.0000
  C   C1640     1.0  0.06527  0.83936  0.14100  1.0000
  H   H1301     1.0  0.06303  0.89430  0.03231  1.0000
  C   C1641     1.0  0.28110  0.91534  0.23787  1.0000
  H   H1302     1.0  0.25680  0.74121  0.14768  1.0000
  C   C1642     1.0  0.30824  0.76604  0.27545  1.0000
  H   H1303     1.0  0.33219  0.91496  0.23540  1.0000
  C   C1643     1.0  0.10486  0.81445  0.10242  1.0000
  H   H1304     1.0  0.09996  0.80065  0.10571  1.0000
  H   H1305     1.0  0.12930  0.81613  0.20009  1.0000
  C   C1644     1.0  0.05732  0.84694  0.15808  1.0000
  H   H1306     1.0  0.20106  0.77909  0.24763  1.0000
  C   C1645     1.0  0.19659  0.80781  0.25350  1.0000
  C   C1646     1.0  0.34874  0.86681  0.23633  1.0000
  C   C1647     1.0  0.19950  0.78772  0.25878  1.0000
  C   C1648     1.0  0.19416  0.81955  0.26748  1.0000
  C   C1649     1.0  0.13717  0.84928  0.28010  1.0000
  C   C1650     1.0  0.18173  0.74171  0.17490  1.0000
  H   H1307     1.0  0.14668  0.84015  0.28952  1.0000
  C   C1651     1.0  0.19716  0.79115  0.29217  1.0000
  C   C1652     1.0  0.07201  0.84887  0.30019  1.0000
  C   C1653     1.0  0.02038  0.86990  0.04314  1.0000
  H   H1308     1.0  0.16611  0.77310  0.30210  1.0000
  C   C1654     1.0  0.11500  0.82011  0.08397  1.0000
  C   C1655     1.0  0.06547  0.87617  0.26407  1.0000
  C   C1656     1.0  0.12099  0.83810  0.07910  1.0000
  H   H1309     1.0  0.03470  0.86688  0.17190  1.0000
  H   H1310     1.0  0.27478  0.84568  0.30244  1.0000
  C   C1657     1.0  0.09200  0.81390  0.17807  1.0000
  C   C1658     1.0  0.04099  0.86142  0.15858  1.0000
  H   H1311     1.0  0.36010  0.88602  0.29835  1.0000
  C   C1659     1.0  0.19440  0.81123  0.28682  1.0000
  C   C1660     1.0  0.04029  0.86118  0.12501  1.0000
  H   H1312     1.0  0.03333  0.86620  0.11236  1.0000
  H   H1313     1.0  0.12868  0.84250  0.06474  1.0000
  H   H1314     1.0  0.37772  0.85290  0.23991  1.0000
  P   P57       1.0  0.35614  0.73767  0.15930  1.0000
  H   H1315     1.0  0.13210  0.86448  0.02041  1.0000
  H   H1316     1.0  0.25776  0.93904  0.24230  1.0000
  C   C1661     1.0  0.28382  0.75275  0.21714  1.0000
  C   C1662     1.0  0.08436  0.87485  0.01610  1.0000
  H   H1317     1.0  0.19689  0.78495  0.30730  1.0000
  C   C1663     1.0  0.30002  0.87181  0.25376  1.0000
  C   C1664     1.0  0.07433  0.88989  0.29721  1.0000
  H   H1318     1.0  0.13472  0.75535  0.13758  1.0000
  C   C1665     1.0  0.06965  0.83193  0.01086  1.0000
  C   C1666     1.0  0.11684  0.87028  0.02350  1.0000
  H   H1319     1.0  0.15925  0.85042  0.25472  1.0000
  C   C1667     1.0  0.22357  0.75598  0.01130  1.0000
  H   H1320     1.0  0.27483  0.90587  0.25024  1.0000
  C   C1668     1.0  0.04358  0.87583  0.01356  1.0000
  H   H1321     1.0  0.33208  0.75119  0.25764  1.0000
  C   C1669     1.0  0.16791  0.75827  0.30909  1.0000
  H   H1322     1.0  0.38829  0.74368  0.27328  1.0000
  H   H1323     1.0  0.13738  0.87078  0.23325  1.0000
  H   H1324     1.0  0.20803  0.75958  0.01185  1.0000
  H   H1325     1.0  0.16950  0.74909  0.06396  1.0000
  C   C1670     1.0  0.08333  0.91852  0.30395  1.0000
  H   H1326     1.0  0.05346  0.80841  0.30082  1.0000
  C   C1671     1.0  0.08714  0.90320  0.29358  1.0000
  H   H1327     1.0  0.10794  0.76354  0.08725  1.0000
  C   C1672     1.0  0.11223  0.87185  0.25564  1.0000
  H   H1328     1.0  0.99799  0.77783  0.21059  1.0000
  H   H1329     1.0  0.10743  0.75263  0.12243  1.0000
  H   H1330     1.0  0.45265  0.76155  0.16594  1.0000
  H   H1331     1.0  0.27930  0.74460  0.00868  1.0000
  H   H1332     1.0  0.33820  0.74368  0.12442  1.0000
  C   C1673     1.0  0.35187  0.87481  0.30593  1.0000
  C   C1674     1.0  0.28045  0.73874  0.23363  1.0000
  H   H1333     1.0  0.08621  0.74526  0.20069  1.0000
  H   H1334     1.0  0.09332  0.92869  0.30117  1.0000
  H   H1335     1.0  0.43210  0.74991  0.26935  1.0000
  C   C1675     1.0  0.26375  0.74773  0.00936  1.0000
  C   C1676     1.0  0.33339  0.85022  0.30518  1.0000
  H   H1336     1.0  0.28559  0.77771  0.29673  1.0000
  C   C1677     1.0  0.22803  0.74507  0.10394  1.0000
  C   C1678     1.0  0.32372  0.75118  0.27201  1.0000
  H   H1337     1.0  0.24226  0.74699  0.10553  1.0000
  H   H1338     1.0  0.09277  0.90230  0.98611  1.0000
  H   H1339     1.0  0.26318  0.73448  0.20336  1.0000
  H   H1340     1.0  0.08501  0.79447  0.98606  1.0000
  H   H1341     1.0  0.25470  0.73960  0.05438  1.0000
  C   C1679     1.0  0.23296  0.73670  0.01332  1.0000
  C   C1680     1.0  0.19104  0.73540  0.04332  1.0000
  H   H1342     1.0  0.14277  0.73502  0.05757  1.0000
  C   C1681     1.0  0.22015  0.74224  0.24948  1.0000
  C   C1682     1.0  0.31872  0.73711  0.30612  1.0000
  H   H1343     1.0  0.19317  0.73738  0.14590  1.0000
  C   C1683     1.0  0.32872  0.73657  0.28719  1.0000
  H   H1344     1.0  0.35147  0.74918  0.31002  1.0000
  H   H1345     1.0  0.23184  0.74970  0.24969  1.0000
  C   C1684     1.0  0.30279  0.75178  0.30937  1.0000
  H   H1346     1.0  0.47643  0.73394  0.15583  1.0000
  C   C1685     1.0  0.47050  0.73359  0.17101  1.0000
  H   H1347     1.0  0.44832  0.73341  0.22512  1.0000
  C   C1686     1.0  0.31602  0.74324  0.54010  1.0000
  C   C1687     1.0  0.34287  0.85185  0.57426  1.0000
  H   H1348     1.0  0.26273  0.80592  0.55058  1.0000
  Fe  Fe119     1.0  0.47372  0.86622  0.37262  1.0000
  S   S230      1.0  0.44651  0.87869  0.39164  1.0000
  S   S231      1.0  0.47849  0.88310  0.34233  1.0000
  Fe  Fe120     1.0  0.20536  0.81107  0.37808  1.0000
  S   S232      1.0  0.22641  0.78680  0.36680  1.0000
  S   S233      1.0  0.17341  0.81658  0.37511  1.0000
  Fe  Fe121     1.0  0.23592  0.82149  0.39829  1.0000
  S   S234      1.0  0.25908  0.79787  0.38803  1.0000
  S   S235      1.0  0.23998  0.84137  0.41788  1.0000
  Fe  Fe122     1.0  0.24785  0.80722  0.35980  1.0000
  H   H1349     1.0  0.46522  0.93896  0.53298  1.0000
  Fe  Fe123     1.0  0.23544  0.77991  0.39600  1.0000
  S   S236      1.0  0.23892  0.74975  0.41284  1.0000
  S   S237      1.0  0.22619  0.83232  0.36931  1.0000
  S   S238      1.0  0.21292  0.80277  0.40813  1.0000
  Fe  Fe124     1.0  0.33346  0.83390  0.50754  1.0000
  S   S239      1.0  0.31427  0.85959  0.49403  1.0000
  S   S240      1.0  0.31444  0.81700  0.53107  1.0000
  Fe  Fe125     1.0  0.36956  0.84512  0.47922  1.0000
  S   S241      1.0  0.35231  0.87138  0.46420  1.0000
  S   S242      1.0  0.40201  0.83636  0.46992  1.0000
  Fe  Fe126     1.0  0.33799  0.87592  0.49455  1.0000
  S   S243      1.0  0.33109  0.90335  0.50802  1.0000
  Fe  Fe127     1.0  0.33053  0.85196  0.46564  1.0000
  S   S244      1.0  0.32103  0.84504  0.43952  1.0000
  S   S245      1.0  0.35628  0.85055  0.50939  1.0000
  S   S246      1.0  0.34869  0.82543  0.47926  1.0000
  C   C1688     1.0  0.19853  0.75524  0.55247  1.0000
  H   H1350     1.0  0.36366  0.82862  0.41066  1.0000
  C   C1689     1.0  0.38219  0.93881  0.48715  1.0000
  H   H1351     1.0  0.26523  0.90313  0.63379  1.0000
  C   C1690     1.0  0.33874  0.85574  0.33596  1.0000
  H   H1352     1.0  0.45969  0.91569  0.36482  1.0000
  H   H1353     1.0  0.39924  0.88569  0.58147  1.0000
  C   C1691     1.0  0.41867  0.80825  0.40293  1.0000
  H   H1354     1.0  0.37716  0.86986  0.56995  1.0000
  Fe  Fe128     1.0  0.39451  0.92764  0.62358  1.0000
  S   S247      1.0  0.41190  0.93506  0.59434  1.0000
  H   H1355     1.0  0.20139  0.85087  0.61437  1.0000
  C   C1692     1.0  0.27971  0.82383  0.49641  1.0000
  H   H1356     1.0  0.37959  0.81734  0.38006  1.0000
  Fe  Fe129     1.0  0.38366  0.94020  0.58318  1.0000
  S   S248      1.0  0.38658  0.92327  0.55848  1.0000
  S   S249      1.0  0.38963  0.95775  0.62993  1.0000
  S   S250      1.0  0.36680  0.93093  0.61240  1.0000
  C   C1693     1.0  0.24493  0.76390  0.55831  1.0000
  H   H1357     1.0  0.24996  0.88888  0.61311  1.0000
  C   C1694     1.0  0.33950  0.80480  0.60138  1.0000
  H   H1358     1.0  0.31049  0.88678  0.37034  1.0000
  H   H1359     1.0  0.37233  0.78193  0.42934  1.0000
  H   H1360     1.0  0.43069  0.93530  0.54359  1.0000
  H   H1361     1.0  0.43413  0.80339  0.40093  1.0000
  C   C1695     1.0  0.34564  0.90768  0.52375  1.0000
  C   C1696     1.0  0.33962  0.92367  0.53346  1.0000
  C   C1697     1.0  0.35148  0.92820  0.54499  1.0000
  C   C1698     1.0  0.36969  0.91699  0.54656  1.0000
  C   C1699     1.0  0.37550  0.90085  0.53713  1.0000
  C   C1700     1.0  0.36347  0.89603  0.52610  1.0000
  H   H1362     1.0  0.32588  0.93281  0.53176  1.0000
  H   H1363     1.0  0.34687  0.94078  0.55199  1.0000
  H   H1364     1.0  0.38955  0.89214  0.53813  1.0000
  H   H1365     1.0  0.36840  0.88374  0.51875  1.0000
  C   C1701     1.0  0.32300  0.79634  0.54677  1.0000
  C   C1702     1.0  0.34273  0.78947  0.54658  1.0000
  C   C1703     1.0  0.34872  0.77311  0.55988  1.0000
  C   C1704     1.0  0.33500  0.76386  0.57347  1.0000
  C   C1705     1.0  0.31532  0.77071  0.57346  1.0000
  C   C1706     1.0  0.30937  0.78682  0.56008  1.0000
  H   H1366     1.0  0.35331  0.79671  0.53626  1.0000
  H   H1367     1.0  0.36395  0.76763  0.55973  1.0000
  H   H1368     1.0  0.30465  0.76340  0.58351  1.0000
  H   H1369     1.0  0.29412  0.79187  0.56005  1.0000
  C   C1707     1.0  0.26211  0.84111  0.42568  1.0000
  C   C1708     1.0  0.26404  0.85649  0.43427  1.0000
  C   C1709     1.0  0.28165  0.85721  0.43992  1.0000
  C   C1710     1.0  0.29745  0.84242  0.43722  1.0000
  C   C1711     1.0  0.29518  0.82660  0.42950  1.0000
  C   C1712     1.0  0.27769  0.82598  0.42361  1.0000
  H   H1370     1.0  0.25204  0.86821  0.43601  1.0000
  H   H1371     1.0  0.28323  0.86962  0.44557  1.0000
  H   H1372     1.0  0.30711  0.81490  0.42775  1.0000
  H   H1373     1.0  0.27632  0.81393  0.41729  1.0000
  C   C1713     1.0  0.17774  0.75491  0.58370  1.0000
  H   H1374     1.0  0.44884  0.89752  0.64610  1.0000
  C   C1714     1.0  0.39584  0.87182  0.58920  1.0000
  C   C1715     1.0  0.44438  0.89285  0.47049  1.0000
  H   H1375     1.0  0.25706  0.75401  0.37312  1.0000
  C   C1716     1.0  0.40632  0.90960  0.48926  1.0000
  C   C1717     1.0  0.27238  0.88970  0.62896  1.0000
  C   C1718     1.0  0.43446  0.86629  0.41320  1.0000
  C   C1719     1.0  0.41558  0.87439  0.42068  1.0000
  C   C1720     1.0  0.40552  0.86538  0.43798  1.0000
  C   C1721     1.0  0.41442  0.84839  0.44829  1.0000
  C   C1722     1.0  0.43360  0.84063  0.44117  1.0000
  C   C1723     1.0  0.44347  0.84933  0.42351  1.0000
  H   H1376     1.0  0.40867  0.88773  0.41302  1.0000
  H   H1377     1.0  0.39096  0.87174  0.44339  1.0000
  H   H1378     1.0  0.44071  0.82760  0.44913  1.0000
  H   H1379     1.0  0.45813  0.84311  0.41806  1.0000
  H   H1380     1.0  0.48778  0.80350  0.33617  1.0000
  H   H1381     1.0  0.35094  0.80980  0.44236  1.0000
  H   H1382     1.0  0.29139  0.79705  0.35759  1.0000
  H   H1383     1.0  0.38030  0.87769  0.40361  1.0000
  C   C1724     1.0  0.46011  0.94444  0.61185  1.0000
  C   C1725     1.0  0.16745  0.80744  0.34028  1.0000
  C   C1726     1.0  0.15953  0.81349  0.35817  1.0000
  C   C1727     1.0  0.13937  0.81761  0.36314  1.0000
  C   C1728     1.0  0.12723  0.81575  0.35072  1.0000
  C   C1729     1.0  0.33862  0.79733  0.39636  1.0000
  H   H1384     1.0  0.13304  0.82235  0.37680  1.0000
  S   S251      1.0  0.37800  0.97192  0.58593  1.0000
  H   H1385     1.0  0.18299  0.80430  0.33620  1.0000
  H   H1386     1.0  0.20540  0.74224  0.61777  1.0000
  C   C1730     1.0  0.33366  0.84688  0.56080  1.0000
  C   C1731     1.0  0.37891  0.82642  0.54895  1.0000
  H   H1387     1.0  0.33720  0.83253  0.55702  1.0000
  C   C1732     1.0  0.32004  0.86058  0.55170  1.0000
  C   C1733     1.0  0.09328  0.86996  0.63532  1.0000
  H   H1388     1.0  0.36700  0.78336  0.35578  1.0000
  H   H1389     1.0  0.08189  0.85504  0.32470  1.0000
  P   P58       1.0  0.41913  0.80147  0.36547  1.0000
  H   H1390     1.0  0.33281  0.79152  0.41104  1.0000
  H   H1391     1.0  0.24379  0.81309  0.52381  1.0000
  C   C1734     1.0  0.40795  0.80911  0.38826  1.0000
  C   C1735     1.0  0.15033  0.76811  0.41316  1.0000
  C   C1736     1.0  0.30103  0.87630  0.37198  1.0000
  C   C1737     1.0  0.40944  0.81410  0.42046  1.0000
  C   C1738     1.0  0.47232  0.77184  0.37558  1.0000
  Fe  Fe130     1.0  0.40493  0.96572  0.59978  1.0000
  C   C1739     1.0  0.40049  0.92926  0.49075  1.0000
  C   C1740     1.0  0.23512  0.76738  0.54247  1.0000
  H   H1392     1.0  0.31353  0.85689  0.54078  1.0000
  C   C1741     1.0  0.33083  0.79320  0.32207  1.0000
  H   H1393     1.0  0.42911  0.84012  0.35598  1.0000
  C   C1742     1.0  0.28383  0.73964  0.47970  1.0000
  H   H1394     1.0  0.13653  0.76920  0.40869  1.0000
  P   P59       1.0  0.30137  0.77138  0.47967  1.0000
  C   C1743     1.0  0.33401  0.81704  0.38947  1.0000
  C   C1744     1.0  0.46152  0.87924  0.46979  1.0000
  H   H1395     1.0  0.31010  0.94386  0.59360  1.0000
  S   S252      1.0  0.33585  0.97443  0.63441  1.0000
  H   H1396     1.0  0.35543  0.93621  0.47911  1.0000
  H   H1397     1.0  0.38692  0.74418  0.38983  1.0000
  C   C1745     1.0  0.43790  0.90206  0.45314  1.0000
  H   H1398     1.0  0.39770  0.77372  0.39335  1.0000
  H   H1399     1.0  0.32166  0.78293  0.61311  1.0000
  H   H1400     1.0  0.38096  0.79405  0.59074  1.0000
  C   C1746     1.0  0.42609  0.85240  0.53947  1.0000
  C   C1747     1.0  0.42594  0.83681  0.53055  1.0000
  C   C1748     1.0  0.42624  0.83962  0.51062  1.0000
  H   H1401     1.0  0.42548  0.85030  0.55498  1.0000
  H   H1402     1.0  0.42541  0.82260  0.53912  1.0000
  H   H1403     1.0  0.42574  0.82765  0.50365  1.0000
  Fe  Fe131     1.0  0.36320  0.96196  0.61617  1.0000
  H   H1404     1.0  0.05928  0.73627  0.36242  1.0000
  C   C1749     1.0  0.20178  0.78764  0.60145  1.0000
  C   C1750     1.0  0.21602  0.79551  0.60658  1.0000
  H   H1405     1.0  0.41766  0.81316  0.43187  1.0000
  H   H1406     1.0  0.47806  0.93288  0.45185  1.0000
  C   C1751     1.0  0.29070  0.85531  0.61587  1.0000
  C   C1752     1.0  0.15289  0.78226  0.42290  1.0000
  C   C1753     1.0  0.24915  0.81982  0.60778  1.0000
  C   C1754     1.0  0.26841  0.81218  0.60991  1.0000
  C   C1755     1.0  0.28336  0.81531  0.59433  1.0000
  C   C1756     1.0  0.27931  0.82655  0.57685  1.0000
  C   C1757     1.0  0.26021  0.83425  0.57465  1.0000
  C   C1758     1.0  0.24516  0.83081  0.59001  1.0000
  C   C1759     1.0  0.43069  0.91876  0.52160  1.0000
  C   C1760     1.0  0.35866  0.77998  0.43859  1.0000
  C   C1761     1.0  0.44138  0.91053  0.50570  1.0000
  C   C1762     1.0  0.46514  0.88387  0.43489  1.0000
  P   P60       1.0  0.22946  0.81714  0.62768  1.0000
  C   C1763     1.0  0.30866  0.85725  0.36916  1.0000
  H   H1407     1.0  0.14769  0.76674  0.58341  1.0000
  S   S253      1.0  0.26518  0.81077  0.32968  1.0000
  C   C1764     1.0  0.37532  0.81910  0.56877  1.0000
  C   C1765     1.0  0.43923  0.92899  0.53136  1.0000
  C   C1766     1.0  0.18316  0.75196  0.41549  1.0000
  H   H1408     1.0  0.40377  0.78567  0.53232  1.0000
  H   H1409     1.0  0.20598  0.77702  0.59191  1.0000
  H   H1410     1.0  0.23107  0.79062  0.60100  1.0000
  C   C1767     1.0  0.38315  0.79991  0.57545  1.0000
  H   H1411     1.0  0.46659  0.87169  0.48300  1.0000
  H   H1412     1.0  0.29817  0.80911  0.59572  1.0000
  H   H1413     1.0  0.29101  0.82918  0.56497  1.0000
  H   H1414     1.0  0.25712  0.84285  0.56101  1.0000
  H   H1415     1.0  0.23041  0.83690  0.58810  1.0000
  S   S254      1.0  0.47916  0.83757  0.36265  1.0000
  S   S255      1.0  0.34256  0.74374  0.59033  1.0000
  H   H1416     1.0  0.19521  0.74054  0.41241  1.0000
  H   H1417     1.0  0.45067  0.90001  0.61118  1.0000
  C   C1768     1.0  0.18553  0.76594  0.42551  1.0000
  C   C1769     1.0  0.37789  0.84541  0.59333  1.0000
  H   H1418     1.0  0.39101  0.81987  0.52044  1.0000
  H   H1419     1.0  0.26625  0.85841  0.60150  1.0000
  H   H1420     1.0  0.25616  0.84534  0.48726  1.0000
  C   C1770     1.0  0.46573  0.93975  0.44495  1.0000
  C   C1771     1.0  0.20815  0.85457  0.62507  1.0000
  S   S256      1.0  0.14609  0.75401  0.63056  1.0000
  C   C1772     1.0  0.47064  0.92372  0.36600  1.0000
  H   H1421     1.0  0.37488  0.85519  0.35413  1.0000
  C   C1773     1.0  0.44794  0.94500  0.45653  1.0000
  C   C1774     1.0  0.41448  0.85530  0.33256  1.0000
  C   C1775     1.0  0.29974  0.79797  0.34324  1.0000
  C   C1776     1.0  0.34896  0.87062  0.32616  1.0000
  H   H1422     1.0  0.28362  0.83258  0.50529  1.0000
  C   C1777     1.0  0.30244  0.95468  0.62053  1.0000
  H   H1423     1.0  0.37285  0.88434  0.63131  1.0000
  H   H1424     1.0  0.48463  0.92414  0.50520  1.0000
  C   C1778     1.0  0.10875  0.75119  0.36651  1.0000
  H   H1425     1.0  0.22555  0.78913  0.51904  1.0000
  C   C1779     1.0  0.34667  0.79568  0.44594  1.0000
  C   C1780     1.0  0.25475  0.79533  0.54856  1.0000
  H   H1426     1.0  0.34285  0.80055  0.58723  1.0000
  C   C1781     1.0  0.24422  0.79929  0.53335  1.0000
  H   H1427     1.0  0.37381  0.84143  0.54365  1.0000
  H   H1428     1.0  0.09731  0.85707  0.62879  1.0000
  C   C1782     1.0  0.20780  0.74854  0.35265  1.0000
  C   C1783     1.0  0.31413  0.74335  0.35335  1.0000
  C   C1784     1.0  0.38967  0.82151  0.42324  1.0000
  C   C1785     1.0  0.35791  0.79279  0.36528  1.0000
  H   H1429     1.0  0.18732  0.76348  0.37316  1.0000
  H   H1430     1.0  0.27736  0.76264  0.51747  1.0000
  C   C1786     1.0  0.43177  0.95399  0.44804  1.0000
  C   C1787     1.0  0.29234  0.75763  0.51916  1.0000
  H   H1431     1.0  0.12945  0.80333  0.62037  1.0000
  H   H1432     1.0  0.36610  0.90224  0.47486  1.0000
  C   C1788     1.0  0.45758  0.92876  0.60437  1.0000
  H   H1433     1.0  0.20805  0.74369  0.57993  1.0000
  C   C1789     1.0  0.25275  0.73994  0.37717  1.0000
  C   C1790     1.0  0.16440  0.76898  0.55457  1.0000
  C   C1791     1.0  0.30723  0.75985  0.50319  1.0000
  C   C1792     1.0  0.36985  0.92904  0.48138  1.0000
  H   H1434     1.0  0.42021  0.98142  0.63455  1.0000
  H   H1435     1.0  0.30345  0.76259  0.37414  1.0000
  H   H1436     1.0  0.32014  0.89853  0.57354  1.0000
  H   H1437     1.0  0.39907  0.77300  0.56755  1.0000
  C   C1793     1.0  0.28107  0.88186  0.37727  1.0000
  C   C1794     1.0  0.40063  0.76933  0.37930  1.0000
  C   C1795     1.0  0.16189  0.76388  0.57471  1.0000
  H   H1438     1.0  0.30894  0.90994  0.60887  1.0000
  H   H1439     1.0  0.27525  0.89637  0.38008  1.0000
  C   C1796     1.0  0.38311  0.86291  0.58287  1.0000
  C   C1797     1.0  0.29596  0.84424  0.37045  1.0000
  H   H1440     1.0  0.32026  0.75425  0.34243  1.0000
  C   C1798     1.0  0.23326  0.75862  0.47940  1.0000
  P   P61       1.0  0.36092  0.83426  0.58548  1.0000
  C   C1799     1.0  0.42708  0.87070  0.52840  1.0000
  C   C1800     1.0  0.42703  0.85794  0.49954  1.0000
  H   H1441     1.0  0.25314  0.87277  0.38356  1.0000
  C   C1801     1.0  0.38888  0.81431  0.53583  1.0000
  H   H1442     1.0  0.17132  0.78626  0.60581  1.0000
  H   H1443     1.0  0.34730  0.83754  0.62644  1.0000
  C   C1802     1.0  0.32372  0.88401  0.57023  1.0000
  H   H1444     1.0  0.42725  0.88242  0.53575  1.0000
  H   H1445     1.0  0.32025  0.80573  0.46366  1.0000
  C   C1803     1.0  0.26420  0.83095  0.48639  1.0000
  H   H1446     1.0  0.14136  0.79429  0.42536  1.0000
  C   C1804     1.0  0.39351  0.78795  0.56234  1.0000
  H   H1447     1.0  0.26622  0.79328  0.46370  1.0000
  H   H1448     1.0  0.30282  0.80051  0.50218  1.0000
  C   C1805     1.0  0.42774  0.87362  0.50828  1.0000
  H   H1449     1.0  0.42717  0.85973  0.48411  1.0000
  C   C1806     1.0  0.26859  0.86864  0.37912  1.0000
  C   C1807     1.0  0.39614  0.79507  0.54251  1.0000
  H   H1450     1.0  0.39810  0.88497  0.48146  1.0000
  H   H1451     1.0  0.26627  0.83980  0.37683  1.0000
  C   C1808     1.0  0.28678  0.76257  0.44982  1.0000
  C   C1809     1.0  0.45235  0.77816  0.37693  1.0000
  H   H1452     1.0  0.39487  0.86700  0.37232  1.0000
  C   C1810     1.0  0.27602  0.84995  0.37546  1.0000
  C   C1811     1.0  0.39393  0.90000  0.48312  1.0000
  H   H1453     1.0  0.24747  0.82531  0.46685  1.0000
  H   H1454     1.0  0.25091  0.77755  0.63061  1.0000
  H   H1455     1.0  0.11171  0.81896  0.35503  1.0000
  H   H1456     1.0  0.19926  0.76522  0.43004  1.0000
  C   C1812     1.0  0.40832  0.75709  0.34340  1.0000
  H   H1457     1.0  0.44668  0.94224  0.47211  1.0000
  H   H1458     1.0  0.33121  0.74522  0.45905  1.0000
  P   P62       1.0  0.43003  0.89699  0.49358  1.0000
  H   H1459     1.0  0.41565  0.91726  0.52650  1.0000
  C   C1813     1.0  0.34064  0.82462  0.37024  1.0000
  C   C1814     1.0  0.30560  0.92103  0.61787  1.0000
  C   C1815     1.0  0.32913  0.79330  0.45811  1.0000
  H   H1460     1.0  0.46433  0.91939  0.39688  1.0000
  C   C1816     1.0  0.27018  0.80140  0.47304  1.0000
  C   C1817     1.0  0.23413  0.78553  0.53052  1.0000
  H   H1461     1.0  0.45234  0.95719  0.40078  1.0000
  C   C1818     1.0  0.27289  0.86452  0.61067  1.0000
  C   C1819     1.0  0.18233  0.79285  0.60925  1.0000
  H   H1462     1.0  0.31946  0.73700  0.55438  1.0000
  H   H1463     1.0  0.11777  0.77878  0.35612  1.0000
  C   C1820     1.0  0.23460  0.75816  0.49872  1.0000
  C   C1821     1.0  0.45796  0.80278  0.34886  1.0000
  H   H1464     1.0  0.28539  0.74757  0.54988  1.0000
  H   H1465     1.0  0.29132  0.77571  0.44133  1.0000
  C   C1822     1.0  0.30485  0.74804  0.37135  1.0000
  C   C1823     1.0  0.35278  0.81242  0.35817  1.0000
  C   C1824     1.0  0.21087  0.80890  0.61937  1.0000
  H   H1466     1.0  0.30535  0.89004  0.54852  1.0000
  C   C1825     1.0  0.31528  0.87921  0.55620  1.0000
  H   H1467     1.0  0.33969  0.90084  0.62896  1.0000
  H   H1468     1.0  0.28617  0.73466  0.49447  1.0000
  H   H1469     1.0  0.48637  0.77314  0.31626  1.0000
  C   C1826     1.0  0.39454  0.75253  0.37739  1.0000
  C   C1827     1.0  0.28958  0.75689  0.46917  1.0000
  S   S257      1.0  0.24602  0.74385  0.61076  1.0000
  H   H1470     1.0  0.25943  0.75991  0.31412  1.0000
  C   C1828     1.0  0.33724  0.87030  0.57947  1.0000
  C   C1829     1.0  0.34194  0.82557  0.62336  1.0000
  H   H1471     1.0  0.38345  0.82245  0.61731  1.0000
  C   C1830     1.0  0.39814  0.74656  0.35940  1.0000
  C   C1831     1.0  0.33090  0.74582  0.52443  1.0000
  C   C1832     1.0  0.34043  0.86625  0.39229  1.0000
  C   C1833     1.0  0.13746  0.75976  0.37350  1.0000
  C   C1834     1.0  0.34840  0.86060  0.37428  1.0000
  H   H1472     1.0  0.32686  0.78670  0.35317  1.0000
  C   C1835     1.0  0.31990  0.79228  0.34069  1.0000
  C   C1836     1.0  0.30624  0.94022  0.60915  1.0000
  H   H1473     1.0  0.32518  0.82651  0.39902  1.0000
  H   H1474     1.0  0.13054  0.83234  0.63382  1.0000
  C   C1837     1.0  0.41284  0.82188  0.34714  1.0000
  C   C1838     1.0  0.37896  0.82262  0.40863  1.0000
  H   H1475     1.0  0.48079  0.92927  0.33532  1.0000
  C   C1839     1.0  0.25478  0.77779  0.56127  1.0000
  C   C1840     1.0  0.32332  0.77514  0.46292  1.0000
  C   C1841     1.0  0.35293  0.76185  0.44321  1.0000
  H   H1476     1.0  0.34582  0.74172  0.52667  1.0000
  H   H1477     1.0  0.07124  0.91664  0.62504  1.0000
  C   C1842     1.0  0.44823  0.89753  0.43547  1.0000
  C   C1843     1.0  0.13487  0.80970  0.33293  1.0000
  C   C1844     1.0  0.40026  0.82122  0.33457  1.0000
  C   C1845     1.0  0.32713  0.79500  0.61592  1.0000
  H   H1478     1.0  0.24589  0.76454  0.50180  1.0000
  C   C1846     1.0  0.41474  0.77367  0.34534  1.0000
  H   H1479     1.0  0.45288  0.81468  0.33824  1.0000
  C   C1847     1.0  0.48756  0.93603  0.38599  1.0000
  H   H1480     1.0  0.42288  0.78153  0.33286  1.0000
  C   C1848     1.0  0.45352  0.91189  0.61685  1.0000
  C   C1849     1.0  0.19596  0.75070  0.57267  1.0000
  H   H1481     1.0  0.09615  0.75502  0.35940  1.0000
  H   H1482     1.0  0.47268  0.87992  0.42117  1.0000
  S   S258      1.0  0.35597  0.78553  0.31882  1.0000
  H   H1483     1.0  0.02788  0.73644  0.38471  1.0000
  C   C1850     1.0  0.26373  0.88171  0.61721  1.0000
  C   C1851     1.0  0.20704  0.74022  0.48962  1.0000
  C   C1852     1.0  0.33533  0.75942  0.45533  1.0000
  H   H1484     1.0  0.18724  0.82315  0.63815  1.0000
  C   C1853     1.0  0.25931  0.81964  0.47489  1.0000
  C   C1854     1.0  0.21955  0.74961  0.47482  1.0000
  H   H1485     1.0  0.17260  0.79243  0.43617  1.0000
  C   C1855     1.0  0.22145  0.74958  0.51368  1.0000
  H   H1486     1.0  0.30136  0.82967  0.36763  1.0000
  C   C1856     1.0  0.17716  0.80587  0.62229  1.0000
  H   H1487     1.0  0.35819  0.81788  0.34327  1.0000
  H   H1488     1.0  0.17590  0.75087  0.59927  1.0000
  H   H1489     1.0  0.34348  0.87428  0.59040  1.0000
  H   H1490     1.0  0.44268  0.90407  0.42224  1.0000
  C   C1857     1.0  0.37585  0.90977  0.47907  1.0000
  C   C1858     1.0  0.12096  0.76464  0.36468  1.0000
  C   C1859     1.0  0.17049  0.78121  0.42902  1.0000
  C   C1860     1.0  0.16560  0.75305  0.40907  1.0000
  C   C1861     1.0  0.44501  0.79397  0.36381  1.0000
  C   C1862     1.0  0.35055  0.78518  0.38426  1.0000
  C   C1863     1.0  0.47189  0.87485  0.45203  1.0000
  C   C1864     1.0  0.29057  0.80559  0.49464  1.0000
  C   C1865     1.0  0.11940  0.80684  0.63314  1.0000
  C   C1866     1.0  0.34718  0.82004  0.60505  1.0000
  C   C1867     1.0  0.28610  0.79431  0.48272  1.0000
  H   H1491     1.0  0.05965  0.80203  0.33464  1.0000
  H   H1492     1.0  0.34562  0.87661  0.41672  1.0000
  H   H1493     1.0  0.40611  0.83824  0.62819  1.0000
  H   H1494     1.0  0.32557  0.86514  0.39875  1.0000
  C   C1868     1.0  0.45864  0.93099  0.52539  1.0000
  C   C1869     1.0  0.36817  0.86066  0.36730  1.0000
  H   H1495     1.0  0.35392  0.76986  0.38949  1.0000
  H   H1496     1.0  0.40986  0.93734  0.49476  1.0000
  C   C1870     1.0  0.36032  0.73634  0.31641  1.0000
  C   C1871     1.0  0.40223  0.85440  0.31991  1.0000
  C   C1872     1.0  0.19139  0.81370  0.62750  1.0000
  P   P63       1.0  0.33435  0.85010  0.36200  1.0000
  C   C1873     1.0  0.22213  0.84102  0.63402  1.0000
  C   C1874     1.0  0.10598  0.79474  0.64210  1.0000
  C   C1875     1.0  0.35186  0.87261  0.40268  1.0000
  H   H1497     1.0  0.14700  0.77028  0.37151  1.0000
  C   C1876     1.0  0.12009  0.82306  0.64092  1.0000
  H   H1498     1.0  0.42031  0.86838  0.33153  1.0000
  C   C1877     1.0  0.37140  0.87310  0.39536  1.0000
  H   H1499     1.0  0.35456  0.87910  0.33400  1.0000
  C   C1878     1.0  0.48511  0.78099  0.36092  1.0000
  H   H1500     1.0  0.27489  0.75643  0.42671  1.0000
  H   H1501     1.0  0.42467  0.91243  0.45309  1.0000
  H   H1502     1.0  0.19179  0.88341  0.62317  1.0000
  S   S259      1.0  0.29322  0.75325  0.62472  1.0000
  H   H1503     1.0  0.47764  0.98005  0.41173  1.0000
  C   C1879     1.0  0.47789  0.79632  0.34749  1.0000
  C   C1880     1.0  0.41046  0.78022  0.36317  1.0000
  Fe  Fe132     1.0  0.48556  0.85409  0.33258  1.0000
  C   C1881     1.0  0.29677  0.74921  0.53750  1.0000
  H   H1504     1.0  0.38276  0.82659  0.43666  1.0000
  H   H1505     1.0  0.41351  0.87018  0.61078  1.0000
  C   C1882     1.0  0.48241  0.93144  0.34942  1.0000
  H   H1506     1.0  0.21515  0.76074  0.34667  1.0000
  C   C1883     1.0  0.43342  0.95808  0.42794  1.0000
  H   H1507     1.0  0.24297  0.76582  0.46788  1.0000
  H   H1508     1.0  0.46972  0.90606  0.48791  1.0000
  C   C1884     1.0  0.46750  0.94366  0.42471  1.0000
  C   C1885     1.0  0.41963  0.83917  0.34625  1.0000
  H   H1509     1.0  0.37742  0.95371  0.48913  1.0000
  C   C1886     1.0  0.46099  0.91236  0.49996  1.0000
  C   C1887     1.0  0.37958  0.86710  0.37768  1.0000
  C   C1888     1.0  0.38803  0.81629  0.39128  1.0000
  C   C1889     1.0  0.34182  0.88705  0.63833  1.0000
  C   C1890     1.0  0.30130  0.91617  0.63809  1.0000
  C   C1891     1.0  0.29703  0.73404  0.38561  1.0000
  H   H1510     1.0  0.32239  0.83455  0.33257  1.0000
  C   C1892     1.0  0.45247  0.91056  0.63677  1.0000
  C   C1893     1.0  0.45125  0.95323  0.41632  1.0000
  H   H1511     1.0  0.44263  0.77081  0.38829  1.0000
  C   C1894     1.0  0.33073  0.84579  0.32532  1.0000
  H   H1512     1.0  0.26249  0.77485  0.57344  1.0000
  H   H1513     1.0  0.45808  0.92995  0.58897  1.0000
  C   C1895     1.0  0.18271  0.76484  0.54345  1.0000
  C   C1896     1.0  0.39964  0.84512  0.61555  1.0000
  C   C1897     1.0  0.06275  0.81523  0.32518  1.0000
  C   C1898     1.0  0.14156  0.74145  0.38474  1.0000
  C   C1899     1.0  0.46953  0.92266  0.50972  1.0000
  H   H1514     1.0  0.41798  0.95795  0.45702  1.0000
  C   C1900     1.0  0.29045  0.80452  0.32717  1.0000
  H   H1515     1.0  0.29797  0.84210  0.61066  1.0000
  H   H1516     1.0  0.39430  0.80837  0.33514  1.0000
  H   H1517     1.0  0.24494  0.75051  0.56852  1.0000
  H   H1518     1.0  0.27198  0.80394  0.62352  1.0000
  P   P64       1.0  0.22232  0.74941  0.53879  1.0000
  C   C1901     1.0  0.15256  0.75195  0.32261  1.0000
  H   H1519     1.0  0.29441  0.75238  0.32365  1.0000
  C   C1902     1.0  0.38668  0.83629  0.60941  1.0000
  C   C1903     1.0  0.15508  0.80570  0.32763  1.0000
  H   H1520     1.0  0.47794  0.75989  0.38594  1.0000
  C   C1904     1.0  0.19210  0.74993  0.36774  1.0000
  C   C1905     1.0  0.05380  0.90760  0.32149  1.0000
  H   H1521     1.0  0.48488  0.86407  0.45154  1.0000
  H   H1522     1.0  0.33844  0.75623  0.49429  1.0000
  H   H1523     1.0  0.36222  0.74962  0.43760  1.0000
  C   C1906     1.0  0.20802  0.74013  0.50897  1.0000
  H   H1524     1.0  0.21878  0.74977  0.45979  1.0000
  C   C1907     1.0  0.27769  0.75160  0.44140  1.0000
  S   S260      1.0  0.40455  0.90078  0.64385  1.0000
  C   C1908     1.0  0.40397  0.86303  0.60564  1.0000
  H   H1525     1.0  0.45996  0.95596  0.63718  1.0000
  H   H1526     1.0  0.30350  0.96950  0.61388  1.0000
  C   C1909     1.0  0.08408  0.88678  0.62496  1.0000
  C   C1910     1.0  0.32658  0.75407  0.50604  1.0000
  H   H1527     1.0  0.16221  0.80920  0.62900  1.0000
  C   C1911     1.0  0.36075  0.87768  0.63956  1.0000
  H   H1528     1.0  0.18441  0.76912  0.52791  1.0000
  H   H1529     1.0  0.04088  0.90932  0.33229  1.0000
  H   H1530     1.0  0.08120  0.88670  0.61068  1.0000
  H   H1531     1.0  0.46269  0.95772  0.60220  1.0000
  H   H1532     1.0  0.31306  0.85596  0.63146  1.0000
  H   H1533     1.0  0.42093  0.96527  0.42134  1.0000
  C   C1912     1.0  0.47327  0.92588  0.38421  1.0000
  H   H1534     1.0  0.07379  0.82550  0.34641  1.0000
  C   C1913     1.0  0.39511  0.83739  0.32093  1.0000
  C   C1914     1.0  0.29928  0.86320  0.62772  1.0000
  H   H1535     1.0  0.15209  0.77600  0.54762  1.0000
  H   H1536     1.0  0.13940  0.76207  0.32589  1.0000
  C   C1915     1.0  0.07062  0.82851  0.33183  1.0000
  C   C1916     1.0  0.07844  0.90365  0.63306  1.0000
  C   C1917     1.0  0.20279  0.87310  0.62990  1.0000
  C   C1918     1.0  0.32925  0.81595  0.63778  1.0000
  C   C1919     1.0  0.29017  0.88040  0.63442  1.0000
  C   C1920     1.0  0.45870  0.94330  0.63178  1.0000
  C   C1921     1.0  0.21144  0.87828  0.64357  1.0000
  S   S261      1.0  0.11804  0.80681  0.31880  1.0000
  C   C1922     1.0  0.29800  0.94998  0.64063  1.0000
  C   C1923     1.0  0.32152  0.80098  0.63390  1.0000
  H   H1537     1.0  0.10579  0.78192  0.63630  1.0000
  H   H1538     1.0  0.31131  0.79386  0.64491  1.0000
  C   C1924     1.0  0.45542  0.92612  0.64441  1.0000
  H   H1539     1.0  0.41124  0.75248  0.32945  1.0000
  C   C1925     1.0  0.24599  0.78090  0.64507  1.0000
  H   H1540     1.0  0.28924  0.73779  0.39932  1.0000
  C   C1926     1.0  0.38003  0.73638  0.31538  1.0000
  C   C1927     1.0  0.27182  0.73457  0.45201  1.0000
  C   C1928     1.0  0.06669  0.92071  0.31792  1.0000
  C   C1929     1.0  0.07526  0.84524  0.31941  1.0000
  H   H1541     1.0  0.06379  0.93257  0.32596  1.0000
  P   P65       1.0  0.16316  0.73510  0.39571  1.0000
  C   C1930     1.0  0.24384  0.73396  0.39605  1.0000
  H   H1542     1.0  0.16102  0.80139  0.31383  1.0000
  C   C1931     1.0  0.18301  0.73382  0.37585  1.0000
  H   H1543     1.0  0.17155  0.77116  0.64622  1.0000
  H   H1544     1.0  0.39309  0.73374  0.35790  1.0000
  H   H1545     1.0  0.04739  0.88227  0.31401  1.0000
  C   C1932     1.0  0.32235  0.76160  0.66971  1.0000
  C   C1933     1.0  0.48546  0.89745  0.68332  1.0000
  H   H1546     1.0  0.05847  0.89883  0.93342  1.0000
  C   C1934     1.0  0.23094  0.74459  0.81170  1.0000
  C   C1935     1.0  0.36571  0.75510  0.75364  1.0000
  Fe  Fe133     1.0  0.15212  0.82908  0.75215  1.0000
  S   S262      1.0  0.18382  0.81909  0.75256  1.0000
  S   S263      1.0  0.13276  0.84842  0.77286  1.0000
  Fe  Fe134     1.0  0.15233  0.80410  0.72069  1.0000
  S   S264      1.0  0.18408  0.79307  0.71904  1.0000
  S   S265      1.0  0.13285  0.79145  0.70635  1.0000
  Fe  Fe135     1.0  0.17837  0.78974  0.75134  1.0000
  S   S266      1.0  0.19351  0.76322  0.76853  1.0000
  Fe  Fe136     1.0  0.18657  0.82350  0.72028  1.0000
  S   S267      1.0  0.21142  0.83601  0.70076  1.0000
  S   S268      1.0  0.14626  0.79904  0.75320  1.0000
  S   S269      1.0  0.15508  0.83530  0.71961  1.0000
  Fe  Fe137     1.0  0.33383  0.81536  0.71568  1.0000
  S   S270      1.0  0.35613  0.82580  0.72723  1.0000
  S   S271      1.0  0.34434  0.79985  0.69012  1.0000
  Fe  Fe138     1.0  0.30073  0.83307  0.74383  1.0000
  S   S272      1.0  0.32042  0.84445  0.75789  1.0000
  S   S273      1.0  0.26905  0.84035  0.75534  1.0000
  Fe  Fe139     1.0  0.33505  0.85350  0.72749  1.0000
  S   S274      1.0  0.33992  0.88429  0.71665  1.0000
  Fe  Fe140     1.0  0.33928  0.81556  0.75641  1.0000
  S   S275      1.0  0.35449  0.79691  0.78023  1.0000
  S   S276      1.0  0.31403  0.84386  0.71358  1.0000
  S   S277      1.0  0.31834  0.80332  0.74477  1.0000
  C   C1936     1.0  0.14437  0.82360  0.93774  1.0000
  Fe  Fe141     1.0  0.12915  0.92984  0.87840  1.0000
  S   S278      1.0  0.15805  0.92866  0.85851  1.0000
  S   S279      1.0  0.12075  0.90653  0.90441  1.0000
  C   C1937     1.0  0.31634  0.76013  0.89877  1.0000
  Fe  Fe142     1.0  0.14108  0.93054  0.83462  1.0000
  S   S280      1.0  0.15594  0.91322  0.81025  1.0000
  H   H1547     1.0  0.25420  0.74848  0.73807  1.0000
  S   S281      1.0  0.11242  0.93055  0.85442  1.0000
  C   C1938     1.0  0.35766  0.88815  0.69606  1.0000
  C   C1939     1.0  0.37473  0.87484  0.69317  1.0000
  H   H1548     1.0  0.17682  0.76249  0.92779  1.0000
  H   H1549     1.0  0.19180  0.82087  0.94029  1.0000
  C   C1940     1.0  0.36937  0.90925  0.66678  1.0000
  C   C1941     1.0  0.35504  0.90534  0.68283  1.0000
  H   H1550     1.0  0.37688  0.86160  0.70340  1.0000
  H   H1551     1.0  0.27781  0.77435  0.77884  1.0000
  H   H1552     1.0  0.34179  0.91556  0.68486  1.0000
  C   C1942     1.0  0.13935  0.86673  0.78272  1.0000
  C   C1943     1.0  0.15815  0.87097  0.77857  1.0000
  C   C1944     1.0  0.16284  0.88529  0.78699  1.0000
  C   C1945     1.0  0.14895  0.89545  0.79990  1.0000
  C   C1946     1.0  0.13007  0.89139  0.80387  1.0000
  C   C1947     1.0  0.12531  0.87719  0.79526  1.0000
  H   H1553     1.0  0.16906  0.86335  0.76870  1.0000
  H   H1554     1.0  0.17735  0.88858  0.78333  1.0000
  H   H1555     1.0  0.11913  0.89923  0.81352  1.0000
  H   H1556     1.0  0.11066  0.87421  0.79846  1.0000
  C   C1948     1.0  0.22775  0.83845  0.71507  1.0000
  C   C1949     1.0  0.24773  0.83350  0.70915  1.0000
  C   C1950     1.0  0.26065  0.83410  0.72139  1.0000
  C   C1951     1.0  0.25353  0.83977  0.73945  1.0000
  C   C1952     1.0  0.23362  0.84522  0.74506  1.0000
  C   C1953     1.0  0.22078  0.84466  0.73285  1.0000
  H   H1557     1.0  0.25319  0.82868  0.69539  1.0000
  H   H1558     1.0  0.27603  0.82988  0.71701  1.0000
  H   H1559     1.0  0.22809  0.84987  0.75888  1.0000
  H   H1560     1.0  0.20545  0.84924  0.73714  1.0000
  C   C1954     1.0  0.13038  0.89434  0.92562  1.0000
  C   C1955     1.0  0.12164  0.87913  0.93738  1.0000
  C   C1956     1.0  0.12853  0.86898  0.95431  1.0000
  C   C1957     1.0  0.14411  0.87410  0.96001  1.0000
  C   C1958     1.0  0.15266  0.88958  0.94855  1.0000
  C   C1959     1.0  0.14600  0.89951  0.93133  1.0000
  H   H1561     1.0  0.10913  0.87542  0.93365  1.0000
  H   H1562     1.0  0.12159  0.85741  0.96318  1.0000
  H   H1563     1.0  0.16462  0.89382  0.95293  1.0000
  H   H1564     1.0  0.15280  0.91128  0.92262  1.0000
  H   H1565     1.0  0.27002  0.75768  0.82310  1.0000
  C   C1960     1.0  0.08648  0.82436  0.92159  1.0000
  C   C1961     1.0  0.32068  0.78485  0.80023  1.0000
  C   C1962     1.0  0.34088  0.78153  0.79766  1.0000
  C   C1963     1.0  0.35042  0.76604  0.80951  1.0000
  C   C1964     1.0  0.33446  0.77383  0.67218  1.0000
  C   C1965     1.0  0.42442  0.91759  0.70092  1.0000
  H   H1566     1.0  0.31322  0.79679  0.79120  1.0000
  H   H1567     1.0  0.36604  0.76347  0.80763  1.0000
  C   C1966     1.0  0.48320  0.94719  0.66371  1.0000
  C   C1967     1.0  0.30122  0.75239  0.91154  1.0000
  C   C1968     1.0  0.14862  0.76231  0.81265  1.0000
  C   C1969     1.0  0.16128  0.76841  0.79599  1.0000
  C   C1970     1.0  0.17877  0.75661  0.79054  1.0000
  C   C1971     1.0  0.22574  0.86506  0.65212  1.0000
  C   C1972     1.0  0.25964  0.74891  0.82232  1.0000
  H   H1568     1.0  0.13475  0.77121  0.81632  1.0000
  H   H1569     1.0  0.15746  0.78227  0.78740  1.0000
  C   C1973     1.0  0.28905  0.88882  0.67381  1.0000
  H   H1570     1.0  0.28863  0.77867  0.74351  1.0000
  C   C1974     1.0  0.11433  0.76850  0.96941  1.0000
  H   H1571     1.0  0.08331  0.78903  0.66610  1.0000
  C   C1975     1.0  0.16382  0.75362  0.95728  1.0000
  C   C1976     1.0  0.27077  0.88310  0.67899  1.0000
  H   H1572     1.0  0.36713  0.92249  0.65659  1.0000
  H   H1573     1.0  0.05685  0.83880  0.92349  1.0000
  C   C1977     1.0  0.22047  0.94459  0.77939  1.0000
  H   H1574     1.0  0.45838  0.85377  0.69261  1.0000
  H   H1575     1.0  0.09996  0.87529  0.90212  1.0000
  C   C1978     1.0  0.31273  0.78149  0.70116  1.0000
  C   C1979     1.0  0.32949  0.78401  0.68774  1.0000
  H   H1576     1.0  0.14145  0.76757  0.90749  1.0000
  H   H1577     1.0  0.40108  0.91057  0.72387  1.0000
  H   H1578     1.0  0.30880  0.78938  0.71310  1.0000
  C   C1980     1.0  0.19957  0.75472  0.68142  1.0000
  C   C1981     1.0  0.19417  0.96039  0.80070  1.0000
  C   C1982     1.0  0.48311  0.97174  0.68258  1.0000
  C   C1983     1.0  0.12559  0.76684  0.68461  1.0000
  C   C1984     1.0  0.13890  0.77783  0.68706  1.0000
  C   C1985     1.0  0.15582  0.77877  0.67342  1.0000
  H   H1579     1.0  0.33604  0.95583  0.67479  1.0000
  C   C1986     1.0  0.32960  0.86115  0.66192  1.0000
  H   H1580     1.0  0.11246  0.76598  0.69504  1.0000
  C   C1987     1.0  0.38070  0.76999  0.72230  1.0000
  P   P66       1.0  0.12492  0.80552  0.91829  1.0000
  C   C1988     1.0  0.23250  0.78827  0.68278  1.0000
  H   H1581     1.0  0.22687  0.93236  0.77216  1.0000
  H   H1582     1.0  0.08191  0.92136  0.92811  1.0000
  H   H1583     1.0  0.22718  0.79117  0.69736  1.0000
  H   H1584     1.0  0.12581  0.84700  0.90548  1.0000
  H   H1585     1.0  0.21837  0.81549  0.66978  1.0000
  H   H1586     1.0  0.07753  0.91677  0.65787  1.0000
  P   P67       1.0  0.26321  0.74500  0.92249  1.0000
  H   H1587     1.0  0.09371  0.88720  0.67631  1.0000
  C   C1989     1.0  0.38658  0.89610  0.66404  1.0000
  C   C1990     1.0  0.17918  0.81834  0.93561  1.0000
  H   H1588     1.0  0.31770  0.85458  0.67075  1.0000
  C   C1991     1.0  0.12862  0.75773  0.66824  1.0000
  H   H1589     1.0  0.28840  0.76630  0.70971  1.0000
  C   C1992     1.0  0.48479  0.86326  0.69392  1.0000
  H   H1590     1.0  0.19538  0.79908  0.91646  1.0000
  H   H1591     1.0  0.37543  0.92831  0.70533  1.0000
  C   C1993     1.0  0.30564  0.75907  0.68322  1.0000
  H   H1592     1.0  0.26358  0.88003  0.66833  1.0000
  C   C1994     1.0  0.27334  0.78111  0.74927  1.0000
  C   C1995     1.0  0.39022  0.75187  0.71834  1.0000
  C   C1996     1.0  0.28900  0.88976  0.70760  1.0000
  H   H1593     1.0  0.29566  0.96122  0.64939  1.0000
  C   C1997     1.0  0.46592  0.94248  0.67534  1.0000
  H   H1594     1.0  0.16971  0.73503  0.91548  1.0000
  H   H1595     1.0  0.31238  0.89615  0.68477  1.0000
  C   C1998     1.0  0.34010  0.96161  0.68603  1.0000
  C   C1999     1.0  0.33879  0.95134  0.70486  1.0000
  C   C2000     1.0  0.34408  0.95879  0.71927  1.0000
  C   C2001     1.0  0.32609  0.87890  0.64961  1.0000
  C   C2002     1.0  0.09335  0.79874  0.65892  1.0000
  H   H1596     1.0  0.39959  0.75067  0.70460  1.0000
  H   H1597     1.0  0.08231  0.81031  0.92681  1.0000
  H   H1598     1.0  0.29450  0.77626  0.81728  1.0000
  C   C2003     1.0  0.09878  0.75931  0.94640  1.0000
  C   C2004     1.0  0.07876  0.91245  0.94213  1.0000
  H   H1599     1.0  0.27199  0.74275  0.96146  1.0000
  H   H1600     1.0  0.33377  0.93753  0.70828  1.0000
  H   H1601     1.0  0.34310  0.95076  0.73387  1.0000
  H   H1602     1.0  0.44490  0.94827  0.70069  1.0000
  H   H1603     1.0  0.33076  0.75710  0.90241  1.0000
  H   H1604     1.0  0.26458  0.78999  0.72122  1.0000
  H   H1605     1.0  0.23523  0.81122  0.93543  1.0000
  H   H1606     1.0  0.30132  0.74372  0.75704  1.0000
  C   C2005     1.0  0.11611  0.78658  0.93673  1.0000
  C   C2006     1.0  0.09622  0.86103  0.90751  1.0000
  S   S282      1.0  0.13789  0.73759  0.84541  1.0000
  C   C2007     1.0  0.09590  0.84621  0.69238  1.0000
  C   C2008     1.0  0.13355  0.84949  0.66751  1.0000
  C   C2009     1.0  0.14694  0.83240  0.67037  1.0000
  C   C2010     1.0  0.16602  0.83303  0.67172  1.0000
  H   H1607     1.0  0.32489  0.77672  0.87079  1.0000
  C   C2011     1.0  0.16942  0.75178  0.93765  1.0000
  H   H1608     1.0  0.35118  0.83856  0.67325  1.0000
  C   C2012     1.0  0.10604  0.83850  0.70780  1.0000
  C   C2013     1.0  0.09639  0.83724  0.72689  1.0000
  C   C2014     1.0  0.07644  0.84347  0.73075  1.0000
  C   C2015     1.0  0.06611  0.85086  0.71548  1.0000
  C   C2016     1.0  0.07578  0.85219  0.69636  1.0000
  C   C2017     1.0  0.18955  0.74511  0.69825  1.0000
  C   C2018     1.0  0.25021  0.76678  0.66087  1.0000
  H   H1609     1.0  0.35445  0.98220  0.72629  1.0000
  H   H1610     1.0  0.14728  0.74680  0.71826  1.0000
  C   C2019     1.0  0.22972  0.73708  0.91271  1.0000
  H   H1611     1.0  0.34752  0.77563  0.66184  1.0000
  H   H1612     1.0  0.09061  0.74967  0.94281  1.0000
  C   C2020     1.0  0.42948  0.92672  0.68177  1.0000
  C   C2021     1.0  0.09695  0.86992  0.65389  1.0000
  S   S283      1.0  0.17308  0.98291  0.84355  1.0000
  H   H1613     1.0  0.14241  0.81855  0.67225  1.0000
  H   H1614     1.0  0.17603  0.81974  0.67477  1.0000
  C   C2022     1.0  0.12738  0.80982  0.87824  1.0000
  C   C2023     1.0  0.13728  0.78325  0.86032  1.0000
  C   C2024     1.0  0.22155  0.78966  0.95597  1.0000
  H   H1615     1.0  0.12138  0.83324  0.70516  1.0000
  H   H1616     1.0  0.10444  0.83134  0.73869  1.0000
  H   H1617     1.0  0.06901  0.84245  0.74558  1.0000
  H   H1618     1.0  0.05061  0.85551  0.71849  1.0000
  H   H1619     1.0  0.06754  0.85778  0.68470  1.0000
  H   H1620     1.0  0.38407  0.94609  0.67233  1.0000
  H   H1621     1.0  0.30424  0.74355  0.92506  1.0000
  H   H1622     1.0  0.14657  0.75545  0.87664  1.0000
  C   C2025     1.0  0.16081  0.82693  0.94348  1.0000
  H   H1623     1.0  0.20703  0.89249  0.64761  1.0000
  C   C2026     1.0  0.08199  0.90372  0.65154  1.0000
  C   C2027     1.0  0.20247  0.94463  0.79142  1.0000
  H   H1624     1.0  0.15934  0.83584  0.95439  1.0000
  C   C2028     1.0  0.38927  0.87892  0.67728  1.0000
  C   C2029     1.0  0.14484  0.75988  0.65388  1.0000
  H   H1625     1.0  0.40253  0.86870  0.67518  1.0000
  C   C2030     1.0  0.24336  0.75682  0.81340  1.0000
  C   C2031     1.0  0.17202  0.85077  0.66992  1.0000
  H   H1626     1.0  0.29634  0.89181  0.71873  1.0000
  Fe  Fe143     1.0  0.15178  0.96138  0.85415  1.0000
  H   H1627     1.0  0.23070  0.79212  0.88456  1.0000
  H   H1628     1.0  0.21895  0.75022  0.80390  1.0000
  C   C2032     1.0  0.38738  0.73530  0.73196  1.0000
  C   C2033     1.0  0.06567  0.89964  0.94511  1.0000
  C   C2034     1.0  0.08708  0.82421  0.97409  1.0000
  H   H1629     1.0  0.26422  0.88136  0.72772  1.0000
  H   H1630     1.0  0.35602  0.75671  0.76716  1.0000
  C   C2035     1.0  0.41484  0.93744  0.67167  1.0000
  H   H1631     1.0  0.16657  0.79299  0.90619  1.0000
  H   H1632     1.0  0.32539  0.82005  0.65203  1.0000
  H   H1633     1.0  0.43545  0.90951  0.70914  1.0000
  C   C2036     1.0  0.27092  0.88389  0.71265  1.0000
  P   P68       1.0  0.10847  0.84825  0.66769  1.0000
  H   H1634     1.0  0.08441  0.81741  0.68008  1.0000
  H   H1635     1.0  0.38251  0.78286  0.71164  1.0000
  C   C2037     1.0  0.18414  0.73912  0.80244  1.0000
  C   C2038     1.0  0.30104  0.76874  0.69909  1.0000
  H   H1636     1.0  0.12946  0.79237  0.95918  1.0000
  H   H1637     1.0  0.12667  0.76553  0.74239  1.0000
  C   C2039     1.0  0.29458  0.77485  0.87606  1.0000
  H   H1638     1.0  0.36143  0.78556  0.74318  1.0000
  H   H1639     1.0  0.22865  0.87517  0.78480  1.0000
  S   S284      1.0  0.16961  0.77344  0.96526  1.0000
  H   H1640     1.0  0.23337  0.74132  0.95663  1.0000
  C   C2040     1.0  0.13546  0.85376  0.83865  1.0000
  C   C2041     1.0  0.12251  0.86639  0.84958  1.0000
  C   C2042     1.0  0.12888  0.87400  0.86323  1.0000
  C   C2043     1.0  0.14803  0.86856  0.86638  1.0000
  C   C2044     1.0  0.16108  0.85556  0.85567  1.0000
  C   C2045     1.0  0.15475  0.84880  0.84134  1.0000
  P   P69       1.0  0.18626  0.84910  0.85853  1.0000
  C   C2046     1.0  0.20012  0.85716  0.83533  1.0000
  C   C2047     1.0  0.19020  0.86126  0.87688  1.0000
  C   C2048     1.0  0.20114  0.87629  0.87222  1.0000
  C   C2049     1.0  0.20295  0.88619  0.88658  1.0000
  C   C2050     1.0  0.19397  0.88111  0.90564  1.0000
  C   C2051     1.0  0.18328  0.86602  0.91040  1.0000
  C   C2052     1.0  0.18143  0.85610  0.89610  1.0000
  C   C2053     1.0  0.21574  0.84483  0.82648  1.0000
  C   C2054     1.0  0.10354  0.75629  0.96488  1.0000
  C   C2055     1.0  0.22077  0.87021  0.79893  1.0000
  C   C2056     1.0  0.20526  0.88250  0.80765  1.0000
  C   C2057     1.0  0.19488  0.87597  0.82568  1.0000
  C   C2058     1.0  0.19360  0.82344  0.86609  1.0000
  C   C2059     1.0  0.18278  0.80985  0.86402  1.0000
  C   C2060     1.0  0.18937  0.79008  0.86902  1.0000
  C   C2061     1.0  0.20665  0.78369  0.87635  1.0000
  C   C2062     1.0  0.21736  0.79709  0.87875  1.0000
  C   C2063     1.0  0.21091  0.81688  0.87360  1.0000
  H   H1641     1.0  0.13076  0.84852  0.82745  1.0000
  H   H1642     1.0  0.10777  0.87093  0.84688  1.0000
  H   H1643     1.0  0.11917  0.88462  0.87099  1.0000
  H   H1644     1.0  0.15253  0.87520  0.87668  1.0000
  H   H1645     1.0  0.16489  0.84006  0.83193  1.0000
  H   H1646     1.0  0.20803  0.88070  0.85756  1.0000
  H   H1647     1.0  0.21103  0.89808  0.88285  1.0000
  H   H1648     1.0  0.19501  0.88906  0.91668  1.0000
  H   H1649     1.0  0.17601  0.86237  0.92511  1.0000
  H   H1650     1.0  0.17255  0.84488  0.89988  1.0000
  H   H1651     1.0  0.21994  0.83012  0.83331  1.0000
  H   H1652     1.0  0.46012  0.97404  0.70681  1.0000
  H   H1653     1.0  0.32612  0.75389  0.65758  1.0000
  H   H1654     1.0  0.20093  0.89701  0.80031  1.0000
  H   H1655     1.0  0.18269  0.88564  0.83207  1.0000
  H   H1656     1.0  0.16932  0.81429  0.85850  1.0000
  H   H1657     1.0  0.18104  0.77967  0.86718  1.0000
  H   H1658     1.0  0.21172  0.76836  0.88015  1.0000
  C   C2064     1.0  0.36867  0.77156  0.74002  1.0000
  H   H1659     1.0  0.21953  0.82710  0.87527  1.0000
  H   H1660     1.0  0.18669  0.85121  0.67146  1.0000
  S   S285      1.0  0.13672  0.96293  0.82903  1.0000
  C   C2065     1.0  0.46654  0.90029  0.67935  1.0000
  S   S286      1.0  0.30567  0.74404  0.84590  1.0000
  H   H1661     1.0  0.29440  0.92752  0.66502  1.0000
  C   C2066     1.0  0.31050  0.73510  0.76701  1.0000
  P   P70       1.0  0.23946  0.78197  0.80252  1.0000
  C   C2067     1.0  0.21457  0.79378  0.80707  1.0000
  C   C2068     1.0  0.25274  0.79535  0.81262  1.0000
  C   C2069     1.0  0.26477  0.80771  0.80067  1.0000
  C   C2070     1.0  0.27472  0.81822  0.80868  1.0000
  C   C2071     1.0  0.27263  0.81657  0.82872  1.0000
  C   C2072     1.0  0.26044  0.80451  0.84077  1.0000
  C   C2073     1.0  0.25048  0.79396  0.83275  1.0000
  C   C2074     1.0  0.20020  0.78439  0.81946  1.0000
  C   C2075     1.0  0.18077  0.79307  0.82074  1.0000
  C   C2076     1.0  0.17559  0.81137  0.81020  1.0000
  C   C2077     1.0  0.18995  0.82139  0.79900  1.0000
  C   C2078     1.0  0.20936  0.81263  0.79738  1.0000
  C   C2079     1.0  0.24737  0.78290  0.77680  1.0000
  C   C2080     1.0  0.23388  0.78804  0.76405  1.0000
  C   C2081     1.0  0.24011  0.79041  0.74410  1.0000
  C   C2082     1.0  0.25984  0.78731  0.73671  1.0000
  C   C2083     1.0  0.26175  0.88069  0.69835  1.0000
  C   C2084     1.0  0.26714  0.77870  0.76928  1.0000
  H   H1662     1.0  0.12193  0.82501  0.87831  1.0000
  P   P71       1.0  0.45453  0.92409  0.67019  1.0000
  C   C2085     1.0  0.31008  0.77315  0.81498  1.0000
  H   H1663     1.0  0.29901  0.97453  0.74896  1.0000
  H   H1664     1.0  0.44223  0.88615  0.67987  1.0000
  H   H1665     1.0  0.26643  0.80946  0.78514  1.0000
  H   H1666     1.0  0.28408  0.82763  0.79922  1.0000
  H   H1667     1.0  0.28054  0.82461  0.83485  1.0000
  H   H1668     1.0  0.25884  0.80326  0.85628  1.0000
  H   H1669     1.0  0.24111  0.78460  0.84219  1.0000
  H   H1670     1.0  0.20371  0.77023  0.82777  1.0000
  H   H1671     1.0  0.16970  0.78528  0.82943  1.0000
  H   H1672     1.0  0.16047  0.81778  0.81054  1.0000
  H   H1673     1.0  0.18597  0.83568  0.79095  1.0000
  H   H1674     1.0  0.22024  0.82022  0.78785  1.0000
  H   H1675     1.0  0.21850  0.79053  0.76933  1.0000
  H   H1676     1.0  0.22960  0.79512  0.73439  1.0000
  C   C2086     1.0  0.14144  0.77068  0.87710  1.0000
  C   C2087     1.0  0.10607  0.82645  0.91670  1.0000
  C   C2088     1.0  0.46648  0.96652  0.69478  1.0000
  H   H1677     1.0  0.24387  0.96012  0.76696  1.0000
  C   C2089     1.0  0.22098  0.76999  0.96182  1.0000
  C   C2090     1.0  0.16562  0.73610  0.93064  1.0000
  C   C2091     1.0  0.34855  0.85193  0.66325  1.0000
  H   H1678     1.0  0.21648  0.75222  0.65317  1.0000
  H   H1679     1.0  0.10113  0.77648  0.91813  1.0000
  C   C2092     1.0  0.15890  0.86790  0.66682  1.0000
  H   H1680     1.0  0.20017  0.76990  0.68012  1.0000
  H   H1681     1.0  0.12974  0.88071  0.66375  1.0000
  P   P72       1.0  0.30151  0.89117  0.64906  1.0000
  H   H1682     1.0  0.16349  0.88162  0.66586  1.0000
  C   C2093     1.0  0.39048  0.92844  0.69903  1.0000
  C   C2094     1.0  0.07193  0.84052  0.91967  1.0000
  C   C2095     1.0  0.06220  0.88766  0.96300  1.0000
  C   C2096     1.0  0.09408  0.81486  0.66683  1.0000
  C   C2097     1.0  0.14623  0.81141  0.92415  1.0000
  H   H1683     1.0  0.24784  0.87587  0.70240  1.0000
  H   H1684     1.0  0.23796  0.84196  0.80139  1.0000
  H   H1685     1.0  0.21161  0.80001  0.96388  1.0000
  Fe  Fe144     1.0  0.10930  0.96309  0.85069  1.0000
  H   H1686     1.0  0.24411  0.73835  0.77313  1.0000
  H   H1687     1.0  0.13022  0.83002  0.94436  1.0000
  C   C2098     1.0  0.13971  0.86730  0.66567  1.0000
  H   H1688     1.0  0.25766  0.78767  0.91728  1.0000
  S   S287      1.0  0.29061  0.74337  0.68113  1.0000
  C   C2099     1.0  0.26138  0.73507  0.74541  1.0000
  H   H1689     1.0  0.16632  0.78694  0.67519  1.0000
  C   C2100     1.0  0.40497  0.91828  0.70941  1.0000
  C   C2101     1.0  0.39540  0.93832  0.68034  1.0000
  C   C2102     1.0  0.22787  0.80226  0.66702  1.0000
  S   S288      1.0  0.12396  0.96259  0.87586  1.0000
  H   H1690     1.0  0.11771  0.75023  0.66609  1.0000
  C   C2103     1.0  0.31958  0.75770  0.82689  1.0000
  H   H1691     1.0  0.19483  0.93253  0.79355  1.0000
  C   C2104     1.0  0.31304  0.77129  0.88101  1.0000
  C   C2105     1.0  0.13930  0.74818  0.76637  1.0000
  H   H1692     1.0  0.13901  0.77770  0.84701  1.0000
  C   C2106     1.0  0.07680  0.85885  0.91261  1.0000
  C   C2107     1.0  0.13737  0.75333  0.74691  1.0000
  C   C2108     1.0  0.20879  0.74479  0.66626  1.0000
  H   H1693     1.0  0.13024  0.75646  0.77694  1.0000
  C   C2109     1.0  0.29808  0.89216  0.68829  1.0000
  H   H1694     1.0  0.27231  0.97591  0.77677  1.0000
  C   C2110     1.0  0.22601  0.85142  0.80835  1.0000
  C   C2111     1.0  0.18118  0.80627  0.92202  1.0000
  H   H1695     1.0  0.09889  0.92294  0.95449  1.0000
  C   C2112     1.0  0.09117  0.88693  0.66194  1.0000
  C   C2113     1.0  0.10748  0.82716  0.65788  1.0000
  C   C2114     1.0  0.16476  0.80284  0.91626  1.0000
  H   H1696     1.0  0.18029  0.96037  0.81017  1.0000
  H   H1697     1.0  0.42375  0.97931  0.70636  1.0000
  H   H1698     1.0  0.05050  0.97808  0.81737  1.0000
  C   C2115     1.0  0.07171  0.88852  0.97813  1.0000
  H   H1699     1.0  0.18275  0.75301  0.70989  1.0000
  C   C2116     1.0  0.15868  0.76993  0.65690  1.0000
  C   C2117     1.0  0.45789  0.95194  0.69120  1.0000
  C   C2118     1.0  0.08831  0.91339  0.95705  1.0000
  H   H1700     1.0  0.06556  0.87137  0.91096  1.0000
  C   C2119     1.0  0.15392  0.74486  0.82456  1.0000
  C   C2120     1.0  0.12066  0.78352  0.95541  1.0000
  C   C2121     1.0  0.15480  0.73927  0.96996  1.0000
  C   C2122     1.0  0.11083  0.84495  0.90960  1.0000
  C   C2123     1.0  0.10490  0.77446  0.93241  1.0000
  H   H1701     1.0  0.24745  0.75962  0.69184  1.0000
  C   C2124     1.0  0.23011  0.96040  0.77654  1.0000
  H   H1702     1.0  0.34282  0.74194  0.70495  1.0000
  C   C2125     1.0  0.23481  0.79593  0.93991  1.0000
  C   C2126     1.0  0.29747  0.93080  0.64943  1.0000
  C   C2127     1.0  0.46598  0.86595  0.68999  1.0000
  C   C2128     1.0  0.28267  0.75565  0.90653  1.0000
  C   C2129     1.0  0.24708  0.76266  0.93554  1.0000
  H   H1703     1.0  0.29238  0.78279  0.86190  1.0000
  C   C2130     1.0  0.13068  0.79710  0.89537  1.0000
  H   H1704     1.0  0.25852  0.75285  0.65857  1.0000
  C   C2131     1.0  0.33981  0.75398  0.82393  1.0000
  H   H1705     1.0  0.26546  0.76921  0.88425  1.0000
  H   H1706     1.0  0.12745  0.81252  0.84767  1.0000
  C   C2132     1.0  0.23386  0.75653  0.95183  1.0000
  C   C2133     1.0  0.14924  0.74281  0.73324  1.0000
  C   C2134     1.0  0.24751  0.78249  0.92965  1.0000
  C   C2135     1.0  0.13058  0.80284  0.86078  1.0000
  C   C2136     1.0  0.24379  0.77055  0.67969  1.0000
  C   C2137     1.0  0.27946  0.76696  0.88867  1.0000
  C   C2138     1.0  0.45688  0.88436  0.68274  1.0000
  H   H1707     1.0  0.05058  0.96943  0.78545  1.0000
  C   C2139     1.0  0.23534  0.79903  0.64803  1.0000
  C   C2140     1.0  0.13837  0.77759  0.89455  1.0000
  H   H1708     1.0  0.34729  0.74218  0.83307  1.0000
  C   C2141     1.0  0.35063  0.97654  0.71487  1.0000
  C   C2142     1.0  0.34652  0.97944  0.68159  1.0000
  H   H1709     1.0  0.41839  0.94470  0.65696  1.0000
  H   H1710     1.0  0.37877  0.85342  0.65371  1.0000
  H   H1711     1.0  0.21034  0.76521  0.97398  1.0000
  H   H1712     1.0  0.09415  0.82114  0.95996  1.0000
  H   H1713     1.0  0.23231  0.86889  0.66292  1.0000
  H   H1714     1.0  0.05240  0.87744  0.96493  1.0000
  H   H1715     1.0  0.24267  0.83674  0.65371  1.0000
  C   C2143     1.0  0.08327  0.84317  0.97772  1.0000
  H   H1716     1.0  0.22142  0.74365  0.92477  1.0000
  H   H1717     1.0  0.38652  0.74002  0.78353  1.0000
  H   H1718     1.0  0.38929  0.97999  0.70626  1.0000
  C   C2144     1.0  0.37477  0.73677  0.74961  1.0000
  H   H1719     1.0  0.33653  0.73641  0.74628  1.0000
  C   C2145     1.0  0.22178  0.97636  0.78579  1.0000
  H   H1720     1.0  0.09912  0.74431  0.97560  1.0000
  H   H1721     1.0  0.08766  0.85444  0.96615  1.0000
  C   C2146     1.0  0.36410  0.86023  0.65215  1.0000
  C   C2147     1.0  0.08482  0.90152  0.97499  1.0000
  C   C2148     1.0  0.20371  0.97619  0.79784  1.0000
  C   C2149     1.0  0.24996  0.73582  0.90819  1.0000
  H   H1722     1.0  0.22514  0.98184  0.82324  1.0000
  C   C2150     1.0  0.23135  0.84666  0.64708  1.0000
  H   H1723     1.0  0.40020  0.73422  0.81346  1.0000
  C   C2151     1.0  0.04086  0.98201  0.78991  1.0000
  C   C2152     1.0  0.17192  0.73348  0.81970  1.0000
  P   P73       1.0  0.84110  0.13311  0.12980  1.0000
  S   S289      1.0  0.81800  0.01871  0.11256  1.0000
  H   H1724     1.0  0.82582  0.01256  0.23447  1.0000
  Fe  Fe145     1.0  0.65158  0.12487  0.27205  1.0000
  S   S290      1.0  0.63327  0.10645  0.26430  1.0000
  Fe  Fe146     1.0  0.68621  0.11203  0.24314  1.0000
  S   S291      1.0  0.67106  0.09261  0.23280  1.0000
  S   S292      1.0  0.71655  0.11576  0.22968  1.0000
  Fe  Fe147     1.0  0.64617  0.11715  0.23363  1.0000
  S   S293      1.0  0.62735  0.12446  0.21066  1.0000
  Fe  Fe148     1.0  0.65977  0.08373  0.26424  1.0000
  S   S294      1.0  0.66224  0.05200  0.27660  1.0000
  S   S295      1.0  0.66224  0.13747  0.24143  1.0000
  S   S296      1.0  0.67713  0.10128  0.27459  1.0000
  Fe  Fe149     1.0  0.84278  0.08652  0.24801  1.0000
  S   S297      1.0  0.81281  0.09788  0.24217  1.0000
  S   S298      1.0  0.86083  0.06724  0.22668  1.0000
  Fe  Fe150     1.0  0.83733  0.11107  0.28077  1.0000
  S   S299      1.0  0.80672  0.12365  0.27678  1.0000
  C   C2153     1.0  0.69660  0.19531  0.19385  1.0000
  Fe  Fe151     1.0  0.80374  0.09382  0.27423  1.0000
  H   H1725     1.0  0.55243  0.21840  0.27971  1.0000
  Fe  Fe152     1.0  0.81840  0.12663  0.24507  1.0000
  S   S300      1.0  0.80519  0.15256  0.22577  1.0000
  S   S301      1.0  0.83350  0.08038  0.28040  1.0000
  S   S302      1.0  0.84939  0.11610  0.24878  1.0000
  Fe  Fe153     1.0  0.81855  0.14175  0.01822  1.0000
  S   S303      1.0  0.84825  0.12433  0.01934  1.0000
  S   S304      1.0  0.80171  0.16040  0.04052  1.0000
  C   C2154     1.0  0.63293  0.00278  0.23261  1.0000
  H   H1726     1.0  0.95020  0.18523  0.18915  1.0000
  Fe  Fe154     1.0  0.83517  0.09983  0.01476  1.0000
  S   S305      1.0  0.84567  0.06954  0.03068  1.0000
  C   C2155     1.0  0.73968  0.20850  0.15453  1.0000
  S   S306      1.0  0.80496  0.11685  0.01498  1.0000
  C   C2156     1.0  0.75041  0.04991  0.11741  1.0000
  Fe  Fe155     1.0  0.83938  0.21888  0.13939  1.0000
  H   H1727     1.0  0.64449  0.20715  0.05012  1.0000
  S   S307      1.0  0.85866  0.19611  0.15654  1.0000
  H   H1728     1.0  0.71459  0.08760  0.10784  1.0000
  C   C2157     1.0  0.75753  0.15690  0.99175  1.0000
  S   S308      1.0  0.63847  0.14287  0.29519  1.0000
  H   H1729     1.0  0.82384  0.16859  0.14553  1.0000
  S   S309      1.0  0.81838  0.20881  0.12591  1.0000
  H   H1730     1.0  0.84201  0.09076  0.06981  1.0000
  H   H1731     1.0  0.71925  0.14527  0.05034  1.0000
  H   H1732     1.0  0.83318  0.04109  0.24471  1.0000
  S   S310      1.0  0.62683  0.19824  0.14472  1.0000
  S   S311      1.0  0.72380  0.18497  0.11499  1.0000
  S   S312      1.0  0.67015  0.20519  0.10360  1.0000
  C   C2158     1.0  0.76530  0.20944  0.12673  1.0000
  C   C2159     1.0  0.75546  0.19966  0.11766  1.0000
  C   C2160     1.0  0.73765  0.19454  0.12702  1.0000
  H   H1733     1.0  0.77880  0.21386  0.11932  1.0000
  H   H1734     1.0  0.76126  0.19677  0.10318  1.0000
  C   C2161     1.0  0.81066  0.17794  0.04919  1.0000
  C   C2162     1.0  0.79965  0.18615  0.06505  1.0000
  C   C2163     1.0  0.80592  0.20050  0.07203  1.0000
  C   C2164     1.0  0.82305  0.20726  0.06284  1.0000
  C   C2165     1.0  0.83404  0.19911  0.04694  1.0000
  C   C2166     1.0  0.82808  0.18429  0.04036  1.0000
  H   H1735     1.0  0.78612  0.18146  0.07196  1.0000
  H   H1736     1.0  0.79719  0.20677  0.08413  1.0000
  H   H1737     1.0  0.84727  0.20430  0.03968  1.0000
  H   H1738     1.0  0.83672  0.17815  0.02815  1.0000
  C   C2167     1.0  0.72816  0.08000  0.11208  1.0000
  H   H1739     1.0  0.83587  0.22393  0.21230  1.0000
  H   H1740     1.0  0.86423  0.02311  0.18076  1.0000
  C   C2168     1.0  0.73281  0.06004  0.11240  1.0000
  Fe  Fe156     1.0  0.65256  0.21285  0.13156  1.0000
  C   C2169     1.0  0.82048  0.16341  0.20604  1.0000
  C   C2170     1.0  0.81221  0.17876  0.19326  1.0000
  C   C2171     1.0  0.82394  0.18856  0.17798  1.0000
  C   C2172     1.0  0.84406  0.18316  0.17537  1.0000
  C   C2173     1.0  0.85240  0.16759  0.18800  1.0000
  C   C2174     1.0  0.84060  0.15766  0.20332  1.0000
  H   H1741     1.0  0.79667  0.18325  0.19525  1.0000
  H   H1742     1.0  0.81729  0.20033  0.16827  1.0000
  H   H1743     1.0  0.86795  0.16331  0.18604  1.0000
  H   H1744     1.0  0.84708  0.14588  0.21321  1.0000
  H   H1745     1.0  0.80435  0.11799  0.13745  1.0000
  C   C2175     1.0  0.62865  0.14493  0.19237  1.0000
  C   C2176     1.0  0.61416  0.14999  0.18087  1.0000
  C   C2177     1.0  0.61393  0.16636  0.16648  1.0000
  C   C2178     1.0  0.62846  0.17768  0.16299  1.0000
  C   C2179     1.0  0.64325  0.17261  0.17430  1.0000
  C   C2180     1.0  0.64326  0.15628  0.18913  1.0000
  H   H1746     1.0  0.60285  0.14134  0.18329  1.0000
  H   H1747     1.0  0.60245  0.17019  0.15789  1.0000
  H   H1748     1.0  0.65445  0.18134  0.17186  1.0000
  H   H1749     1.0  0.65450  0.15246  0.19797  1.0000
  H   H1750     1.0  0.68004  0.14265  0.28403  1.0000
  C   C2181     1.0  0.73271  0.10612  0.24602  1.0000
  C   C2182     1.0  0.74910  0.11449  0.24449  1.0000
  C   C2183     1.0  0.76247  0.10681  0.25699  1.0000
  C   C2184     1.0  0.75947  0.09083  0.27127  1.0000
  C   C2185     1.0  0.74298  0.08244  0.27300  1.0000
  C   C2186     1.0  0.72959  0.09008  0.26035  1.0000
  H   H1751     1.0  0.75129  0.12723  0.23393  1.0000
  H   H1752     1.0  0.77477  0.11380  0.25594  1.0000
  H   H1753     1.0  0.77702  0.05172  0.12615  1.0000
  C   C2187     1.0  0.86652  0.10168  0.14541  1.0000
  C   C2188     1.0  0.82648  0.03315  0.09023  1.0000
  C   C2189     1.0  0.81471  0.05052  0.08361  1.0000
  C   C2190     1.0  0.82044  0.06204  0.06567  1.0000
  C   C2191     1.0  0.83801  0.05625  0.05397  1.0000
  C   C2192     1.0  0.84986  0.03901  0.06071  1.0000
  C   C2193     1.0  0.84423  0.02761  0.07874  1.0000
  H   H1754     1.0  0.80094  0.05498  0.09227  1.0000
  H   H1755     1.0  0.81111  0.07518  0.06070  1.0000
  H   H1756     1.0  0.86347  0.03434  0.05185  1.0000
  H   H1757     1.0  0.85344  0.01432  0.08354  1.0000
  C   C2194     1.0  0.84424  0.01593  0.20677  1.0000
  C   C2195     1.0  0.85731  0.02704  0.19462  1.0000
  C   C2196     1.0  0.86199  0.04287  0.20075  1.0000
  C   C2197     1.0  0.85326  0.04821  0.21882  1.0000
  C   C2198     1.0  0.83978  0.03743  0.23067  1.0000
  C   C2199     1.0  0.83559  0.02124  0.22481  1.0000
  S   S313      1.0  0.82496  0.15176  0.98622  1.0000
  C   C2200     1.0  0.65860  0.18713  0.03073  1.0000
  C   C2201     1.0  0.75627  0.98448  0.18611  1.0000
  H   H1758     1.0  0.72165  0.21726  0.20826  1.0000
  S   S314      1.0  0.76893  0.22644  0.15662  1.0000
  H   H1759     1.0  0.68322  0.06057  0.30328  1.0000
  S   S315      1.0  0.77637  0.08150  0.28688  1.0000
  Fe  Fe157     1.0  0.85373  0.13221  0.98679  1.0000
  C   C2202     1.0  0.90573  0.00870  0.02386  1.0000
  C   C2203     1.0  0.72659  0.17824  0.99668  1.0000
  C   C2204     1.0  0.88900  0.22805  0.25083  1.0000
  C   C2205     1.0  0.91575  0.21928  0.20878  1.0000
  C   C2206     1.0  0.76035  0.15770  0.01026  1.0000
  C   C2207     1.0  0.74626  0.16841  0.02213  1.0000
  C   C2208     1.0  0.72943  0.17872  0.01543  1.0000
  C   C2209     1.0  0.93602  0.19245  0.19488  1.0000
  H   H1760     1.0  0.81339  0.20073  0.22502  1.0000
  C   C2210     1.0  0.62350  0.18347  0.24378  1.0000
  C   C2211     1.0  0.64481  0.04501  0.29661  1.0000
  H   H1761     1.0  0.60747  0.17418  0.30567  1.0000
  H   H1762     1.0  0.92789  0.03228  0.04765  1.0000
  H   H1763     1.0  0.85575  0.16323  0.25599  1.0000
  H   H1764     1.0  0.87833  0.14021  0.13676  1.0000
  H   H1765     1.0  0.70746  0.17691  0.08067  1.0000
  H   H1766     1.0  0.85277  0.11393  0.19734  1.0000
  S   S316      1.0  0.67778  0.20972  0.14663  1.0000
  C   C2212     1.0  0.60024  0.17340  0.22156  1.0000
  H   H1767     1.0  0.74751  0.21194  0.00185  1.0000
  H   H1768     1.0  0.94676  0.21629  0.20084  1.0000
  C   C2213     1.0  0.70469  0.20371  0.06071  1.0000
  H   H1769     1.0  0.63130  0.03314  0.22097  1.0000
  C   C2214     1.0  0.77395  0.21541  0.24094  1.0000
  Fe  Fe158     1.0  0.83368  0.99223  0.13093  1.0000
  H   H1770     1.0  0.77354  0.15014  0.01544  1.0000
  H   H1771     1.0  0.74869  0.16875  0.03645  1.0000
  H   H1772     1.0  0.71887  0.18717  0.02483  1.0000
  S   S317      1.0  0.83827  0.99517  0.20050  1.0000
  C   C2215     1.0  0.84722  0.12195  0.16798  1.0000
  C   C2216     1.0  0.78429  0.19561  0.27619  1.0000
  H   H1773     1.0  0.88869  0.18766  0.20218  1.0000
  C   C2217     1.0  0.77713  0.20156  0.99092  1.0000
  H   H1774     1.0  0.61930  0.15673  0.26274  1.0000
  C   C2218     1.0  0.75815  0.13584  0.30201  1.0000
  H   H1775     1.0  0.72291  0.05248  0.10837  1.0000
  C   C2219     1.0  0.71506  0.18740  0.07055  1.0000
  C   C2220     1.0  0.68650  0.98488  0.28366  1.0000
  C   C2221     1.0  0.79334  0.16836  0.15303  1.0000
  C   C2222     1.0  0.81653  0.14268  0.13960  1.0000
  C   C2223     1.0  0.84082  0.11985  0.11074  1.0000
  C   C2224     1.0  0.93408  0.20991  0.20152  1.0000
  S   S318      1.0  0.86104  0.99107  0.14265  1.0000
  H   H1776     1.0  0.85245  0.19636  0.09098  1.0000
  H   H1777     1.0  0.87631  0.05365  0.00139  1.0000
  C   C2225     1.0  0.62558  0.05435  0.29833  1.0000
  C   C2226     1.0  0.69991  0.98983  0.29283  1.0000
  H   H1778     1.0  0.86474  0.21550  0.29954  1.0000
  H   H1779     1.0  0.71621  0.19470  0.15270  1.0000
  H   H1780     1.0  0.71707  0.08337  0.26146  1.0000
  H   H1781     1.0  0.74938  0.00557  0.23089  1.0000
  C   C2227     1.0  0.87590  0.05551  0.98607  1.0000
  C   C2228     1.0  0.61997  0.19547  0.22634  1.0000
  C   C2229     1.0  0.61824  0.98895  0.30377  1.0000
  P   P74       1.0  0.63229  0.21597  0.21726  1.0000
  C   C2230     1.0  0.92332  0.04139  0.01810  1.0000
  C   C2231     1.0  0.65729  0.20764  0.20754  1.0000
  C   C2232     1.0  0.84040  0.21085  0.22190  1.0000
  C   C2233     1.0  0.68812  0.21450  0.18861  1.0000
  C   C2234     1.0  0.68547  0.18219  0.20568  1.0000
  C   C2235     1.0  0.66591  0.18830  0.21247  1.0000
  H   H1782     1.0  0.56173  0.18506  0.27235  1.0000
  C   C2236     1.0  0.66768  0.20797  0.29233  1.0000
  C   C2237     1.0  0.60832  0.19024  0.21522  1.0000
  C   C2238     1.0  0.60416  0.16135  0.23870  1.0000
  C   C2239     1.0  0.69572  0.00450  0.22933  1.0000
  C   C2240     1.0  0.67360  0.18337  0.01541  1.0000
  H   H1783     1.0  0.71312  0.99422  0.28442  1.0000
  C   C2241     1.0  0.92177  0.11372  0.99137  1.0000
  H   H1784     1.0  0.91212  0.00342  0.05281  1.0000
  C   C2242     1.0  0.91328  0.01279  0.03887  1.0000
  C   C2243     1.0  0.74165  0.17489  0.29888  1.0000
  H   H1785     1.0  0.83498  0.09359  0.13023  1.0000
  H   H1786     1.0  0.60589  0.19871  0.20136  1.0000
  C   C2244     1.0  0.64720  0.99180  0.26185  1.0000
  H   H1787     1.0  0.69196  0.16723  0.20959  1.0000
  H   H1788     1.0  0.65767  0.17779  0.22143  1.0000
  C   C2245     1.0  0.79650  0.20099  0.99212  1.0000
  H   H1789     1.0  0.59876  0.14776  0.24299  1.0000
  C   C2246     1.0  0.66102  0.21385  0.31027  1.0000
  C   C2247     1.0  0.78650  0.22061  0.01742  1.0000
  C   C2248     1.0  0.66893  0.21723  0.03083  1.0000
  H   H1790     1.0  0.90079  0.01769  0.99456  1.0000
  S   S319      1.0  0.81605  0.98537  0.16062  1.0000
  C   C2249     1.0  0.89928  0.21099  0.20991  1.0000
  H   H1791     1.0  0.68287  0.20696  0.28614  1.0000
  C   C2250     1.0  0.80580  0.06646  0.14222  1.0000
  C   C2251     1.0  0.81991  0.04993  0.14379  1.0000
  C   C2252     1.0  0.82142  0.03847  0.16181  1.0000
  C   C2253     1.0  0.80876  0.04343  0.17829  1.0000
  C   C2254     1.0  0.79434  0.05985  0.17683  1.0000
  C   C2255     1.0  0.79317  0.07152  0.15871  1.0000
  P   P75       1.0  0.77785  0.06679  0.19785  1.0000
  C   C2256     1.0  0.78296  0.05107  0.21993  1.0000
  C   C2257     1.0  0.78032  0.09131  0.19801  1.0000
  C   C2258     1.0  0.76440  0.10631  0.19717  1.0000
  C   C2259     1.0  0.76671  0.12536  0.19638  1.0000
  C   C2260     1.0  0.78486  0.12955  0.19671  1.0000
  C   C2261     1.0  0.80078  0.11474  0.19752  1.0000
  C   C2262     1.0  0.79861  0.09568  0.19798  1.0000
  C   C2263     1.0  0.78200  0.03134  0.22222  1.0000
  C   C2264     1.0  0.78497  0.01909  0.23956  1.0000
  C   C2265     1.0  0.78863  0.02652  0.25485  1.0000
  C   C2266     1.0  0.78923  0.04619  0.25281  1.0000
  C   C2267     1.0  0.78624  0.05848  0.23549  1.0000
  C   C2268     1.0  0.75324  0.06499  0.19704  1.0000
  C   C2269     1.0  0.74813  0.06024  0.18085  1.0000
  C   C2270     1.0  0.72895  0.05855  0.18086  1.0000
  C   C2271     1.0  0.71483  0.06149  0.19707  1.0000
  C   C2272     1.0  0.71990  0.06606  0.21327  1.0000
  C   C2273     1.0  0.73901  0.06777  0.21328  1.0000
  H   H1792     1.0  0.80470  0.07531  0.12822  1.0000
  H   H1793     1.0  0.82974  0.04590  0.13107  1.0000
  H   H1794     1.0  0.83248  0.02573  0.16307  1.0000
  H   H1795     1.0  0.81062  0.03451  0.19206  1.0000
  H   H1796     1.0  0.78250  0.08455  0.15739  1.0000
  H   H1797     1.0  0.75011  0.10344  0.19747  1.0000
  H   H1798     1.0  0.75426  0.13679  0.19612  1.0000
  H   H1799     1.0  0.78658  0.14427  0.19657  1.0000
  H   H1800     1.0  0.81468  0.11802  0.19838  1.0000
  H   H1801     1.0  0.81113  0.08432  0.19873  1.0000
  H   H1802     1.0  0.77930  0.02537  0.21043  1.0000
  H   H1803     1.0  0.78506  0.00378  0.24090  1.0000
  H   H1804     1.0  0.79142  0.01704  0.26816  1.0000
  H   H1805     1.0  0.79227  0.05193  0.26457  1.0000
  H   H1806     1.0  0.78639  0.07371  0.23445  1.0000
  H   H1807     1.0  0.75883  0.05792  0.16821  1.0000
  H   H1808     1.0  0.72498  0.05512  0.16825  1.0000
  H   H1809     1.0  0.69992  0.06046  0.19704  1.0000
  H   H1810     1.0  0.70902  0.06858  0.22580  1.0000
  H   H1811     1.0  0.74265  0.07157  0.22589  1.0000
  C   C2274     1.0  0.84415  0.20914  0.28448  1.0000
  H   H1812     1.0  0.87435  0.17772  0.29834  1.0000
  C   C2275     1.0  0.63535  0.20340  0.29110  1.0000
  S   S320      1.0  0.84283  0.10664  0.98208  1.0000
  C   C2276     1.0  0.81056  0.22274  0.29439  1.0000
  C   C2277     1.0  0.82470  0.21166  0.28262  1.0000
  H   H1813     1.0  0.73495  0.18990  0.29781  1.0000
  C   C2278     1.0  0.59516  0.18385  0.30055  1.0000
  C   C2279     1.0  0.76246  0.21183  0.00277  1.0000
  H   H1814     1.0  0.77435  0.18722  0.23432  1.0000
  H   H1815     1.0  0.62135  0.06669  0.28771  1.0000
  C   C2280     1.0  0.83296  0.18086  0.24180  1.0000
  P   P76       1.0  0.87557  0.22369  0.21814  1.0000
  H   H1816     1.0  0.87109  0.09841  0.13091  1.0000
  C   C2281     1.0  0.82749  0.19787  0.22932  1.0000
  H   H1817     1.0  0.87263  0.05087  0.19153  1.0000
  C   C2282     1.0  0.76324  0.05962  0.12253  1.0000
  P   P77       1.0  0.78580  0.22874  0.29014  1.0000
  H   H1818     1.0  0.87790  0.08590  0.19049  1.0000
  H   H1819     1.0  0.87871  0.18616  0.24329  1.0000
  C   C2283     1.0  0.85476  0.15268  0.12068  1.0000
  H   H1820     1.0  0.79022  0.18240  0.15754  1.0000
  Fe  Fe159     1.0  0.69531  0.20457  0.11804  1.0000
  H   H1821     1.0  0.63299  0.18679  0.25226  1.0000
  H   H1822     1.0  0.85502  0.20045  0.27558  1.0000
  P   P78       1.0  0.91588  0.05402  0.98031  1.0000
  C   C2284     1.0  0.72975  0.99070  0.22219  1.0000
  H   H1823     1.0  0.74624  0.22856  0.07431  1.0000
  H   H1824     1.0  0.82094  0.20523  0.27175  1.0000
  H   H1825     1.0  0.59174  0.16915  0.21266  1.0000
  C   C2285     1.0  0.76897  0.22156  0.31169  1.0000
  C   C2286     1.0  0.83755  0.10062  0.11531  1.0000
  H   H1826     1.0  0.64571  0.04028  0.24699  1.0000
  H   H1827     1.0  0.84684  0.14311  0.08693  1.0000
  H   H1828     1.0  0.77094  0.13154  0.15069  1.0000
  H   H1829     1.0  0.93007  0.05403  0.01624  1.0000
  C   C2287     1.0  0.91554  0.03752  0.00301  1.0000
  C   C2288     1.0  0.71439  0.21786  0.04860  1.0000
  H   H1830     1.0  0.66000  0.19796  0.26892  1.0000
  C   C2289     1.0  0.83804  0.09016  0.10059  1.0000
  C   C2290     1.0  0.78964  0.12435  0.08513  1.0000
  C   C2291     1.0  0.79235  0.14090  0.09102  1.0000
  C   C2292     1.0  0.77797  0.14995  0.10410  1.0000
  C   C2293     1.0  0.76099  0.14227  0.11162  1.0000
  C   C2294     1.0  0.75833  0.12537  0.10616  1.0000
  C   C2295     1.0  0.77266  0.11666  0.09255  1.0000
  P   P79       1.0  0.73596  0.11596  0.11496  1.0000
  C   C2296     1.0  0.74114  0.08996  0.11680  1.0000
  C   C2297     1.0  0.72527  0.12219  0.13856  1.0000
  C   C2298     1.0  0.72832  0.10914  0.15556  1.0000
  C   C2299     1.0  0.71936  0.11391  0.17364  1.0000
  C   C2300     1.0  0.70769  0.13186  0.17495  1.0000
  C   C2301     1.0  0.70476  0.14502  0.15814  1.0000
  C   C2302     1.0  0.71341  0.14015  0.14006  1.0000
  C   C2303     1.0  0.75856  0.07955  0.12238  1.0000
  C   C2304     1.0  0.71947  0.12619  0.09797  1.0000
  C   C2305     1.0  0.72653  0.13245  0.07840  1.0000
  C   C2306     1.0  0.71369  0.14044  0.06538  1.0000
  C   C2307     1.0  0.69374  0.14240  0.07179  1.0000
  C   C2308     1.0  0.68659  0.13610  0.09119  1.0000
  C   C2309     1.0  0.69937  0.12786  0.10419  1.0000
  H   H1831     1.0  0.80055  0.11781  0.07442  1.0000
  H   H1832     1.0  0.80539  0.14699  0.08503  1.0000
  H   H1833     1.0  0.77999  0.16298  0.10842  1.0000
  H   H1834     1.0  0.75004  0.14960  0.12166  1.0000
  H   H1835     1.0  0.77065  0.10412  0.08737  1.0000
  H   H1836     1.0  0.73739  0.09525  0.15492  1.0000
  H   H1837     1.0  0.72125  0.10372  0.18676  1.0000
  H   H1838     1.0  0.70082  0.13548  0.18900  1.0000
  H   H1839     1.0  0.69565  0.15896  0.15907  1.0000
  H   H1840     1.0  0.71066  0.15039  0.12722  1.0000
  H   H1841     1.0  0.76872  0.08694  0.12615  1.0000
  H   H1842     1.0  0.74190  0.13129  0.07310  1.0000
  C   C2310     1.0  0.85901  0.20673  0.22677  1.0000
  H   H1843     1.0  0.83671  0.13454  0.17112  1.0000
  H   H1844     1.0  0.69352  0.12296  0.11914  1.0000
  C   C2311     1.0  0.76053  0.01294  0.16168  1.0000
  C   C2312     1.0  0.69626  0.05074  0.30626  1.0000
  H   H1845     1.0  0.75020  0.13755  0.27416  1.0000
  C   C2313     1.0  0.85147  0.17663  0.24663  1.0000
  C   C2314     1.0  0.91960  0.18447  0.19528  1.0000
  C   C2315     1.0  0.75349  0.00467  0.18056  1.0000
  H   H1846     1.0  0.73539  0.17191  0.27151  1.0000
  C   C2316     1.0  0.86445  0.18956  0.23923  1.0000
  H   H1847     1.0  0.76850  0.14848  0.98267  1.0000
  C   C2317     1.0  0.81237  0.16060  0.14594  1.0000
  S   S321      1.0  0.84702  0.11775  0.30719  1.0000
  H   H1848     1.0  0.84698  0.12484  0.06156  1.0000
  H   H1849     1.0  0.86657  0.21825  0.18209  1.0000
  C   C2318     1.0  0.88273  0.16757  0.11984  1.0000
  C   C2319     1.0  0.90691  0.02096  0.00597  1.0000
  H   H1850     1.0  0.73454  0.02292  0.28298  1.0000
  H   H1851     1.0  0.74323  0.17267  0.07617  1.0000
  H   H1852     1.0  0.88682  0.07802  0.15740  1.0000
  C   C2320     1.0  0.66852  0.22057  0.19527  1.0000
  H   H1853     1.0  0.70274  0.15581  0.29808  1.0000
  C   C2321     1.0  0.90127  0.19379  0.20257  1.0000
  H   H1854     1.0  0.70591  0.23047  0.04148  1.0000
  C   C2322     1.0  0.70045  0.01830  0.23813  1.0000
  C   C2323     1.0  0.71981  0.01847  0.23880  1.0000
  C   C2324     1.0  0.73443  0.00483  0.23075  1.0000
  H   H1855     1.0  0.75870  0.02843  0.15751  1.0000
  C   C2325     1.0  0.78221  0.21585  0.27219  1.0000
  H   H1856     1.0  0.83603  0.07519  0.10406  1.0000
  C   C2326     1.0  0.84421  0.12844  0.09118  1.0000
  H   H1857     1.0  0.74621  0.01411  0.19075  1.0000
  H   H1858     1.0  0.82299  0.17074  0.24747  1.0000
  H   H1859     1.0  0.75423  0.03455  0.11705  1.0000
  C   C2327     1.0  0.77046  0.00122  0.14825  1.0000
  C   C2328     1.0  0.80150  0.13208  0.14164  1.0000
  H   H1860     1.0  0.81616  0.20953  0.00675  1.0000
  H   H1861     1.0  0.92102  0.17116  0.18973  1.0000
  H   H1862     1.0  0.63491  0.10434  0.31327  1.0000
  H   H1863     1.0  0.58891  0.16291  0.28595  1.0000
  H   H1864     1.0  0.80792  0.19288  0.98310  1.0000
  H   H1865     1.0  0.68381  0.14885  0.06176  1.0000
  C   C2329     1.0  0.61578  0.16639  0.24978  1.0000
  H   H1866     1.0  0.65534  0.01437  0.27312  1.0000
  H   H1867     1.0  0.68912  0.02897  0.24431  1.0000
  H   H1868     1.0  0.72350  0.02943  0.24526  1.0000
  C   C2330     1.0  0.83579  0.22892  0.30956  1.0000
  H   H1869     1.0  0.83363  0.16992  0.10352  1.0000
  H   H1870     1.0  0.76059  0.19719  0.05428  1.0000
  C   C2331     1.0  0.73462  0.21573  0.04626  1.0000
  C   C2332     1.0  0.70796  0.04168  0.29141  1.0000
  C   C2333     1.0  0.84146  0.09887  0.08124  1.0000
  C   C2334     1.0  0.64404  0.02559  0.24685  1.0000
  H   H1871     1.0  0.71173  0.19050  0.18858  1.0000
  H   H1872     1.0  0.74069  0.06996  0.28394  1.0000
  C   C2335     1.0  0.63099  0.22979  0.23616  1.0000
  C   C2336     1.0  0.75728  0.21395  0.14512  1.0000
  C   C2337     1.0  0.78251  0.13973  0.14911  1.0000
  H   H1873     1.0  0.76362  0.16420  0.15975  1.0000
  H   H1874     1.0  0.78826  0.18773  0.28979  1.0000
  H   H1875     1.0  0.62580  0.19945  0.28322  1.0000
  H   H1876     1.0  0.68074  0.00458  0.22851  1.0000
  C   C2338     1.0  0.73521  0.18507  0.06811  1.0000
  H   H1877     1.0  0.91441  0.23306  0.21341  1.0000
  C   C2339     1.0  0.92215  0.02907  0.03596  1.0000
  H   H1878     1.0  0.84498  0.05725  0.99093  1.0000
  C   C2340     1.0  0.77837  0.15805  0.15437  1.0000
  C   C2341     1.0  0.84440  0.11803  0.07657  1.0000
  C   C2342     1.0  0.85647  0.11050  0.18282  1.0000
  C   C2343     1.0  0.85186  0.11735  0.14924  1.0000
  C   C2344     1.0  0.84751  0.16886  0.10793  1.0000
  C   C2345     1.0  0.87248  0.15219  0.12662  1.0000
  C   C2346     1.0  0.87066  0.09466  0.17899  1.0000
  C   C2347     1.0  0.87554  0.18343  0.10694  1.0000
  C   C2348     1.0  0.58983  0.20256  0.30515  1.0000
  C   C2349     1.0  0.67481  0.14955  0.29665  1.0000
  C   C2350     1.0  0.90234  0.08901  0.99375  1.0000
  H   H1879     1.0  0.67514  0.17019  0.00970  1.0000
  C   C2351     1.0  0.85805  0.18397  0.10086  1.0000
  C   C2352     1.0  0.84967  0.21771  0.29794  1.0000
  H   H1880     1.0  0.64803  0.21071  0.99094  1.0000
  H   H1881     1.0  0.63553  0.21699  0.17555  1.0000
  H   H1882     1.0  0.89605  0.16740  0.12494  1.0000
  H   H1883     1.0  0.67110  0.13768  0.09621  1.0000
  C   C2353     1.0  0.65522  0.15130  0.30492  1.0000
  C   C2354     1.0  0.76700  0.22172  0.01588  1.0000
  C   C2355     1.0  0.87568  0.09024  0.16031  1.0000
  H   H1884     1.0  0.88332  0.19549  0.10192  1.0000
  Fe  Fe160     1.0  0.82496  0.23212  0.10093  1.0000
  C   C2356     1.0  0.75009  0.14530  0.28567  1.0000
  C   C2357     1.0  0.62857  0.20901  0.30933  1.0000
  C   C2358     1.0  0.80116  0.21051  0.00536  1.0000
  C   C2359     1.0  0.77625  0.19526  0.24496  1.0000
  H   H1885     1.0  0.77006  0.22304  0.22721  1.0000
  C   C2360     1.0  0.77698  0.22569  0.25446  1.0000
  H   H1886     1.0  0.78353  0.16972  0.26545  1.0000
  C   C2361     1.0  0.72988  0.19879  0.14548  1.0000
  C   C2362     1.0  0.63583  0.02157  0.23227  1.0000
  C   C2363     1.0  0.68629  0.19664  0.00757  1.0000
  C   C2364     1.0  0.72526  0.02949  0.29465  1.0000
  S   S322      1.0  0.83037  0.22685  0.06973  1.0000
  H   H1887     1.0  0.57000  0.22960  0.30042  1.0000
  C   C2365     1.0  0.78148  0.18538  0.26253  1.0000
  P   P80       1.0  0.70539  0.19218  0.98741  1.0000
  C   C2366     1.0  0.74176  0.16475  0.28414  1.0000
  Fe  Fe161     1.0  0.79717  0.23195  0.13891  1.0000
  C   C2367     1.0  0.86583  0.16792  0.30822  1.0000
  H   H1888     1.0  0.76471  0.12082  0.30263  1.0000
  H   H1889     1.0  0.68904  0.20574  0.06294  1.0000
  C   C2368     1.0  0.86087  0.15262  0.30147  1.0000
  C   C2369     1.0  0.65482  0.20278  0.28272  1.0000
  H   H1890     1.0  0.77662  0.00757  0.13384  1.0000
  H   H1891     1.0  0.73455  0.10583  0.30957  1.0000
  H   H1892     1.0  0.62606  0.99979  0.22158  1.0000
  C   C2370     1.0  0.62427  0.22866  0.17976  1.0000
  H   H1893     1.0  0.90034  0.21597  0.24806  1.0000
  H   H1894     1.0  0.86568  0.15071  0.28659  1.0000
  C   C2371     1.0  0.64961  0.01080  0.26164  1.0000
  H   H1895     1.0  0.70368  0.04450  0.27729  1.0000
  H   H1896     1.0  0.92287  0.12797  0.99352  1.0000
  H   H1897     1.0  0.89871  0.99616  0.02620  1.0000
  C   C2372     1.0  0.63831  0.98800  0.24751  1.0000
  C   C2373     1.0  0.57433  0.21500  0.29748  1.0000
  H   H1898     1.0  0.69338  0.22962  0.23149  1.0000
  H   H1899     1.0  0.64872  0.17693  0.03666  1.0000
  C   C2374     1.0  0.91828  0.07747  0.98440  1.0000
  C   C2375     1.0  0.58485  0.17750  0.28908  1.0000
  H   H1900     1.0  0.62449  0.00202  0.30089  1.0000
  C   C2376     1.0  0.68413  0.21337  0.01577  1.0000
  C   C2377     1.0  0.56430  0.20872  0.28564  1.0000
  C   C2378     1.0  0.56951  0.18995  0.28150  1.0000
  C   C2379     1.0  0.74497  0.19911  0.05590  1.0000
  H   H1901     1.0  0.66707  0.23037  0.03682  1.0000
  H   H1902     1.0  0.70299  0.15125  0.99051  1.0000
  H   H1903     1.0  0.64661  0.17664  0.98959  1.0000
  C   C2380     1.0  0.74984  0.22084  0.31019  1.0000
  C   C2381     1.0  0.90416  0.10698  0.99731  1.0000
  H   H1904     1.0  0.73351  0.21213  0.16866  1.0000
  C   C2382     1.0  0.68765  0.15703  0.30460  1.0000
  H   H1905     1.0  0.89173  0.11599  0.00416  1.0000
  C   C2383     1.0  0.65618  0.20411  0.03834  1.0000
  C   C2384     1.0  0.61995  0.23192  0.19894  1.0000
  C   C2385     1.0  0.71028  0.99071  0.22144  1.0000
  H   H1906     1.0  0.88844  0.08427  0.99835  1.0000
  C   C2386     1.0  0.61531  0.22990  0.25153  1.0000
  H   H1907     1.0  0.79057  0.22699  0.02819  1.0000
  C   C2387     1.0  0.65009  0.02892  0.31036  1.0000
  H   H1908     1.0  0.66498  0.02186  0.30911  1.0000
  H   H1909     1.0  0.69660  0.22465  0.17903  1.0000
  H   H1910     1.0  0.74500  0.22476  0.29633  1.0000
  Fe  Fe162     1.0  0.81358  0.12580  0.98269  1.0000
  H   H1911     1.0  0.68963  0.98521  0.26821  1.0000
  H   H1912     1.0  0.60460  0.22073  0.25298  1.0000
  C   C2388     1.0  0.81633  0.23151  0.30775  1.0000
  C   C2389     1.0  0.93781  0.10219  0.98244  1.0000
  C   C2390     1.0  0.71886  0.23230  0.20994  1.0000
  H   H1913     1.0  0.69409  0.22357  0.01053  1.0000
  C   C2391     1.0  0.74069  0.16701  0.98497  1.0000
  H   H1914     1.0  0.89928  0.23153  0.27608  1.0000
  C   C2392     1.0  0.69616  0.98926  0.31282  1.0000
  C   C2393     1.0  0.73076  0.02613  0.31285  1.0000
  H   H1915     1.0  0.77342  0.19365  0.98120  1.0000
  C   C2394     1.0  0.85802  0.05755  0.98017  1.0000
  C   C2395     1.0  0.62999  0.06420  0.34700  1.0000
  S   S323      1.0  0.59903  0.02258  0.34596  1.0000
  S   S324      1.0  0.69703  0.17560  0.33074  1.0000
  Fe  Fe163     1.0  0.65722  0.04344  0.50385  1.0000
  S   S325      1.0  0.64292  0.07358  0.49373  1.0000
  S   S326      1.0  0.65906  0.01785  0.48819  1.0000
  Fe  Fe164     1.0  0.67292  0.05701  0.53607  1.0000
  S   S327      1.0  0.65947  0.08778  0.52765  1.0000
  S   S328      1.0  0.68921  0.04739  0.56172  1.0000
  Fe  Fe165     1.0  0.63352  0.07539  0.52552  1.0000
  S   S329      1.0  0.60336  0.08918  0.53832  1.0000
  Fe  Fe166     1.0  0.67023  0.08271  0.49704  1.0000
  S   S330      1.0  0.68912  0.10078  0.47436  1.0000
  S   S331      1.0  0.64639  0.04467  0.53553  1.0000
  S   S332      1.0  0.68525  0.05247  0.50556  1.0000
  Fe  Fe167     1.0  0.85691  0.22358  0.39601  1.0000
  C   C2396     1.0  0.84602  0.14105  0.33394  1.0000
  H   H1916     1.0  0.57152  0.06788  0.62602  1.0000
  Fe  Fe168     1.0  0.85293  0.20568  0.36077  1.0000
  S   S333      1.0  0.82156  0.21891  0.36256  1.0000
  S   S334      1.0  0.86750  0.18968  0.33550  1.0000
  H   H1917     1.0  0.60267  0.06550  0.50705  1.0000
  H   H1918     1.0  0.76843  0.17502  0.44580  1.0000
  Fe  Fe169     1.0  0.82000  0.20893  0.39441  1.0000
  S   S335      1.0  0.79581  0.19267  0.40950  1.0000
  C   C2397     1.0  0.61742  0.99747  0.54800  1.0000
  S   S336      1.0  0.85110  0.19449  0.39269  1.0000
  Fe  Fe170     1.0  0.68421  0.19121  0.35605  1.0000
  C   C2398     1.0  0.66098  0.06191  0.44449  1.0000
  C   C2399     1.0  0.55501  0.99113  0.59005  1.0000
  H   H1919     1.0  0.70248  0.09158  0.42450  1.0000
  C   C2400     1.0  0.67814  0.05706  0.45218  1.0000
  Fe  Fe171     1.0  0.66451  0.19038  0.39782  1.0000
  S   S337      1.0  0.64760  0.17348  0.42326  1.0000
  S   S338      1.0  0.69586  0.18477  0.38411  1.0000
  H   H1920     1.0  0.59773  0.07271  0.43933  1.0000
  C   C2401     1.0  0.50529  0.15682  0.64247  1.0000
  Fe  Fe172     1.0  0.73861  0.09704  0.62743  1.0000
  C   C2402     1.0  0.66348  0.06926  0.33960  1.0000
  S   S339      1.0  0.72589  0.10234  0.59955  1.0000
  H   H1921     1.0  0.73891  0.14586  0.40079  1.0000
  H   H1922     1.0  0.63606  0.15445  0.39692  1.0000
  S   S340      1.0  0.75789  0.11727  0.63073  1.0000
  H   H1923     1.0  0.80849  0.13890  0.62129  1.0000
  H   H1924     1.0  0.65272  0.04523  0.35971  1.0000
  C   C2403     1.0  0.58753  0.99603  0.50409  1.0000
  S   S341      1.0  0.55424  0.03904  0.60691  1.0000
  H   H1925     1.0  0.70596  0.06448  0.45153  1.0000
  H   H1926     1.0  0.69098  0.01583  0.41724  1.0000
  H   H1927     1.0  0.61392  0.03088  0.51688  1.0000
  C   C2404     1.0  0.69080  0.02455  0.40300  1.0000
  C   C2405     1.0  0.73701  0.16654  0.63085  1.0000
  C   C2406     1.0  0.74302  0.18147  0.61644  1.0000
  C   C2407     1.0  0.59888  0.03677  0.52128  1.0000
  C   C2408     1.0  0.75275  0.23262  0.38929  1.0000
  H   H1928     1.0  0.73508  0.15339  0.62691  1.0000
  H   H1929     1.0  0.74617  0.17957  0.60147  1.0000
  H   H1930     1.0  0.84651  0.15804  0.35569  1.0000
  H   H1931     1.0  0.63449  0.12598  0.42212  1.0000
  Fe  Fe173     1.0  0.65463  0.22549  0.36739  1.0000
  H   H1932     1.0  0.64020  0.09057  0.37823  1.0000
  H   H1933     1.0  0.64123  0.01855  0.40650  1.0000
  H   H1934     1.0  0.88959  0.21186  0.61948  1.0000
  H   H1935     1.0  0.60563  0.99731  0.57839  1.0000
  C   C2409     1.0  0.77361  0.20401  0.40236  1.0000
  C   C2410     1.0  0.75869  0.19332  0.40449  1.0000
  C   C2411     1.0  0.74088  0.20219  0.39875  1.0000
  C   C2412     1.0  0.68983  0.04732  0.36628  1.0000
  P   P81       1.0  0.63573  0.08464  0.42081  1.0000
  C   C2413     1.0  0.77068  0.22364  0.39456  1.0000
  H   H1936     1.0  0.76111  0.17812  0.41033  1.0000
  H   H1937     1.0  0.72947  0.19386  0.40029  1.0000
  C   C2414     1.0  0.76926  0.12883  0.43367  1.0000
  C   C2415     1.0  0.58986  0.07558  0.55796  1.0000
  C   C2416     1.0  0.59720  0.05650  0.56515  1.0000
  C   C2417     1.0  0.58628  0.04581  0.58048  1.0000
  C   C2418     1.0  0.56774  0.05392  0.58874  1.0000
  C   C2419     1.0  0.56043  0.07318  0.58196  1.0000
  C   C2420     1.0  0.57148  0.08396  0.56657  1.0000
  H   H1938     1.0  0.61121  0.04983  0.55882  1.0000
  H   H1939     1.0  0.59219  0.03107  0.58586  1.0000
  H   H1940     1.0  0.54618  0.07963  0.58832  1.0000
  H   H1941     1.0  0.56570  0.09876  0.56121  1.0000
  C   C2421     1.0  0.69858  0.06303  0.57266  1.0000
  C   C2422     1.0  0.70699  0.05552  0.58937  1.0000
  C   C2423     1.0  0.71500  0.06738  0.59815  1.0000
  C   C2424     1.0  0.71471  0.08691  0.59025  1.0000
  C   C2425     1.0  0.70588  0.09450  0.57383  1.0000
  C   C2426     1.0  0.69789  0.08267  0.56507  1.0000
  H   H1942     1.0  0.70758  0.04037  0.59540  1.0000
  H   H1943     1.0  0.72177  0.06131  0.61075  1.0000
  H   H1944     1.0  0.70539  0.10963  0.56775  1.0000
  H   H1945     1.0  0.69135  0.08870  0.55233  1.0000
  C   C2427     1.0  0.67753  0.12073  0.45995  1.0000
  C   C2428     1.0  0.68837  0.13048  0.44374  1.0000
  C   C2429     1.0  0.67933  0.14657  0.43213  1.0000
  C   C2430     1.0  0.65944  0.15296  0.43680  1.0000
  C   C2431     1.0  0.64866  0.14315  0.45297  1.0000
  C   C2432     1.0  0.65770  0.12711  0.46457  1.0000
  H   H1946     1.0  0.70378  0.12564  0.44025  1.0000
  H   H1947     1.0  0.68775  0.15420  0.41980  1.0000
  H   H1948     1.0  0.63329  0.14814  0.45669  1.0000
  H   H1949     1.0  0.64936  0.11975  0.47719  1.0000
  C   C2433     1.0  0.73787  0.22192  0.39126  1.0000
  H   H1950     1.0  0.81038  0.10926  0.60787  1.0000
  C   C2434     1.0  0.72212  0.10383  0.32078  1.0000
  H   H1951     1.0  0.81279  0.18376  0.48567  1.0000
  C   C2435     1.0  0.67219  0.19866  0.44726  1.0000
  S   S342      1.0  0.87780  0.22746  0.41499  1.0000
  C   C2436     1.0  0.63836  0.13887  0.37360  1.0000
  H   H1952     1.0  0.79197  0.17040  0.60555  1.0000
  C   C2437     1.0  0.69905  0.08345  0.33917  1.0000
  C   C2438     1.0  0.70175  0.04759  0.32451  1.0000
  C   C2439     1.0  0.66144  0.16754  0.32914  1.0000
  H   H1953     1.0  0.60999  0.08501  0.33146  1.0000
  H   H1954     1.0  0.66542  0.99569  0.52939  1.0000
  H   H1955     1.0  0.53129  0.00154  0.40171  1.0000
  H   H1956     1.0  0.78597  0.20001  0.44889  1.0000
  H   H1957     1.0  0.65605  0.17468  0.34137  1.0000
  H   H1958     1.0  0.66706  0.99011  0.46255  1.0000
  C   C2440     1.0  0.77513  0.11905  0.54989  1.0000
  C   C2441     1.0  0.64524  0.01339  0.47177  1.0000
  H   H1959     1.0  0.56755  0.22844  0.34206  1.0000
  C   C2442     1.0  0.84817  0.22420  0.49490  1.0000
  C   C2443     1.0  0.55913  0.13019  0.59250  1.0000
  H   H1960     1.0  0.59673  0.05446  0.31464  1.0000
  H   H1961     1.0  0.68441  0.00206  0.39051  1.0000
  H   H1962     1.0  0.69846  0.19900  0.60476  1.0000
  C   C2444     1.0  0.61690  0.03109  0.32718  1.0000
  C   C2445     1.0  0.63622  0.02202  0.32568  1.0000
  C   C2446     1.0  0.61651  0.03763  0.39679  1.0000
  C   C2447     1.0  0.62481  0.08083  0.33398  1.0000
  C   C2448     1.0  0.61590  0.01862  0.45761  1.0000
  C   C2449     1.0  0.61848  0.99681  0.56752  1.0000
  C   C2450     1.0  0.85035  0.15678  0.34054  1.0000
  H   H1963     1.0  0.79612  0.11058  0.57900  1.0000
  C   C2451     1.0  0.80198  0.10775  0.33444  1.0000
  C   C2452     1.0  0.75766  0.14583  0.31714  1.0000
  C   C2453     1.0  0.61853  0.08992  0.44215  1.0000
  C   C2454     1.0  0.81048  0.17658  0.51668  1.0000
  C   C2455     1.0  0.80545  0.17618  0.49889  1.0000
  C   C2456     1.0  0.79117  0.16572  0.49811  1.0000
  C   C2457     1.0  0.78183  0.15577  0.51511  1.0000
  C   C2458     1.0  0.79315  0.09067  0.53675  1.0000
  C   C2459     1.0  0.79236  0.10925  0.54053  1.0000
  C   C2460     1.0  0.78617  0.14158  0.57528  1.0000
  C   C2461     1.0  0.78489  0.15830  0.58320  1.0000
  C   C2462     1.0  0.69108  0.08301  0.42955  1.0000
  C   C2463     1.0  0.52350  0.98965  0.40329  1.0000
  H   H1964     1.0  0.68962  0.21831  0.42820  1.0000
  C   C2464     1.0  0.79547  0.12387  0.58425  1.0000
  H   H1965     1.0  0.82183  0.18438  0.51721  1.0000
  H   H1966     1.0  0.82855  0.08744  0.33098  1.0000
  H   H1967     1.0  0.78752  0.16512  0.48429  1.0000
  H   H1968     1.0  0.77094  0.14755  0.51424  1.0000
  H   H1969     1.0  0.80651  0.08311  0.52968  1.0000
  H   H1970     1.0  0.80524  0.11589  0.53633  1.0000
  C   C2465     1.0  0.57716  0.98916  0.55965  1.0000
  C   C2466     1.0  0.69366  0.19994  0.61992  1.0000
  C   C2467     1.0  0.76189  0.13120  0.41653  1.0000
  C   C2468     1.0  0.60148  0.19668  0.34436  1.0000
  C   C2469     1.0  0.73457  0.15393  0.42885  1.0000
  H   H1971     1.0  0.72018  0.20095  0.43846  1.0000
  H   H1972     1.0  0.63418  0.99780  0.51918  1.0000
  C   C2470     1.0  0.71226  0.11907  0.33024  1.0000
  C   C2471     1.0  0.60337  0.19442  0.37837  1.0000
  H   H1973     1.0  0.58902  0.12347  0.59573  1.0000
  C   C2472     1.0  0.74548  0.21069  0.48152  1.0000
  H   H1974     1.0  0.74434  0.01694  0.31531  1.0000
  H   H1975     1.0  0.74939  0.17361  0.32659  1.0000
  C   C2473     1.0  0.87262  0.17053  0.64164  1.0000
  P   P82       1.0  0.60325  0.21066  0.32013  1.0000
  H   H1976     1.0  0.76968  0.12336  0.40510  1.0000
  P   P83       1.0  0.72978  0.16534  0.46496  1.0000
  H   H1977     1.0  0.76530  0.13719  0.46156  1.0000
  C   C2474     1.0  0.59619  0.17822  0.34862  1.0000
  C   C2475     1.0  0.59468  0.16797  0.36752  1.0000
  H   H1978     1.0  0.60629  0.20073  0.38984  1.0000
  H   H1979     1.0  0.65877  0.17650  0.46711  1.0000
  H   H1980     1.0  0.64922  0.05400  0.45098  1.0000
  H   H1981     1.0  0.81251  0.06058  0.32874  1.0000
  H   H1982     1.0  0.57728  0.00932  0.50458  1.0000
  H   H1983     1.0  0.58327  0.99387  0.47563  1.0000
  C   C2476     1.0  0.85539  0.21166  0.48149  1.0000
  C   C2477     1.0  0.85100  0.13897  0.31431  1.0000
  S   S343      1.0  0.49590  0.05622  0.61872  1.0000
  H   H1984     1.0  0.59310  0.17157  0.33761  1.0000
  C   C2478     1.0  0.72169  0.11976  0.52022  1.0000
  H   H1985     1.0  0.52164  0.11575  0.62601  1.0000
  H   H1986     1.0  0.86570  0.19874  0.48499  1.0000
  C   C2479     1.0  0.70683  0.19559  0.44508  1.0000
  H   H1987     1.0  0.68918  0.15862  0.47727  1.0000
  C   C2480     1.0  0.66151  0.03079  0.62307  1.0000
  C   C2481     1.0  0.78180  0.11075  0.33569  1.0000
  H   H1988     1.0  0.67273  0.09997  0.40999  1.0000
  H   H1989     1.0  0.56863  0.07993  0.51738  1.0000
  C   C2482     1.0  0.63659  0.10596  0.40233  1.0000
  H   H1990     1.0  0.72115  0.16347  0.42663  1.0000
  H   H1991     1.0  0.79010  0.19552  0.63192  1.0000
  C   C2483     1.0  0.62659  0.08149  0.58483  1.0000
  C   C2484     1.0  0.64499  0.08041  0.58912  1.0000
  C   C2485     1.0  0.64703  0.08390  0.60704  1.0000
  H   H1992     1.0  0.70641  0.99321  0.32001  1.0000
  C   C2486     1.0  0.61201  0.09093  0.61599  1.0000
  C   C2487     1.0  0.61016  0.08633  0.59832  1.0000
  H   H1993     1.0  0.74211  0.21466  0.64462  1.0000
  H   H1994     1.0  0.78212  0.23200  0.39289  1.0000
  C   C2488     1.0  0.68096  0.16605  0.32093  1.0000
  C   C2489     1.0  0.77677  0.08173  0.54232  1.0000
  C   C2490     1.0  0.77197  0.19880  0.45784  1.0000
  C   C2491     1.0  0.65285  0.99831  0.46104  1.0000
  H   H1995     1.0  0.66879  0.09450  0.31814  1.0000
  S   S344      1.0  0.52213  0.07383  0.64234  1.0000
  H   H1996     1.0  0.71735  0.12777  0.47281  1.0000
  C   C2492     1.0  0.86032  0.17036  0.32772  1.0000
  C   C2493     1.0  0.80389  0.07441  0.33108  1.0000
  C   C2494     1.0  0.65812  0.08595  0.32645  1.0000
  H   H1997     1.0  0.75728  0.09728  0.33568  1.0000
  H   H1998     1.0  0.63246  0.09116  0.63450  1.0000
  H   H1999     1.0  0.64041  0.00961  0.33624  1.0000
  C   C2495     1.0  0.50327  0.99273  0.40702  1.0000
  H   H2000     1.0  0.62513  0.07841  0.57103  1.0000
  H   H2001     1.0  0.65766  0.07648  0.57866  1.0000
  H   H2002     1.0  0.66141  0.08264  0.61035  1.0000
  H   H2003     1.0  0.61916  0.05545  0.35447  1.0000
  H   H2004     1.0  0.59606  0.08650  0.59485  1.0000
  C   C2496     1.0  0.59828  0.17606  0.38238  1.0000
  H   H2005     1.0  0.77740  0.06724  0.53964  1.0000
  C   C2497     1.0  0.74138  0.17049  0.54876  1.0000
  H   H2006     1.0  0.69723  0.04940  0.41138  1.0000
  H   H2007     1.0  0.73275  0.20421  0.35722  1.0000
  H   H2008     1.0  0.68383  0.02183  0.35813  1.0000
  C   C2498     1.0  0.64861  0.16027  0.32117  1.0000
  C   C2499     1.0  0.76184  0.20942  0.34615  1.0000
  C   C2500     1.0  0.63950  0.12087  0.36840  1.0000
  C   C2501     1.0  0.64922  0.05835  0.34978  1.0000
  H   H2009     1.0  0.68793  0.12863  0.35110  1.0000
  S   S345      1.0  0.75504  0.21618  0.60348  1.0000
  C   C2502     1.0  0.72025  0.15741  0.58468  1.0000
  H   H2010     1.0  0.63347  0.16178  0.32752  1.0000
  H   H2011     1.0  0.51680  0.15214  0.63127  1.0000
  H   H2012     1.0  0.78790  0.20835  0.54476  1.0000
  C   C2503     1.0  0.69420  0.04356  0.39971  1.0000
  P   P84       1.0  0.76718  0.13391  0.33888  1.0000
  C   C2504     1.0  0.79313  0.15741  0.59955  1.0000
  C   C2505     1.0  0.74775  0.12968  0.35893  1.0000
  C   C2506     1.0  0.72969  0.14172  0.35952  1.0000
  C   C2507     1.0  0.71437  0.13774  0.37437  1.0000
  C   C2508     1.0  0.71706  0.12202  0.38913  1.0000
  C   C2509     1.0  0.73514  0.11016  0.38900  1.0000
  C   C2510     1.0  0.75045  0.11397  0.37398  1.0000
  C   C2511     1.0  0.74078  0.20126  0.64076  1.0000
  C   C2512     1.0  0.57442  0.12156  0.60251  1.0000
  H   H2013     1.0  0.72392  0.03298  0.34154  1.0000
  H   H2014     1.0  0.81309  0.18389  0.35384  1.0000
  C   C2513     1.0  0.54016  0.12794  0.60091  1.0000
  C   C2514     1.0  0.78145  0.14991  0.34384  1.0000
  C   C2515     1.0  0.68678  0.02807  0.36963  1.0000
  P   P85       1.0  0.68857  0.06175  0.34262  1.0000
  H   H2015     1.0  0.73014  0.13942  0.53476  1.0000
  C   C2516     1.0  0.79111  0.16628  0.36610  1.0000
  C   C2517     1.0  0.77975  0.15401  0.36253  1.0000
  C   C2518     1.0  0.77280  0.09530  0.33483  1.0000
  C   C2519     1.0  0.62881  0.06610  0.41101  1.0000
  H   H2016     1.0  0.67670  0.02829  0.62429  1.0000
  C   C2520     1.0  0.73005  0.15092  0.50450  1.0000
  H   H2017     1.0  0.74696  0.08433  0.55622  1.0000
  H   H2018     1.0  0.72725  0.15406  0.34841  1.0000
  H   H2019     1.0  0.70031  0.14681  0.37429  1.0000
  H   H2020     1.0  0.70516  0.11929  0.40072  1.0000
  H   H2021     1.0  0.73733  0.09804  0.40056  1.0000
  H   H2022     1.0  0.76436  0.10462  0.37410  1.0000
  H   H2023     1.0  0.77209  0.16803  0.64098  1.0000
  C   C2521     1.0  0.62263  0.03867  0.61848  1.0000
  C   C2522     1.0  0.69174  0.18319  0.63349  1.0000
  Fe  Fe174     1.0  0.69376  0.21691  0.38055  1.0000
  C   C2523     1.0  0.62678  0.02377  0.46970  1.0000
  C   C2524     1.0  0.72650  0.14778  0.48684  1.0000
  C   C2525     1.0  0.74213  0.15196  0.44594  1.0000
  H   H2024     1.0  0.71214  0.15211  0.59855  1.0000
  H   H2025     1.0  0.79011  0.16917  0.38060  1.0000
  H   H2026     1.0  0.76983  0.14769  0.37438  1.0000
  H   H2027     1.0  0.67964  0.04542  0.46428  1.0000
  H   H2028     1.0  0.59294  0.05965  0.38892  1.0000
  H   H2029     1.0  0.69624  0.06965  0.37934  1.0000
  H   H2030     1.0  0.72087  0.19615  0.48799  1.0000
  H   H2031     1.0  0.63668  0.10616  0.45104  1.0000
  C   C2526     1.0  0.67218  0.18197  0.46121  1.0000
  H   H2032     1.0  0.67629  0.09727  0.35913  1.0000
  C   C2527     1.0  0.80115  0.16666  0.53373  1.0000
  H   H2033     1.0  0.74931  0.17592  0.53490  1.0000
  C   C2528     1.0  0.80244  0.13976  0.60834  1.0000
  H   H2034     1.0  0.61142  0.02653  0.39179  1.0000
  H   H2035     1.0  0.61343  0.11425  0.47978  1.0000
  H   H2036     1.0  0.81461  0.21959  0.52031  1.0000
  C   C2529     1.0  0.60823  0.12552  0.64257  1.0000
  C   C2530     1.0  0.68952  0.20550  0.43922  1.0000
  H   H2037     1.0  0.73482  0.16396  0.50558  1.0000
  H   H2038     1.0  0.81584  0.17730  0.32068  1.0000
  H   H2039     1.0  0.69495  0.16923  0.62888  1.0000
  C   C2531     1.0  0.68711  0.01680  0.38795  1.0000
  C   C2532     1.0  0.57481  0.06391  0.64058  1.0000
  H   H2040     1.0  0.63873  0.15165  0.36268  1.0000
  C   C2533     1.0  0.63943  0.04732  0.41223  1.0000
  C   C2534     1.0  0.72039  0.13051  0.48617  1.0000
  S   S346      1.0  0.58717  0.98604  0.39290  1.0000
  H   H2041     1.0  0.66763  0.02668  0.59333  1.0000
  S   S347      1.0  0.63324  0.99043  0.38042  1.0000
  C   C2535     1.0  0.76192  0.18450  0.45620  1.0000
  H   H2042     1.0  0.72343  0.07476  0.31735  1.0000
  C   C2536     1.0  0.80397  0.17475  0.35098  1.0000
  H   H2043     1.0  0.71707  0.13296  0.32644  1.0000
  H   H2044     1.0  0.80945  0.11929  0.33501  1.0000
  C   C2537     1.0  0.78669  0.15621  0.53307  1.0000
  H   H2045     1.0  0.60369  0.08492  0.40123  1.0000
  H   H2046     1.0  0.63682  0.21898  0.33267  1.0000
  H   H2047     1.0  0.59076  0.15370  0.37064  1.0000
  P   P86       1.0  0.59435  0.99963  0.54023  1.0000
  C   C2538     1.0  0.58595  0.02504  0.53277  1.0000
  C   C2539     1.0  0.88055  0.20247  0.62931  1.0000
  C   C2540     1.0  0.74542  0.19863  0.62145  1.0000
  S   S348      1.0  0.66329  0.22215  0.39641  1.0000
  H   H2048     1.0  0.62066  0.03539  0.47781  1.0000
  C   C2541     1.0  0.62335  0.00324  0.44721  1.0000
  H   H2049     1.0  0.66708  0.99467  0.56389  1.0000
  C   C2542     1.0  0.56639  0.03315  0.53760  1.0000
  C   C2543     1.0  0.88444  0.18264  0.62909  1.0000
  C   C2544     1.0  0.63634  0.99567  0.57324  1.0000
  H   H2050     1.0  0.59127  0.00231  0.31872  1.0000
  H   H2051     1.0  0.83888  0.13034  0.34417  1.0000
  H   H2052     1.0  0.74576  0.13682  0.58939  1.0000
  H   H2053     1.0  0.87777  0.22726  0.58147  1.0000
  C   C2545     1.0  0.72758  0.13696  0.52112  1.0000
  H   H2054     1.0  0.78958  0.21506  0.33169  1.0000
  H   H2055     1.0  0.57195  0.01288  0.57567  1.0000
  H   H2056     1.0  0.52832  0.13430  0.59304  1.0000
  C   C2546     1.0  0.76383  0.21181  0.47055  1.0000
  C   C2547     1.0  0.63885  0.10442  0.38267  1.0000
  C   C2548     1.0  0.75938  0.13911  0.44837  1.0000
  H   H2057     1.0  0.55585  0.02441  0.54573  1.0000
  C   C2549     1.0  0.56851  0.99898  0.57516  1.0000
  C   C2550     1.0  0.67408  0.08773  0.42151  1.0000
  P   P87       1.0  0.59064  0.09766  0.63321  1.0000
  C   C2551     1.0  0.59251  0.05641  0.51541  1.0000
  H   H2058     1.0  0.71325  0.10331  0.50213  1.0000
  C   C2552     1.0  0.60598  0.05631  0.39533  1.0000
  C   C2553     1.0  0.74997  0.15491  0.56127  1.0000
  H   H2059     1.0  0.86131  0.22558  0.64190  1.0000
  H   H2060     1.0  0.65879  0.20604  0.44242  1.0000
  C   C2554     1.0  0.63570  0.12416  0.40730  1.0000
  H   H2061     1.0  0.78272  0.11914  0.43550  1.0000
  H   H2062     1.0  0.71564  0.19127  0.54446  1.0000
  C   C2555     1.0  0.79440  0.15854  0.32871  1.0000
  H   H2063     1.0  0.64100  0.11969  0.35327  1.0000
  H   H2064     1.0  0.63319  0.03376  0.58921  1.0000
  Fe  Fe175     1.0  0.60756  0.99463  0.36572  1.0000
  C   C2556     1.0  0.83682  0.23292  0.45856  1.0000
  H   H2065     1.0  0.72232  0.21351  0.32528  1.0000
  H   H2066     1.0  0.89655  0.17662  0.61912  1.0000
  H   H2067     1.0  0.85585  0.20672  0.45262  1.0000
  H   H2068     1.0  0.49535  0.00708  0.40831  1.0000
  C   C2557     1.0  0.74455  0.14375  0.41414  1.0000
  C   C2558     1.0  0.65644  0.02999  0.60539  1.0000
  C   C2559     1.0  0.60488  0.20468  0.35951  1.0000
  C   C2560     1.0  0.69363  0.05498  0.38146  1.0000
  C   C2561     1.0  0.62766  0.03948  0.63618  1.0000
  C   C2562     1.0  0.53642  0.11740  0.61950  1.0000
  C   C2563     1.0  0.73531  0.19651  0.47980  1.0000
  C   C2564     1.0  0.55169  0.10872  0.62953  1.0000
  H   H2069     1.0  0.71987  0.10888  0.53302  1.0000
  H   H2070     1.0  0.60857  0.21898  0.35684  1.0000
  H   H2071     1.0  0.61756  0.12543  0.62868  1.0000
  C   C2565     1.0  0.72227  0.17930  0.55415  1.0000
  C   C2566     1.0  0.73689  0.21451  0.32654  1.0000
  H   H2072     1.0  0.77685  0.06559  0.33111  1.0000
  H   H2073     1.0  0.73898  0.22106  0.49106  1.0000
  C   C2567     1.0  0.80464  0.22987  0.52817  1.0000
  H   H2074     1.0  0.68537  0.09366  0.63731  1.0000
  C   C2568     1.0  0.70698  0.17862  0.45888  1.0000
  C   C2569     1.0  0.63061  0.08888  0.62057  1.0000
  C   C2570     1.0  0.63455  0.99694  0.53438  1.0000
  C   C2571     1.0  0.73936  0.14869  0.57940  1.0000
  C   C2572     1.0  0.63888  0.09167  0.32368  1.0000
  H   H2075     1.0  0.56205  0.13836  0.57808  1.0000
  C   C2573     1.0  0.63666  0.14047  0.39297  1.0000
  S   S349      1.0  0.60801  0.99582  0.43413  1.0000
  C   C2574     1.0  0.64209  0.99337  0.44872  1.0000
  C   C2575     1.0  0.68952  0.17186  0.46693  1.0000
  H   H2076     1.0  0.59720  0.16811  0.39701  1.0000
  C   C2576     1.0  0.74283  0.20898  0.34453  1.0000
  H   H2077     1.0  0.77161  0.22299  0.47158  1.0000
  C   C2577     1.0  0.74972  0.16555  0.31522  1.0000
  C   C2578     1.0  0.78949  0.22341  0.54200  1.0000
  C   C2579     1.0  0.78381  0.07723  0.33251  1.0000
  C   C2580     1.0  0.75958  0.09139  0.55160  1.0000
  C   C2581     1.0  0.58830  0.08645  0.46421  1.0000
  C   C2582     1.0  0.59252  0.09830  0.47559  1.0000
  C   C2583     1.0  0.60986  0.10558  0.47059  1.0000
  C   C2584     1.0  0.62293  0.10115  0.45415  1.0000
  H   H2078     1.0  0.57508  0.08036  0.46840  1.0000
  H   H2079     1.0  0.58259  0.10154  0.48852  1.0000
  C   C2585     1.0  0.80548  0.17105  0.33227  1.0000
  C   C2586     1.0  0.56019  0.05289  0.53206  1.0000
  C   C2587     1.0  0.60123  0.08224  0.44757  1.0000
  C   C2588     1.0  0.68988  0.21787  0.62598  1.0000
  H   H2080     1.0  0.77732  0.17204  0.57689  1.0000
  C   C2589     1.0  0.63332  0.03318  0.40506  1.0000
  H   H2081     1.0  0.60143  0.02637  0.45661  1.0000
  C   C2590     1.0  0.77491  0.21548  0.32984  1.0000
  H   H2082     1.0  0.54854  0.10054  0.64390  1.0000
  Fe  Fe176     1.0  0.52610  0.04950  0.62575  1.0000
  C   C2591     1.0  0.69586  0.11658  0.34421  1.0000
  C   C2592     1.0  0.80359  0.12302  0.60070  1.0000
  C   C2593     1.0  0.71566  0.08608  0.32528  1.0000
  C   C2594     1.0  0.71907  0.03515  0.32774  1.0000
  C   C2595     1.0  0.71167  0.17269  0.57206  1.0000
  C   C2596     1.0  0.68930  0.09883  0.34870  1.0000
  C   C2597     1.0  0.65237  0.99570  0.54015  1.0000
  H   H2083     1.0  0.60759  0.04208  0.61656  1.0000
  H   H2084     1.0  0.65222  0.04333  0.41894  1.0000
  C   C2598     1.0  0.74359  0.18305  0.46741  1.0000
  H   H2085     1.0  0.76653  0.20494  0.36009  1.0000
  H   H2086     1.0  0.74526  0.11704  0.56255  1.0000
  P   P88       1.0  0.77450  0.14299  0.55475  1.0000
  C   C2599     1.0  0.63702  0.03390  0.60309  1.0000
  S   S350      1.0  0.65317  0.19422  0.37014  1.0000
  H   H2087     1.0  0.54529  0.05922  0.53656  1.0000
  H   H2088     1.0  0.80552  0.16697  0.54726  1.0000
  C   C2600     1.0  0.61213  0.07053  0.40230  1.0000
  C   C2601     1.0  0.69309  0.06770  0.44486  1.0000
  C   C2602     1.0  0.57087  0.11018  0.62083  1.0000
  C   C2603     1.0  0.71804  0.11658  0.50278  1.0000
  H   H2089     1.0  0.69683  0.17939  0.57617  1.0000
  C   C2604     1.0  0.57327  0.06454  0.52109  1.0000
  C   C2605     1.0  0.65884  0.07720  0.42898  1.0000
  C   C2606     1.0  0.75873  0.10999  0.55530  1.0000
  C   C2607     1.0  0.86486  0.21016  0.64213  1.0000
  S   S351      1.0  0.68483  0.22291  0.35135  1.0000
  H   H2090     1.0  0.54831  0.99901  0.60181  1.0000
  C   C2608     1.0  0.59787  0.98794  0.51934  1.0000
  H   H2091     1.0  0.68148  0.06006  0.63865  1.0000
  C   C2609     1.0  0.65328  0.99518  0.55955  1.0000
  C   C2610     1.0  0.64709  0.03499  0.63881  1.0000
  S   S352      1.0  0.75673  0.07130  0.64273  1.0000
  H   H2092     1.0  0.85280  0.22067  0.50888  1.0000
  H   H2093     1.0  0.76487  0.23135  0.56342  1.0000
  C   C2611     1.0  0.81293  0.08960  0.33223  1.0000
  H   H2094     1.0  0.82018  0.19355  0.64452  1.0000
  C   C2612     1.0  0.84978  0.21607  0.46330  1.0000
  C   C2613     1.0  0.79524  0.18276  0.64174  1.0000
  C   C2614     1.0  0.59075  0.98726  0.48769  1.0000
  C   C2615     1.0  0.64161  0.21433  0.31878  1.0000
  H   H2095     1.0  0.63705  0.99533  0.58828  1.0000
  H   H2096     1.0  0.67101  0.21752  0.31789  1.0000
  H   H2097     1.0  0.87579  0.15525  0.64098  1.0000
  C   C2616     1.0  0.67905  0.98367  0.32363  1.0000
  Fe  Fe177     1.0  0.49110  0.07895  0.63776  1.0000
  H   H2098     1.0  0.79626  0.15523  0.31426  1.0000
  H   H2099     1.0  0.69153  0.23085  0.61548  1.0000
  C   C2617     1.0  0.68435  0.21903  0.64564  1.0000
  C   C2618     1.0  0.61165  0.04733  0.31352  1.0000
  C   C2619     1.0  0.59932  0.98922  0.31375  1.0000
  H   H2100     1.0  0.56126  0.03859  0.64663  1.0000
  Fe  Fe178     1.0  0.84482  0.12584  0.76352  1.0000
  S   S353      1.0  0.85366  0.09360  0.76795  1.0000
  S   S354      1.0  0.81824  0.14399  0.77757  1.0000
  Fe  Fe179     1.0  0.88052  0.13236  0.73373  1.0000
  S   S355      1.0  0.89199  0.10065  0.73552  1.0000
  S   S356      1.0  0.89582  0.15513  0.71340  1.0000
  Fe  Fe180     1.0  0.86106  0.09771  0.73540  1.0000
  S   S357      1.0  0.85457  0.07759  0.71733  1.0000
  Fe  Fe181     1.0  0.88361  0.09961  0.76767  1.0000
  S   S358      1.0  0.90194  0.08285  0.79032  1.0000
  S   S359      1.0  0.85043  0.12951  0.73121  1.0000
  S   S360      1.0  0.87391  0.13155  0.76579  1.0000
  C   C2620     1.0  0.78552  0.19329  0.93775  1.0000
  H   H2101     1.0  0.61679  0.22190  0.73764  1.0000
  H   H2102     1.0  0.86763  0.07660  0.82639  1.0000
  S   S361      1.0  0.96839  0.11618  0.81474  1.0000
  Fe  Fe182     1.0  0.97261  0.10918  0.88598  1.0000
  S   S362      1.0  0.94601  0.10299  0.90866  1.0000
  S   S363      1.0  0.97515  0.13329  0.86039  1.0000
  Fe  Fe183     1.0  0.70907  0.15832  0.86104  1.0000
  S   S364      1.0  0.68904  0.14530  0.88635  1.0000
  S   S365      1.0  0.70374  0.19018  0.85008  1.0000
  Fe  Fe184     1.0  0.73401  0.12000  0.85564  1.0000
  S   S366      1.0  0.71555  0.10422  0.88029  1.0000
  S   S367      1.0  0.75969  0.10114  0.84137  1.0000
  Fe  Fe185     1.0  0.69015  0.12294  0.86768  1.0000
  S   S368      1.0  0.66488  0.10898  0.86455  1.0000
  Fe  Fe186     1.0  0.71667  0.12812  0.89603  1.0000
  S   S369      1.0  0.72268  0.12238  0.92717  1.0000
  S   S370      1.0  0.70883  0.13703  0.84191  1.0000
  S   S371      1.0  0.73639  0.14296  0.87182  1.0000
  H   H2103     1.0  0.78273  0.17318  0.77042  1.0000
  S   S372      1.0  0.88048  0.14409  0.96914  1.0000
  C   C2621     1.0  0.98162  0.01923  0.87425  1.0000
  H   H2104     1.0  0.74519  0.22842  0.84295  1.0000
  C   C2622     1.0  0.59890  0.13789  0.67285  1.0000
  S   S373      1.0  0.72569  0.05483  0.69197  1.0000
  Fe  Fe187     1.0  0.60426  0.11100  0.77708  1.0000
  S   S374      1.0  0.62916  0.11458  0.75283  1.0000
  S   S375      1.0  0.60465  0.11646  0.80744  1.0000
  Fe  Fe188     1.0  0.57831  0.10404  0.74932  1.0000
  S   S376      1.0  0.60150  0.10771  0.72352  1.0000
  S   S377      1.0  0.54876  0.10099  0.74435  1.0000
  Fe  Fe189     1.0  0.62113  0.08957  0.74342  1.0000
  S   S378      1.0  0.63968  0.06214  0.73612  1.0000
  Fe  Fe190     1.0  0.60656  0.13230  0.73586  1.0000
  S   S379      1.0  0.60868  0.16203  0.71913  1.0000
  S   S380      1.0  0.59758  0.08449  0.76893  1.0000
  S   S381      1.0  0.58190  0.13011  0.76038  1.0000
  Fe  Fe191     1.0  0.51258  0.05271  0.66834  1.0000
  H   H2105     1.0  0.76187  0.19068  0.68185  1.0000
  S   S382      1.0  0.52451  0.04674  0.69660  1.0000
  C   C2623     1.0  0.83312  0.22815  0.86706  1.0000
  C   C2624     1.0  0.97889  0.14091  0.74755  1.0000
  H   H2106     1.0  0.84117  0.20420  0.66486  1.0000
  C   C2625     1.0  0.54681  0.08521  0.72882  1.0000
  C   C2626     1.0  0.54298  0.09244  0.70993  1.0000
  C   C2627     1.0  0.53731  0.08057  0.69917  1.0000
  C   C2628     1.0  0.53485  0.06159  0.70752  1.0000
  C   C2629     1.0  0.53957  0.05423  0.72598  1.0000
  C   C2630     1.0  0.54547  0.06593  0.73655  1.0000
  H   H2107     1.0  0.54351  0.10744  0.70394  1.0000
  H   H2108     1.0  0.53381  0.08639  0.68491  1.0000
  C   C2631     1.0  0.63672  0.02752  0.68223  1.0000
  H   H2109     1.0  0.54799  0.06026  0.75118  1.0000
  C   C2632     1.0  0.61058  0.17642  0.73563  1.0000
  C   C2633     1.0  0.61307  0.19567  0.72930  1.0000
  C   C2634     1.0  0.61470  0.20708  0.74254  1.0000
  C   C2635     1.0  0.57271  0.04200  0.67114  1.0000
  C   C2636     1.0  0.81294  0.17221  0.72473  1.0000
  C   C2637     1.0  0.60953  0.16869  0.75528  1.0000
  H   H2110     1.0  0.61389  0.20164  0.71416  1.0000
  H   H2111     1.0  0.63166  0.19380  0.93289  1.0000
  S   S383      1.0  0.75429  0.09741  0.67652  1.0000
  H   H2112     1.0  0.60813  0.15378  0.76038  1.0000
  C   C2638     1.0  0.70192  0.05830  0.70457  1.0000
  C   C2639     1.0  0.69496  0.04214  0.71603  1.0000
  C   C2640     1.0  0.67590  0.04375  0.72572  1.0000
  C   C2641     1.0  0.66374  0.06164  0.72453  1.0000
  C   C2642     1.0  0.67070  0.07807  0.71349  1.0000
  C   C2643     1.0  0.68982  0.07636  0.70329  1.0000
  H   H2113     1.0  0.70425  0.02820  0.71709  1.0000
  H   H2114     1.0  0.67055  0.03103  0.73417  1.0000
  H   H2115     1.0  0.66124  0.09190  0.71243  1.0000
  H   H2116     1.0  0.69517  0.08890  0.69446  1.0000
  C   C2644     1.0  0.62497  0.11349  0.81947  1.0000
  C   C2645     1.0  0.62942  0.09643  0.83235  1.0000
  C   C2646     1.0  0.64213  0.09524  0.84542  1.0000
  C   C2647     1.0  0.65078  0.11104  0.84595  1.0000
  C   C2648     1.0  0.64678  0.12806  0.83277  1.0000
  C   C2649     1.0  0.63381  0.12932  0.81973  1.0000
  H   H2117     1.0  0.62231  0.08430  0.83289  1.0000
  H   H2118     1.0  0.64486  0.08207  0.85562  1.0000
  H   H2119     1.0  0.65290  0.14053  0.83329  1.0000
  H   H2120     1.0  0.62987  0.14289  0.81052  1.0000
  C   C2650     1.0  0.74436  0.12461  0.93471  1.0000
  C   C2651     1.0  0.74617  0.11915  0.95438  1.0000
  C   C2652     1.0  0.76297  0.12093  0.96102  1.0000
  C   C2653     1.0  0.77812  0.12849  0.94807  1.0000
  H   H2121     1.0  0.73453  0.11338  0.96454  1.0000
  H   H2122     1.0  0.96289  0.06084  0.91948  1.0000
  C   C2654     1.0  0.62395  0.02505  0.71658  1.0000
  C   C2655     1.0  0.67766  0.20131  0.78664  1.0000
  C   C2656     1.0  0.71481  0.19478  0.88337  1.0000
  C   C2657     1.0  0.70888  0.20372  0.86576  1.0000
  P   P89       1.0  0.67597  0.20394  0.68473  1.0000
  C   C2658     1.0  0.77631  0.18723  0.77413  1.0000
  C   C2659     1.0  0.83233  0.19711  0.82252  1.0000
  H   H2123     1.0  0.71557  0.17937  0.88787  1.0000
  H   H2124     1.0  0.76089  0.21065  0.73470  1.0000
  H   H2125     1.0  0.91494  0.21216  0.79629  1.0000
  C   C2660     1.0  0.92760  0.11546  0.92454  1.0000
  C   C2661     1.0  0.91124  0.10685  0.93321  1.0000
  C   C2662     1.0  0.89665  0.11543  0.94675  1.0000
  C   C2663     1.0  0.89819  0.13290  0.95173  1.0000
  C   C2664     1.0  0.91432  0.14177  0.94273  1.0000
  C   C2665     1.0  0.92898  0.13310  0.92923  1.0000
  H   H2126     1.0  0.90993  0.09336  0.92948  1.0000
  H   H2127     1.0  0.88437  0.10841  0.95353  1.0000
  H   H2128     1.0  0.91567  0.15527  0.94649  1.0000
  H   H2129     1.0  0.94149  0.13989  0.92274  1.0000
  C   C2666     1.0  0.83957  0.08122  0.69930  1.0000
  C   C2667     1.0  0.84462  0.06878  0.68562  1.0000
  C   C2668     1.0  0.83395  0.07092  0.67062  1.0000
  C   C2669     1.0  0.82632  0.17912  0.82497  1.0000
  H   H2130     1.0  0.57561  0.20504  0.79704  1.0000
  C   C2670     1.0  0.82292  0.09544  0.69825  1.0000
  H   H2131     1.0  0.85726  0.05765  0.68631  1.0000
  H   H2132     1.0  0.88506  0.08703  0.67267  1.0000
  C   C2671     1.0  0.76221  0.20235  0.70728  1.0000
  H   H2133     1.0  0.81869  0.10499  0.70884  1.0000
  C   C2672     1.0  0.80307  0.13190  0.79648  1.0000
  C   C2673     1.0  0.78759  0.14266  0.80718  1.0000
  C   C2674     1.0  0.77441  0.13334  0.82138  1.0000
  C   C2675     1.0  0.77681  0.11320  0.82498  1.0000
  C   C2676     1.0  0.79273  0.10242  0.81487  1.0000
  C   C2677     1.0  0.80583  0.11176  0.80060  1.0000
  H   H2134     1.0  0.78559  0.15820  0.80431  1.0000
  H   H2135     1.0  0.76216  0.14169  0.82920  1.0000
  H   H2136     1.0  0.79462  0.08681  0.81769  1.0000
  H   H2137     1.0  0.81768  0.10335  0.79245  1.0000
  C   C2678     1.0  0.91932  0.09311  0.79780  1.0000
  C   C2679     1.0  0.92803  0.10791  0.78566  1.0000
  C   C2680     1.0  0.94309  0.11455  0.79106  1.0000
  C   C2681     1.0  0.94932  0.10695  0.80890  1.0000
  C   C2682     1.0  0.94036  0.09238  0.82129  1.0000
  C   C2683     1.0  0.92551  0.08542  0.81569  1.0000
  H   H2138     1.0  0.92359  0.11382  0.77178  1.0000
  H   H2139     1.0  0.95000  0.12561  0.78121  1.0000
  H   H2140     1.0  0.94502  0.08629  0.83503  1.0000
  H   H2141     1.0  0.91894  0.07387  0.82514  1.0000
  C   C2684     1.0  0.89556  0.17485  0.72461  1.0000
  C   C2685     1.0  0.89278  0.19372  0.71427  1.0000
  H   H2142     1.0  0.98152  0.15188  0.79073  1.0000
  H   H2143     1.0  0.51308  0.14886  0.83601  1.0000
  C   C2686     1.0  0.89430  0.18771  0.75374  1.0000
  C   C2687     1.0  0.89685  0.17192  0.74421  1.0000
  H   H2144     1.0  0.89183  0.19603  0.69906  1.0000
  H   H2145     1.0  0.64631  0.17891  0.70242  1.0000
  H   H2146     1.0  0.89498  0.18527  0.76898  1.0000
  H   H2147     1.0  0.89990  0.15746  0.75205  1.0000
  H   H2148     1.0  0.56927  0.16719  0.70613  1.0000
  C   C2688     1.0  0.58008  0.18394  0.84831  1.0000
  C   C2689     1.0  0.59060  0.16518  0.84999  1.0000
  C   C2690     1.0  0.58700  0.15194  0.83979  1.0000
  C   C2691     1.0  0.57296  0.15743  0.82781  1.0000
  H   H2149     1.0  0.56747  0.02953  0.68036  1.0000
  H   H2150     1.0  0.58318  0.19397  0.85628  1.0000
  H   H2151     1.0  0.60172  0.16087  0.85905  1.0000
  H   H2152     1.0  0.59522  0.13744  0.84105  1.0000
  H   H2153     1.0  0.57065  0.14720  0.81955  1.0000
  H   H2154     1.0  0.55031  0.18694  0.68134  1.0000
  C   C2692     1.0  0.56287  0.21541  0.79398  1.0000
  H   H2155     1.0  0.97191  0.07001  0.75138  1.0000
  S   S384      1.0  0.71713  0.10294  0.65396  1.0000
  C   C2693     1.0  0.93620  0.08399  0.97927  1.0000
  H   H2156     1.0  0.50230  0.17763  0.75530  1.0000
  C   C2694     1.0  0.69028  0.02737  0.67231  1.0000
  C   C2695     1.0  0.52403  0.13939  0.82797  1.0000
  C   C2696     1.0  0.53719  0.12585  0.83788  1.0000
  C   C2697     1.0  0.55168  0.11356  0.82789  1.0000
  C   C2698     1.0  0.69448  0.14832  0.96432  1.0000
  H   H2157     1.0  0.77013  0.16941  0.94877  1.0000
  H   H2158     1.0  0.53635  0.12499  0.85330  1.0000
  H   H2159     1.0  0.56218  0.10334  0.83544  1.0000
  H   H2160     1.0  0.73462  0.22018  0.77533  1.0000
  H   H2161     1.0  0.61024  0.21856  0.66824  1.0000
  C   C2699     1.0  0.82675  0.17848  0.73218  1.0000
  H   H2162     1.0  0.79880  0.10785  0.68287  1.0000
  C   C2700     1.0  0.49125  0.08581  0.72179  1.0000
  H   H2163     1.0  0.64727  0.04016  0.70236  1.0000
  H   H2164     1.0  0.55623  0.19680  0.72960  1.0000
  C   C2701     1.0  0.65770  0.14939  0.76959  1.0000
  C   C2702     1.0  0.66034  0.15993  0.78300  1.0000
  C   C2703     1.0  0.67411  0.15221  0.79509  1.0000
  C   C2704     1.0  0.68476  0.13370  0.79421  1.0000
  C   C2705     1.0  0.68140  0.12266  0.78143  1.0000
  C   C2706     1.0  0.66820  0.13086  0.76879  1.0000
  P   P90       1.0  0.69518  0.09896  0.77943  1.0000
  C   C2707     1.0  0.71216  0.10250  0.75728  1.0000
  C   C2708     1.0  0.70747  0.08965  0.79989  1.0000
  C   C2709     1.0  0.72740  0.08243  0.79743  1.0000
  C   C2710     1.0  0.73667  0.07574  0.81356  1.0000
  C   C2711     1.0  0.72608  0.07599  0.83217  1.0000
  C   C2712     1.0  0.70616  0.08256  0.83471  1.0000
  C   C2713     1.0  0.69685  0.08922  0.81865  1.0000
  C   C2714     1.0  0.71174  0.09405  0.74130  1.0000
  C   C2715     1.0  0.72553  0.09679  0.72460  1.0000
  C   C2716     1.0  0.58877  0.06965  0.66670  1.0000
  H   H2165     1.0  0.52084  0.14257  0.66554  1.0000
  C   C2717     1.0  0.72566  0.11468  0.75578  1.0000
  C   C2718     1.0  0.67967  0.08183  0.77982  1.0000
  C   C2719     1.0  0.65971  0.08598  0.78646  1.0000
  C   C2720     1.0  0.64775  0.07269  0.78672  1.0000
  C   C2721     1.0  0.65563  0.05513  0.78040  1.0000
  C   C2722     1.0  0.67558  0.05060  0.77437  1.0000
  C   C2723     1.0  0.68762  0.06376  0.77440  1.0000
  H   H2166     1.0  0.64739  0.15548  0.75990  1.0000
  H   H2167     1.0  0.65164  0.17403  0.78404  1.0000
  H   H2168     1.0  0.67632  0.16042  0.80541  1.0000
  H   H2169     1.0  0.69535  0.12805  0.80369  1.0000
  H   H2170     1.0  0.66590  0.12276  0.75847  1.0000
  H   H2171     1.0  0.73586  0.08198  0.78316  1.0000
  H   H2172     1.0  0.75212  0.07058  0.81172  1.0000
  H   H2173     1.0  0.73335  0.07120  0.84464  1.0000
  H   H2174     1.0  0.69792  0.08261  0.84916  1.0000
  H   H2175     1.0  0.68139  0.09425  0.82085  1.0000
  H   H2176     1.0  0.70090  0.08541  0.74148  1.0000
  H   H2177     1.0  0.79205  0.19126  0.95054  1.0000
  H   H2178     1.0  0.71039  0.14220  0.71470  1.0000
  C   C2724     1.0  0.86674  0.10713  0.81723  1.0000
  H   H2179     1.0  0.72557  0.12197  0.76762  1.0000
  H   H2180     1.0  0.65329  0.09943  0.79148  1.0000
  H   H2181     1.0  0.63233  0.07612  0.79170  1.0000
  H   H2182     1.0  0.64626  0.04510  0.78000  1.0000
  H   H2183     1.0  0.68168  0.03699  0.76945  1.0000
  H   H2184     1.0  0.70308  0.05993  0.76992  1.0000
  C   C2725     1.0  0.69143  0.19924  0.79859  1.0000
  C   C2726     1.0  0.71694  0.18908  0.77285  1.0000
  C   C2727     1.0  0.71096  0.19302  0.79181  1.0000
  P   P91       1.0  0.74234  0.18153  0.76403  1.0000
  C   C2728     1.0  0.74907  0.15602  0.77260  1.0000
  C   C2729     1.0  0.74739  0.18538  0.73785  1.0000
  C   C2730     1.0  0.74260  0.17253  0.72776  1.0000
  C   C2731     1.0  0.74783  0.17442  0.70766  1.0000
  C   C2732     1.0  0.76536  0.14534  0.76273  1.0000
  C   C2733     1.0  0.77074  0.12564  0.76921  1.0000
  C   C2734     1.0  0.75983  0.11640  0.78551  1.0000
  C   C2735     1.0  0.74369  0.12688  0.79554  1.0000
  C   C2736     1.0  0.73831  0.14663  0.78916  1.0000
  C   C2737     1.0  0.75695  0.19500  0.77249  1.0000
  C   C2738     1.0  0.74935  0.21355  0.77696  1.0000
  H   H2185     1.0  0.98001  0.19946  0.73127  1.0000
  H   H2186     1.0  0.68705  0.20274  0.81305  1.0000
  H   H2187     1.0  0.72136  0.19149  0.80138  1.0000
  H   H2188     1.0  0.73498  0.16092  0.73549  1.0000
  H   H2189     1.0  0.74433  0.16432  0.69995  1.0000
  H   H2190     1.0  0.77413  0.15221  0.75015  1.0000
  H   H2191     1.0  0.78365  0.11760  0.76187  1.0000
  H   H2192     1.0  0.76430  0.10123  0.79081  1.0000
  H   H2193     1.0  0.73567  0.11969  0.80856  1.0000
  H   H2194     1.0  0.72590  0.15441  0.79734  1.0000
  H   H2195     1.0  0.87278  0.06357  0.93158  1.0000
  H   H2196     1.0  0.49976  0.21984  0.82094  1.0000
  C   C2739     1.0  0.87072  0.12407  0.82122  1.0000
  C   C2740     1.0  0.87014  0.08981  0.82996  1.0000
  C   C2741     1.0  0.87742  0.08938  0.84678  1.0000
  C   C2742     1.0  0.88117  0.10639  0.85110  1.0000
  C   C2743     1.0  0.87739  0.12383  0.83836  1.0000
  P   P92       1.0  0.88763  0.10658  0.87419  1.0000
  C   C2744     1.0  0.86554  0.10998  0.89141  1.0000
  C   C2745     1.0  0.90166  0.08364  0.88279  1.0000
  C   C2746     1.0  0.89231  0.06779  0.89135  1.0000
  C   C2747     1.0  0.90288  0.05021  0.89881  1.0000
  C   C2748     1.0  0.50422  0.19333  0.80948  1.0000
  C   C2749     1.0  0.55513  0.16426  0.70541  1.0000
  C   C2750     1.0  0.92177  0.08155  0.88178  1.0000
  C   C2751     1.0  0.86615  0.10568  0.91130  1.0000
  H   H2197     1.0  0.61640  0.04357  0.64781  1.0000
  H   H2198     1.0  0.86320  0.17760  0.69365  1.0000
  C   C2752     1.0  0.95765  0.05085  0.93205  1.0000
  C   C2753     1.0  0.84750  0.11520  0.88517  1.0000
  C   C2754     1.0  0.90181  0.12540  0.87181  1.0000
  C   C2755     1.0  0.90007  0.13583  0.88688  1.0000
  C   C2756     1.0  0.91151  0.15003  0.88498  1.0000
  C   C2757     1.0  0.92483  0.15381  0.86812  1.0000
  C   C2758     1.0  0.92677  0.14337  0.85312  1.0000
  C   C2759     1.0  0.91540  0.12916  0.85499  1.0000
  H   H2199     1.0  0.86825  0.13739  0.81112  1.0000
  C   C2760     1.0  0.55289  0.11465  0.80801  1.0000
  H   H2200     1.0  0.88001  0.07575  0.85629  1.0000
  H   H2201     1.0  0.87944  0.13726  0.84173  1.0000
  H   H2202     1.0  0.87680  0.06905  0.89235  1.0000
  H   H2203     1.0  0.82362  0.18293  0.93324  1.0000
  C   C2761     1.0  0.81737  0.08496  0.66941  1.0000
  C   C2762     1.0  0.70290  0.19036  0.76125  1.0000
  H   H2204     1.0  0.92946  0.09348  0.87552  1.0000
  H   H2205     1.0  0.87986  0.10154  0.91645  1.0000
  C   C2763     1.0  0.71174  0.99693  0.66967  1.0000
  C   C2764     1.0  0.68019  0.00244  0.66006  1.0000
  H   H2206     1.0  0.97240  0.99528  0.86671  1.0000
  H   H2207     1.0  0.84650  0.11870  0.87001  1.0000
  H   H2208     1.0  0.89025  0.13287  0.90027  1.0000
  H   H2209     1.0  0.91045  0.15770  0.89686  1.0000
  H   H2210     1.0  0.93402  0.16444  0.86690  1.0000
  H   H2211     1.0  0.93751  0.14584  0.84026  1.0000
  H   H2212     1.0  0.91752  0.12083  0.84344  1.0000
  C   C2765     1.0  0.81740  0.11229  0.84840  1.0000
  C   C2766     1.0  0.80048  0.10762  0.86038  1.0000
  C   C2767     1.0  0.78672  0.12207  0.86801  1.0000
  C   C2768     1.0  0.78967  0.14129  0.86337  1.0000
  C   C2769     1.0  0.80647  0.14621  0.85093  1.0000
  C   C2770     1.0  0.82055  0.13142  0.84406  1.0000
  P   P93       1.0  0.81168  0.17046  0.84759  1.0000
  C   C2771     1.0  0.78972  0.18787  0.84815  1.0000
  C   C2772     1.0  0.82342  0.16983  0.86781  1.0000
  C   C2773     1.0  0.81292  0.16691  0.88663  1.0000
  C   C2774     1.0  0.82241  0.16325  0.90260  1.0000
  C   C2775     1.0  0.84238  0.16283  0.89990  1.0000
  C   C2776     1.0  0.85285  0.16621  0.88121  1.0000
  C   C2777     1.0  0.84348  0.16944  0.86519  1.0000
  C   C2778     1.0  0.75833  0.19971  0.83820  1.0000
  C   C2779     1.0  0.77449  0.18523  0.83974  1.0000
  H   H2213     1.0  0.82798  0.10107  0.84237  1.0000
  H   H2214     1.0  0.79774  0.09288  0.86340  1.0000
  H   H2215     1.0  0.77360  0.11829  0.87726  1.0000
  H   H2216     1.0  0.77885  0.15219  0.86964  1.0000
  H   H2217     1.0  0.83407  0.13457  0.83558  1.0000
  H   H2218     1.0  0.79753  0.16667  0.88898  1.0000
  H   H2219     1.0  0.81432  0.16011  0.91707  1.0000
  H   H2220     1.0  0.84979  0.15956  0.91228  1.0000
  H   H2221     1.0  0.86834  0.16582  0.87913  1.0000
  H   H2222     1.0  0.85203  0.17100  0.85087  1.0000
  H   H2223     1.0  0.74647  0.19756  0.83191  1.0000
  H   H2224     1.0  0.77516  0.17213  0.83413  1.0000
  H   H2225     1.0  0.97885  0.02655  0.92441  1.0000
  C   C2780     1.0  0.95735  0.17070  0.75291  1.0000
  C   C2781     1.0  0.81329  0.22989  0.71061  1.0000
  C   C2782     1.0  0.83039  0.11536  0.89859  1.0000
  C   C2783     1.0  0.96381  0.16989  0.77041  1.0000
  C   C2784     1.0  0.98723  0.18340  0.83504  1.0000
  P   P94       1.0  0.95263  0.18763  0.78588  1.0000
  C   C2785     1.0  0.96617  0.18603  0.80515  1.0000
  C   C2786     1.0  0.98460  0.05497  0.77631  1.0000
  C   C2787     1.0  0.95067  0.05857  0.77418  1.0000
  C   C2788     1.0  0.95654  0.18677  0.82419  1.0000
  H   H2226     1.0  0.67065  0.19141  0.88136  1.0000
  C   C2789     1.0  0.93743  0.21785  0.75904  1.0000
  C   C2790     1.0  0.97737  0.15391  0.77665  1.0000
  C   C2791     1.0  0.50318  0.19737  0.86878  1.0000
  C   C2792     1.0  0.92873  0.18233  0.79619  1.0000
  C   C2793     1.0  0.92575  0.16310  0.80091  1.0000
  C   C2794     1.0  0.90720  0.15873  0.80800  1.0000
  C   C2795     1.0  0.89153  0.17357  0.81101  1.0000
  C   C2796     1.0  0.89450  0.19277  0.80701  1.0000
  C   C2797     1.0  0.91303  0.19717  0.79962  1.0000
  C   C2798     1.0  0.95998  0.01892  0.95128  1.0000
  C   C2799     1.0  0.69880  0.15885  0.97693  1.0000
  H   H2227     1.0  0.62251  0.14576  0.65073  1.0000
  H   H2228     1.0  0.63029  0.06802  0.68194  1.0000
  H   H2229     1.0  0.94094  0.18832  0.82765  1.0000
  C   C2800     1.0  0.76068  0.22368  0.78380  1.0000
  H   H2230     1.0  0.69945  0.22614  0.73569  1.0000
  C   C2801     1.0  0.98124  0.04484  0.79528  1.0000
  H   H2231     1.0  0.94606  0.18203  0.74818  1.0000
  H   H2232     1.0  0.93777  0.15146  0.79899  1.0000
  H   H2233     1.0  0.90512  0.14380  0.81080  1.0000
  H   H2234     1.0  0.87707  0.17026  0.81613  1.0000
  H   H2235     1.0  0.88241  0.20437  0.80903  1.0000
  C   C2802     1.0  0.75963  0.13192  0.92174  1.0000
  C   C2803     1.0  0.96238  0.04159  0.80353  1.0000
  C   C2804     1.0  0.78760  0.19741  0.78092  1.0000
  C   C2805     1.0  0.68929  0.21654  0.71329  1.0000
  H   H2236     1.0  0.93104  0.03481  0.90383  1.0000
  C   C2806     1.0  0.77633  0.13386  0.92840  1.0000
  H   H2237     1.0  0.75847  0.13624  0.90661  1.0000
  C   C2807     1.0  0.66190  0.15212  0.71477  1.0000
  H   H2238     1.0  0.80239  0.19104  0.78250  1.0000
  C   C2808     1.0  0.96935  0.06188  0.76585  1.0000
  C   C2809     1.0  0.68337  0.20216  0.65944  1.0000
  C   C2810     1.0  0.96494  0.15636  0.74150  1.0000
  C   C2811     1.0  0.75751  0.21707  0.84460  1.0000
  C   C2812     1.0  0.66036  0.17127  0.70523  1.0000
  C   C2813     1.0  0.92285  0.04834  0.89789  1.0000
  H   H2239     1.0  0.93258  0.04624  0.79942  1.0000
  H   H2240     1.0  0.82854  0.20554  0.83408  1.0000
  C   C2814     1.0  0.73461  0.18638  0.65516  1.0000
  C   C2815     1.0  0.75772  0.18928  0.69743  1.0000
  H   H2241     1.0  0.73879  0.16616  0.97053  1.0000
  C   C2816     1.0  0.75709  0.20044  0.72740  1.0000
  C   C2817     1.0  0.83060  0.16913  0.80928  1.0000
  C   C2818     1.0  0.81163  0.09703  0.68356  1.0000
  Fe  Fe192     1.0  0.73616  0.07862  0.66941  1.0000
  C   C2819     1.0  0.81720  0.16766  0.70606  1.0000
  C   C2820     1.0  0.78863  0.20523  0.85483  1.0000
  H   H2242     1.0  0.78285  0.13934  0.66408  1.0000
  C   C2821     1.0  0.61054  0.18019  0.76858  1.0000
  C   C2822     1.0  0.78996  0.20775  0.92201  1.0000
  C   C2823     1.0  0.69634  0.15043  0.71251  1.0000
  C   C2824     1.0  0.77259  0.21980  0.85299  1.0000
  H   H2243     1.0  0.92730  0.20877  0.75824  1.0000
  H   H2244     1.0  0.64915  0.14528  0.71921  1.0000
  H   H2245     1.0  0.70690  0.18681  0.74686  1.0000
  C   C2825     1.0  0.61332  0.19931  0.76221  1.0000
  H   H2246     1.0  0.80032  0.20776  0.86105  1.0000
  H   H2247     1.0  0.73134  0.18830  0.67010  1.0000
  H   H2248     1.0  0.66255  0.20643  0.79180  1.0000
  C   C2826     1.0  0.68338  0.19664  0.76808  1.0000
  H   H2249     1.0  0.85235  0.16762  0.94769  1.0000
  H   H2250     1.0  0.56426  0.10520  0.80028  1.0000
  C   C2827     1.0  0.72970  0.21566  0.96241  1.0000
  H   H2251     1.0  0.82507  0.15599  0.81016  1.0000
  C   C2828     1.0  0.93226  0.06399  0.88934  1.0000
  H   H2252     1.0  0.66950  0.99718  0.65460  1.0000
  H   H2253     1.0  0.76973  0.21394  0.69927  1.0000
  C   C2829     1.0  0.54445  0.17535  0.69151  1.0000
  C   C2830     1.0  0.67689  0.18011  0.69916  1.0000
  H   H2254     1.0  0.55129  0.18004  0.81707  1.0000
  C   C2831     1.0  0.63680  0.21693  0.94572  1.0000
  H   H2255     1.0  0.75036  0.11032  0.71088  1.0000
  H   H2256     1.0  0.72547  0.19875  0.90823  1.0000
  H   H2257     1.0  0.54941  0.16651  0.78774  1.0000
  H   H2258     1.0  0.60958  0.17409  0.78379  1.0000
  H   H2259     1.0  0.56916  0.10736  0.67022  1.0000
  C   C2832     1.0  0.67992  0.14163  0.71817  1.0000
  H   H2260     1.0  0.68124  0.12658  0.72488  1.0000
  C   C2833     1.0  0.84769  0.19418  0.78967  1.0000
  C   C2834     1.0  0.65579  0.06133  0.66062  1.0000
  C   C2835     1.0  0.73949  0.10829  0.72362  1.0000
  H   H2261     1.0  0.54108  0.12884  0.78257  1.0000
  P   P95       1.0  0.65358  0.03647  0.66159  1.0000
  H   H2262     1.0  0.49206  0.18579  0.71790  1.0000
  H   H2263     1.0  0.67259  0.19785  0.75903  1.0000
  C   C2836     1.0  0.84287  0.20463  0.80493  1.0000
  C   C2837     1.0  0.51803  0.23158  0.85432  1.0000
  C   C2838     1.0  0.72040  0.20575  0.89490  1.0000
  S   S385      1.0  0.72781  0.14962  0.66860  1.0000
  C   C2839     1.0  0.95113  0.21158  0.77153  1.0000
  C   C2840     1.0  0.89049  0.20654  0.74372  1.0000
  C   C2841     1.0  0.85444  0.13843  0.67191  1.0000
  H   H2264     1.0  0.66441  0.20712  0.91011  1.0000
  H   H2265     1.0  0.93872  0.06424  0.76627  1.0000
  C   C2842     1.0  0.85691  0.06041  0.96053  1.0000
  H   H2266     1.0  0.51823  0.18014  0.67975  1.0000
  C   C2843     1.0  0.49237  0.21492  0.87318  1.0000
  H   H2267     1.0  0.64351  0.20064  0.66737  1.0000
  C   C2844     1.0  0.54322  0.17256  0.77477  1.0000
  C   C2845     1.0  0.56586  0.18956  0.83636  1.0000
  H   H2268     1.0  0.50811  0.11948  0.78882  1.0000
  Fe  Fe193     1.0  0.98162  0.10976  0.84238  1.0000
  C   C2846     1.0  0.52420  0.17091  0.77374  1.0000
  C   C2847     1.0  0.70739  0.22373  0.86036  1.0000
  C   C2848     1.0  0.89007  0.20960  0.72387  1.0000
  C   C2849     1.0  0.65136  0.21674  0.68641  1.0000
  C   C2850     1.0  0.69168  0.21603  0.69345  1.0000
  C   C2851     1.0  0.69635  0.23077  0.97054  1.0000
  C   C2852     1.0  0.84902  0.17624  0.70206  1.0000
  H   H2269     1.0  0.58540  0.04914  0.69312  1.0000
  C   C2853     1.0  0.85540  0.21456  0.94651  1.0000
  C   C2854     1.0  0.56224  0.17608  0.82626  1.0000
  C   C2855     1.0  0.54715  0.18985  0.74194  1.0000
  H   H2270     1.0  0.84722  0.21865  0.80299  1.0000
  P   P96       1.0  0.55227  0.21380  0.83394  1.0000
  H   H2271     1.0  0.94898  0.07518  0.97279  1.0000
  C   C2856     1.0  0.96707  0.18550  0.83904  1.0000
  C   C2857     1.0  0.73943  0.11736  0.73912  1.0000
  P   P97       1.0  0.50945  0.15909  0.79450  1.0000
  C   C2858     1.0  0.52950  0.14521  0.71756  1.0000
  C   C2859     1.0  0.71983  0.23186  0.68829  1.0000
  C   C2860     1.0  0.52629  0.17135  0.69060  1.0000
  C   C2861     1.0  0.61109  0.00873  0.69674  1.0000
  H   H2272     1.0  0.56945  0.18267  0.75966  1.0000
  C   C2862     1.0  0.58098  0.11554  0.66580  1.0000
  C   C2863     1.0  0.84160  0.17643  0.79186  1.0000
  H   H2273     1.0  0.60117  0.99967  0.69534  1.0000
  H   H2274     1.0  0.84142  0.13086  0.65006  1.0000
  C   C2864     1.0  0.59366  0.11400  0.64825  1.0000
  S   S386      1.0  0.61455  0.21326  0.77920  1.0000
  C   C2865     1.0  0.83204  0.19202  0.93712  1.0000
  C   C2866     1.0  0.49155  0.09386  0.70234  1.0000
  C   C2867     1.0  0.69835  0.17888  0.97168  1.0000
  C   C2868     1.0  0.58270  0.05313  0.67835  1.0000
  H   H2275     1.0  0.82368  0.18133  0.74689  1.0000
  P   P98       1.0  0.84125  0.16282  0.67070  1.0000
  H   H2276     1.0  0.52256  0.19429  0.72752  1.0000
  C   C2869     1.0  0.49677  0.17656  0.80969  1.0000
  C   C2870     1.0  0.56091  0.22255  0.77471  1.0000
  H   H2277     1.0  0.60125  0.14666  0.68263  1.0000
  C   C2871     1.0  0.52900  0.21406  0.84969  1.0000
  C   C2872     1.0  0.87695  0.10156  0.67198  1.0000
  C   C2873     1.0  0.70720  0.22365  0.68102  1.0000
  H   H2278     1.0  0.87286  0.18746  0.95638  1.0000
  C   C2874     1.0  0.98751  0.21173  0.72810  1.0000
  C   C2875     1.0  0.64497  0.20709  0.87062  1.0000
  H   H2279     1.0  0.48932  0.98356  0.68488  1.0000
  H   H2280     1.0  0.52421  0.13342  0.72773  1.0000
  H   H2281     1.0  0.70989  0.22314  0.66577  1.0000
  H   H2282     1.0  0.52937  0.18316  0.85372  1.0000
  C   C2876     1.0  0.62412  0.01540  0.68060  1.0000
  C   C2877     1.0  0.77976  0.21556  0.78591  1.0000
  C   C2878     1.0  0.62849  0.22105  0.87368  1.0000
  C   C2879     1.0  0.58379  0.12718  0.67816  1.0000
  C   C2880     1.0  0.89168  0.05910  0.95263  1.0000
  P   P99       1.0  0.49567  0.15039  0.70153  1.0000
  C   C2881     1.0  0.49346  0.11686  0.72889  1.0000
  H   H2283     1.0  0.59670  0.07786  0.67255  1.0000
  H   H2284     1.0  0.89780  0.22541  0.66434  1.0000
  H   H2285     1.0  0.84501  0.16853  0.77984  1.0000
  C   C2882     1.0  0.64474  0.23166  0.69734  1.0000
  C   C2883     1.0  0.73347  0.23235  0.94948  1.0000
  H   H2286     1.0  0.78788  0.13972  0.91821  1.0000
  C   C2884     1.0  0.81234  0.18153  0.64889  1.0000
  H   H2287     1.0  0.64789  0.20011  0.85798  1.0000
  C   C2885     1.0  0.89293  0.05609  0.97238  1.0000
  H   H2288     1.0  0.75429  0.17393  0.92001  1.0000
  H   H2289     1.0  0.79839  0.23213  0.68675  1.0000
  H   H2290     1.0  0.62404  0.02875  0.73054  1.0000
  H   H2291     1.0  0.98446  0.12959  0.73889  1.0000
  C   C2886     1.0  0.69485  0.16958  0.70306  1.0000
  H   H2292     1.0  0.81267  0.13731  0.67742  1.0000
  C   C2887     1.0  0.52137  0.19692  0.85699  1.0000
  H   H2293     1.0  0.96702  0.00399  0.95352  1.0000
  H   H2294     1.0  0.59690  0.22059  0.94402  1.0000
  C   C2888     1.0  0.83116  0.11058  0.91831  1.0000
  H   H2295     1.0  0.87190  0.14159  0.69217  1.0000
  H   H2296     1.0  0.67770  0.21037  0.72317  1.0000
  H   H2297     1.0  0.81650  0.11898  0.89372  1.0000
  C   C2889     1.0  0.51879  0.15598  0.70343  1.0000
  C   C2890     1.0  0.94214  0.05749  0.94567  1.0000
  H   H2298     1.0  0.98238  0.00490  0.83162  1.0000
  C   C2891     1.0  0.96661  0.03158  0.93485  1.0000
  C   C2892     1.0  0.54755  0.14935  0.71853  1.0000
  H   H2299     1.0  0.51781  0.19602  0.80047  1.0000
  H   H2300     1.0  0.81791  0.11016  0.92863  1.0000
  H   H2301     1.0  0.85590  0.19999  0.77604  1.0000
  C   C2893     1.0  0.84900  0.10616  0.92470  1.0000
  H   H2302     1.0  0.89091  0.10892  0.69285  1.0000
  H   H2303     1.0  0.63848  0.16840  0.96050  1.0000
  H   H2304     1.0  0.55578  0.14076  0.72937  1.0000
  C   C2894     1.0  0.73329  0.16881  0.65027  1.0000
  C   C2895     1.0  0.83538  0.16947  0.69458  1.0000
  C   C2896     1.0  0.70174  0.22514  0.72047  1.0000
  C   C2897     1.0  0.69364  0.18812  0.95354  1.0000
  H   H2305     1.0  0.83864  0.06158  0.65984  1.0000
  H   H2306     1.0  0.85545  0.18531  0.72671  1.0000
  C   C2898     1.0  0.55465  0.18186  0.75888  1.0000
  C   C2899     1.0  0.71112  0.21475  0.97317  1.0000
  C   C2900     1.0  0.52529  0.14070  0.80791  1.0000
  H   H2307     1.0  0.76090  0.20034  0.89268  1.0000
  H   H2308     1.0  0.70786  0.17589  0.69806  1.0000
  H   H2309     1.0  0.94770  0.06265  0.88877  1.0000
  C   C2901     1.0  0.64491  0.09229  0.67161  1.0000
  H   H2310     1.0  0.57443  0.12758  0.69203  1.0000
  C   C2902     1.0  0.88007  0.11381  0.68354  1.0000
  C   C2903     1.0  0.58432  0.07551  0.64791  1.0000
  S   S387      1.0  0.79907  0.13271  0.95559  1.0000
  C   C2904     1.0  0.68957  0.17746  0.94092  1.0000
  H   H2311     1.0  0.75021  0.12630  0.73820  1.0000
  C   C2905     1.0  0.49430  0.12498  0.70925  1.0000
  H   H2312     1.0  0.53781  0.03959  0.73255  1.0000
  H   H2313     1.0  0.72547  0.08983  0.71248  1.0000
  H   H2314     1.0  0.93562  0.07254  0.94333  1.0000
  H   H2315     1.0  0.78846  0.22330  0.79145  1.0000
  C   C2906     1.0  0.68983  0.15763  0.94636  1.0000
  H   H2316     1.0  0.84949  0.10280  0.94005  1.0000
  H   H2317     1.0  0.84297  0.06223  0.95601  1.0000
  C   C2907     1.0  0.64246  0.07328  0.67223  1.0000
  C   C2908     1.0  0.51679  0.17887  0.75660  1.0000
  C   C2909     1.0  0.84471  0.18064  0.72080  1.0000
  H   H2318     1.0  0.95912  0.03423  0.81818  1.0000
  C   C2910     1.0  0.62488  0.23014  0.88993  1.0000
  C   C2911     1.0  0.87373  0.06119  0.94678  1.0000
  C   C2912     1.0  0.86898  0.13222  0.68339  1.0000
  C   C2913     1.0  0.94722  0.04836  0.79294  1.0000
  H   H2319     1.0  0.79912  0.17037  0.73364  1.0000
  H   H2320     1.0  0.69546  0.13277  0.96805  1.0000
  C   C2914     1.0  0.61987  0.22232  0.67629  1.0000
  C   C2915     1.0  0.98646  0.18424  0.80122  1.0000
  C   C2916     1.0  0.65430  0.21123  0.90004  1.0000
  H   H2321     1.0  0.69351  0.20343  0.94876  1.0000
  H   H2322     1.0  0.63492  0.10122  0.68105  1.0000
  C   C2917     1.0  0.85188  0.12627  0.65976  1.0000
  H   H2323     1.0  0.86141  0.10725  0.80406  1.0000
  H   H2324     1.0  0.80637  0.16240  0.70089  1.0000
  C   C2918     1.0  0.81905  0.16493  0.66148  1.0000
  S   S388      1.0  0.97792  0.08592  0.86757  1.0000
  C   C2919     1.0  0.53977  0.12813  0.79804  1.0000
  H   H2325     1.0  0.68672  0.18444  0.92667  1.0000
  H   H2326     1.0  0.89556  0.03806  0.90540  1.0000
  C   C2920     1.0  0.78065  0.21045  0.90591  1.0000
  H   H2327     1.0  0.62435  0.01092  0.66700  1.0000
  C   C2921     1.0  0.63701  0.03168  0.70051  1.0000
  C   C2922     1.0  0.80802  0.14997  0.66731  1.0000
  H   H2328     1.0  0.60070  0.00871  0.72717  1.0000
  C   C2923     1.0  0.65786  0.20223  0.88378  1.0000
  C   C2924     1.0  0.52821  0.18842  0.74082  1.0000
  H   H2329     1.0  0.71861  0.02037  0.68039  1.0000
  C   C2925     1.0  0.72035  0.22557  0.88867  1.0000
  C   C2926     1.0  0.76802  0.19816  0.90515  1.0000
  C   C2927     1.0  0.98427  0.01382  0.84144  1.0000
  H   H2330     1.0  0.74113  0.20329  0.96331  1.0000
  C   C2928     1.0  0.63554  0.19770  0.94530  1.0000
  H   H2331     1.0  0.88710  0.22410  0.71606  1.0000
  H   H2332     1.0  0.82100  0.21555  0.70909  1.0000
  C   C2929     1.0  0.77293  0.18099  0.93689  1.0000
  C   C2930     1.0  0.85331  0.19804  0.65502  1.0000
  C   C2931     1.0  0.49407  0.20692  0.82101  1.0000
  H   H2333     1.0  0.95960  0.15697  0.72820  1.0000
  C   C2932     1.0  0.64127  0.22148  0.96235  1.0000
  C   C2933     1.0  0.84852  0.18322  0.94517  1.0000
  H   H2334     1.0  0.68707  0.14931  0.93638  1.0000
  C   C2934     1.0  0.85703  0.17816  0.65485  1.0000
  C   C2935     1.0  0.50753  0.15151  0.66188  1.0000
  C   C2936     1.0  0.71705  0.23269  0.70798  1.0000
  C   C2937     1.0  0.70791  0.01535  0.67465  1.0000
  H   H2335     1.0  0.86458  0.22325  0.95004  1.0000
  C   C2938     1.0  0.76417  0.18340  0.92061  1.0000
  H   H2336     1.0  0.90445  0.05990  0.94171  1.0000
  C   C2939     1.0  0.63875  0.21216  0.67587  1.0000
  C   C2940     1.0  0.56904  0.04723  0.65219  1.0000
  H   H2337     1.0  0.49116  0.08476  0.69206  1.0000
  H   H2338     1.0  0.49347  0.11902  0.68084  1.0000
  C   C2941     1.0  0.54903  0.22224  0.80905  1.0000
  C   C2942     1.0  0.82683  0.21220  0.93405  1.0000
  H   H2339     1.0  0.55195  0.22750  0.87022  1.0000
  C   C2943     1.0  0.86013  0.19444  0.95002  1.0000
  H   H2340     1.0  0.76410  0.11657  0.97616  1.0000
  C   C2944     1.0  0.56611  0.22943  0.84031  1.0000
  H   H2341     1.0  0.82654  0.23202  0.73444  1.0000
  H   H2342     1.0  0.97392  0.22006  0.78237  1.0000
  C   C2945     1.0  0.63771  0.22517  0.90336  1.0000
  H   H2343     1.0  0.57202  0.21758  0.76326  1.0000
  C   C2946     1.0  0.67336  0.08801  0.64709  1.0000
  C   C2947     1.0  0.96337  0.22424  0.77277  1.0000
  Fe  Fe194     1.0  0.73745  0.12116  0.65823  1.0000
  C   C2948     1.0  0.63924  0.18323  0.96102  1.0000
  H   H2344     1.0  0.49079  0.07053  0.72643  1.0000
  C   C2949     1.0  0.93552  0.04500  0.96239  1.0000
  H   H2345     1.0  0.82771  0.20561  0.89115  1.0000
  S   S389      1.0  0.51822  0.02781  0.65212  1.0000
  H   H2346     1.0  0.68757  0.04145  0.67660  1.0000
  H   H2347     1.0  0.49878  0.22967  0.74462  1.0000
  H   H2348     1.0  0.84089  0.21830  0.85742  1.0000
  C   C2950     1.0  0.86301  0.10787  0.65993  1.0000
  H   H2349     1.0  0.78285  0.22220  0.89401  1.0000
  H   H2350     1.0  0.95148  0.10743  0.97783  1.0000
  H   H2351     1.0  0.66251  0.11423  0.65887  1.0000
  C   C2951     1.0  0.94451  0.02558  0.96501  1.0000
  C   C2952     1.0  0.79107  0.15115  0.65997  1.0000
  H   H2352     1.0  0.70257  0.23076  0.84689  1.0000
  C   C2953     1.0  0.68675  0.18424  0.65319  1.0000
  C   C2954     1.0  0.49493  0.12889  0.78559  1.0000
  H   H2353     1.0  0.77194  0.23332  0.85789  1.0000
  C   C2955     1.0  0.66041  0.09962  0.65912  1.0000
  C   C2956     1.0  0.78484  0.16744  0.64706  1.0000
  S   S390      1.0  0.88565  0.22577  0.75670  1.0000
  C   C2957     1.0  0.69785  0.99044  0.66246  1.0000
  S   S391      1.0  0.80618  0.08839  0.64852  1.0000
  H   H2354     1.0  0.68600  0.17097  0.66345  1.0000
  C   C2958     1.0  0.67643  0.02113  0.66464  1.0000
  H   H2355     1.0  0.72544  0.98770  0.67152  1.0000
  H   H2356     1.0  0.74753  0.23255  0.94047  1.0000
  C   C2959     1.0  0.49321  0.11330  0.69602  1.0000
  C   C2960     1.0  0.97868  0.00827  0.86133  1.0000
  C   C2961     1.0  0.49977  0.23201  0.86590  1.0000
  C   C2962     1.0  0.67111  0.06894  0.64787  1.0000
  C   C2963     1.0  0.49175  0.14860  0.78689  1.0000
  P   P100      1.0  0.80583  0.22401  0.92321  1.0000
  C   C2964     1.0  0.82571  0.22104  0.88618  1.0000
  C   C2965     1.0  0.49253  0.15743  0.67650  1.0000
  H   H2357     1.0  0.49253  0.09085  0.75003  1.0000
  Fe  Fe195     1.0  0.77366  0.09222  0.64905  1.0000
  H   H2358     1.0  0.86048  0.09830  0.65107  1.0000
  H   H2359     1.0  0.61859  0.22484  0.86335  1.0000
  H   H2360     1.0  0.49388  0.12561  0.73941  1.0000
  C   C2966     1.0  0.61095  0.13726  0.65494  1.0000
  H   H2361     1.0  0.49739  0.18413  0.87444  1.0000
  H   H2362     1.0  0.93982  0.01556  0.97771  1.0000
  C   C2967     1.0  0.98505  0.13966  0.76514  1.0000
  C   C2968     1.0  0.61087  0.01374  0.71468  1.0000
  H   H2363     1.0  0.97768  0.01474  0.88967  1.0000
  C   C2969     1.0  0.83893  0.22343  0.93837  1.0000
  C   C2970     1.0  0.98240  0.22734  0.71392  1.0000
  H   H2364     1.0  0.97089  0.22723  0.70614  1.0000
  C   C2971     1.0  0.49228  0.09729  0.73505  1.0000
  H   H2365     1.0  0.95967  0.18600  0.85372  1.0000
  H   H2366     1.0  0.68122  0.23305  0.65014  1.0000
  H   H2367     1.0  0.68163  0.23017  0.97782  1.0000
  C   C2972     1.0  0.64388  0.18787  0.97741  1.0000
  C   C2973     1.0  0.64478  0.20700  0.97812  1.0000
  H   H2368     1.0  0.58275  0.26974  0.19417  1.0000
  Fe  Fe196     1.0  0.63081  0.44852  0.12036  1.0000
  S   S392      1.0  0.66102  0.44060  0.10444  1.0000
  S   S393      1.0  0.61549  0.42782  0.14372  1.0000
  Fe  Fe197     1.0  0.64735  0.44964  0.07744  1.0000
  S   S394      1.0  0.65551  0.43286  0.05180  1.0000
  S   S395      1.0  0.61729  0.45581  0.09345  1.0000
  Fe  Fe198     1.0  0.65265  0.35592  0.23047  1.0000
  S   S396      1.0  0.66868  0.33326  0.21308  1.0000
  S   S397      1.0  0.65224  0.38755  0.21819  1.0000
  Fe  Fe199     1.0  0.64734  0.32601  0.26757  1.0000
  S   S398      1.0  0.66342  0.30122  0.25304  1.0000
  C   C2974     1.0  0.88866  0.33022  0.29132  1.0000
  Fe  Fe200     1.0  0.68416  0.32158  0.23840  1.0000
  S   S399      1.0  0.71669  0.31407  0.23317  1.0000
  Fe  Fe201     1.0  0.64624  0.31555  0.22946  1.0000
  S   S400      1.0  0.63070  0.29905  0.21561  1.0000
  S   S401      1.0  0.66942  0.34511  0.25492  1.0000
  S   S402      1.0  0.62871  0.33928  0.24494  1.0000
  Fe  Fe202     1.0  0.83065  0.37633  0.24772  1.0000
  S   S403      1.0  0.81922  0.35563  0.27319  1.0000
  S   S404      1.0  0.83465  0.40544  0.25364  1.0000
  Fe  Fe203     1.0  0.82578  0.35072  0.21874  1.0000
  S   S405      1.0  0.81403  0.32859  0.24256  1.0000
  S   S406      1.0  0.82755  0.34990  0.18663  1.0000
  Fe  Fe204     1.0  0.79693  0.35393  0.25586  1.0000
  S   S407      1.0  0.76561  0.35683  0.26984  1.0000
  Fe  Fe205     1.0  0.83751  0.33258  0.25735  1.0000
  S   S408      1.0  0.85637  0.30739  0.27216  1.0000
  S   S409      1.0  0.80698  0.37606  0.23116  1.0000
  S   S410      1.0  0.85073  0.35328  0.23268  1.0000
  C   C2975     1.0  0.86129  0.26603  0.16336  1.0000
  H   H2369     1.0  0.69932  0.23342  0.30604  1.0000
  H   H2370     1.0  0.65030  0.31015  0.07948  1.0000
  Fe  Fe206     1.0  0.60931  0.36470  0.99788  1.0000
  S   S411      1.0  0.62740  0.33686  0.00868  1.0000
  S   S412      1.0  0.60399  0.39036  0.01461  1.0000
  Fe  Fe207     1.0  0.60219  0.32283  0.00902  1.0000
  S   S413      1.0  0.59508  0.30113  0.03580  1.0000
  S   S414      1.0  0.58303  0.35077  0.99980  1.0000
  H   H2371     1.0  0.78613  0.27921  0.04342  1.0000
  C   C2976     1.0  0.85643  0.28567  0.30817  1.0000
  S   S415      1.0  0.82352  0.29346  0.12894  1.0000
  C   C2977     1.0  0.59843  0.47284  0.05173  1.0000
  H   H2372     1.0  0.70868  0.30147  0.28379  1.0000
  H   H2373     1.0  0.70493  0.28197  0.26052  1.0000
  C   C2978     1.0  0.64255  0.39317  0.09018  1.0000
  H   H2374     1.0  0.69277  0.28762  0.02590  1.0000
  S   S416      1.0  0.68760  0.26115  0.14938  1.0000
  S   S417      1.0  0.69106  0.48298  0.10372  1.0000
  S   S418      1.0  0.84783  0.24096  0.11353  1.0000
  C   C2979     1.0  0.92889  0.32757  0.28231  1.0000
  C   C2980     1.0  0.86208  0.24621  0.16458  1.0000
  C   C2981     1.0  0.62585  0.25535  0.26252  1.0000
  H   H2375     1.0  0.92549  0.32648  0.25330  1.0000
  C   C2982     1.0  0.64127  0.33887  0.06410  1.0000
  C   C2983     1.0  0.89924  0.33048  0.30579  1.0000
  C   C2984     1.0  0.70727  0.28168  0.99792  1.0000
  C   C2985     1.0  0.61626  0.28777  0.04399  1.0000
  C   C2986     1.0  0.61554  0.27830  0.06321  1.0000
  C   C2987     1.0  0.63247  0.26769  0.06978  1.0000
  C   C2988     1.0  0.65010  0.26635  0.05705  1.0000
  C   C2989     1.0  0.65072  0.27564  0.03782  1.0000
  C   C2990     1.0  0.63392  0.28644  0.03135  1.0000
  H   H2376     1.0  0.60188  0.27920  0.07300  1.0000
  H   H2377     1.0  0.63183  0.26047  0.08461  1.0000
  H   H2378     1.0  0.66415  0.27436  0.02777  1.0000
  H   H2379     1.0  0.63458  0.29343  0.01643  1.0000
  C   C2991     1.0  0.84551  0.29906  0.29574  1.0000
  H   H2380     1.0  0.86425  0.28858  0.17786  1.0000
  H   H2381     1.0  0.77817  0.42635  0.21839  1.0000
  C   C2992     1.0  0.55343  0.45915  0.04959  1.0000
  H   H2382     1.0  0.75049  0.45017  0.08947  1.0000
  C   C2993     1.0  0.57958  0.34805  0.05139  1.0000
  C   C2994     1.0  0.82402  0.30767  0.14664  1.0000
  C   C2995     1.0  0.82747  0.32654  0.13966  1.0000
  C   C2996     1.0  0.82832  0.33890  0.15226  1.0000
  C   C2997     1.0  0.82576  0.33278  0.17228  1.0000
  C   C2998     1.0  0.82197  0.31389  0.17963  1.0000
  C   C2999     1.0  0.82108  0.30133  0.16680  1.0000
  H   H2383     1.0  0.82995  0.33156  0.12423  1.0000
  H   H2384     1.0  0.83137  0.35330  0.14634  1.0000
  H   H2385     1.0  0.81988  0.30894  0.19507  1.0000
  H   H2386     1.0  0.81826  0.28682  0.17247  1.0000
  C   C3000     1.0  0.64639  0.28678  0.19833  1.0000
  C   C3001     1.0  0.63898  0.27945  0.18512  1.0000
  C   C3002     1.0  0.65156  0.27086  0.17032  1.0000
  C   C3003     1.0  0.67151  0.26986  0.16869  1.0000
  C   C3004     1.0  0.67888  0.27662  0.18227  1.0000
  C   C3005     1.0  0.66636  0.28502  0.19714  1.0000
  H   H2387     1.0  0.62351  0.28093  0.18601  1.0000
  H   H2388     1.0  0.64588  0.26536  0.16000  1.0000
  H   H2389     1.0  0.69428  0.27556  0.18109  1.0000
  H   H2390     1.0  0.67211  0.29067  0.20732  1.0000
  C   C3006     1.0  0.75122  0.34721  0.25830  1.0000
  C   C3007     1.0  0.75914  0.33972  0.24133  1.0000
  C   C3008     1.0  0.74831  0.32980  0.23360  1.0000
  C   C3009     1.0  0.72929  0.32792  0.24236  1.0000
  C   C3010     1.0  0.72108  0.33617  0.25887  1.0000
  C   C3011     1.0  0.73208  0.34575  0.26687  1.0000
  H   H2391     1.0  0.77390  0.34081  0.23464  1.0000
  H   H2392     1.0  0.75489  0.32334  0.22101  1.0000
  H   H2393     1.0  0.70655  0.33460  0.26594  1.0000
  H   H2394     1.0  0.72592  0.35155  0.28000  1.0000
  C   C3012     1.0  0.64109  0.42030  0.04231  1.0000
  C   C3013     1.0  0.64937  0.41124  0.02613  1.0000
  C   C3014     1.0  0.63853  0.40139  0.01797  1.0000
  C   C3015     1.0  0.61901  0.40075  0.02561  1.0000
  C   C3016     1.0  0.61076  0.40966  0.04191  1.0000
  C   C3017     1.0  0.62174  0.41911  0.05035  1.0000
  H   H2395     1.0  0.66419  0.41219  0.01951  1.0000
  H   H2396     1.0  0.64509  0.39489  0.00532  1.0000
  H   H2397     1.0  0.59574  0.40925  0.04807  1.0000
  H   H2398     1.0  0.61519  0.42553  0.06304  1.0000
  C   C3018     1.0  0.62635  0.41642  0.16396  1.0000
  C   C3019     1.0  0.62362  0.39756  0.17259  1.0000
  C   C3020     1.0  0.63185  0.38831  0.18901  1.0000
  C   C3021     1.0  0.64239  0.39814  0.19716  1.0000
  C   C3022     1.0  0.64496  0.41704  0.18862  1.0000
  C   C3023     1.0  0.63700  0.42616  0.17203  1.0000
  H   H2399     1.0  0.61501  0.39013  0.16665  1.0000
  H   H2400     1.0  0.62963  0.37382  0.19568  1.0000
  H   H2401     1.0  0.65298  0.42473  0.19498  1.0000
  H   H2402     1.0  0.63879  0.44084  0.16570  1.0000
  C   C3024     1.0  0.87433  0.41335  0.29407  1.0000
  C   C3025     1.0  0.85717  0.42632  0.29189  1.0000
  C   C3026     1.0  0.84499  0.42356  0.27974  1.0000
  C   C3027     1.0  0.84946  0.40749  0.27014  1.0000
  C   C3028     1.0  0.86623  0.39413  0.27294  1.0000
  C   C3029     1.0  0.87872  0.39724  0.28456  1.0000
  Fe  Fe208     1.0  0.66301  0.47206  0.10308  1.0000
  H   H2403     1.0  0.83206  0.43395  0.27779  1.0000
  H   H2404     1.0  0.86996  0.38176  0.26558  1.0000
  H   H2405     1.0  0.62357  0.26578  0.27217  1.0000
  H   H2406     1.0  0.94448  0.32650  0.27881  1.0000
  C   C3030     1.0  0.72016  0.29020  0.07858  1.0000
  C   C3031     1.0  0.70408  0.28094  0.08217  1.0000
  C   C3032     1.0  0.68670  0.28882  0.09269  1.0000
  C   C3033     1.0  0.68527  0.30616  0.09941  1.0000
  C   C3034     1.0  0.70143  0.31547  0.09610  1.0000
  C   C3035     1.0  0.71887  0.30742  0.08547  1.0000
  P   P101      1.0  0.69943  0.33841  0.10383  1.0000
  C   C3036     1.0  0.69470  0.35800  0.08426  1.0000
  C   C3037     1.0  0.68073  0.34045  0.12490  1.0000
  C   C3038     1.0  0.66792  0.35789  0.12676  1.0000
  C   C3039     1.0  0.65402  0.35950  0.14338  1.0000
  C   C3040     1.0  0.65247  0.34367  0.15815  1.0000
  C   C3041     1.0  0.66477  0.32619  0.15623  1.0000
  C   C3042     1.0  0.67885  0.32450  0.13977  1.0000
  C   C3043     1.0  0.69578  0.37690  0.08606  1.0000
  C   C3044     1.0  0.69247  0.39215  0.07096  1.0000
  C   C3045     1.0  0.68895  0.38858  0.05363  1.0000
  C   C3046     1.0  0.68822  0.36980  0.05154  1.0000
  C   C3047     1.0  0.69085  0.35453  0.06688  1.0000
  C   C3048     1.0  0.72260  0.33947  0.10975  1.0000
  C   C3049     1.0  0.73684  0.34732  0.09548  1.0000
  C   C3050     1.0  0.75523  0.34701  0.09959  1.0000
  C   C3051     1.0  0.75957  0.33887  0.11793  1.0000
  C   C3052     1.0  0.74542  0.33142  0.13227  1.0000
  C   C3053     1.0  0.72710  0.33145  0.12819  1.0000
  H   H2407     1.0  0.73362  0.28399  0.07044  1.0000
  H   H2408     1.0  0.70503  0.26761  0.07684  1.0000
  H   H2409     1.0  0.67430  0.28146  0.09553  1.0000
  H   H2410     1.0  0.67155  0.31218  0.10718  1.0000
  H   H2411     1.0  0.73146  0.31441  0.08240  1.0000
  H   H2412     1.0  0.66848  0.37040  0.11561  1.0000
  H   H2413     1.0  0.64444  0.37309  0.14481  1.0000
  H   H2414     1.0  0.64166  0.34489  0.17106  1.0000
  H   H2415     1.0  0.66326  0.31393  0.16756  1.0000
  H   H2416     1.0  0.68820  0.31069  0.13869  1.0000
  H   H2417     1.0  0.69884  0.37994  0.09925  1.0000
  H   H2418     1.0  0.69224  0.40684  0.07279  1.0000
  H   H2419     1.0  0.68648  0.40048  0.04194  1.0000
  H   H2420     1.0  0.68528  0.36719  0.03811  1.0000
  H   H2421     1.0  0.68990  0.34015  0.06503  1.0000
  H   H2422     1.0  0.73398  0.35319  0.08098  1.0000
  H   H2423     1.0  0.76629  0.35266  0.08844  1.0000
  H   H2424     1.0  0.77403  0.33792  0.12096  1.0000
  H   H2425     1.0  0.74890  0.32494  0.14639  1.0000
  H   H2426     1.0  0.71676  0.32477  0.13933  1.0000
  H   H2427     1.0  0.74727  0.39322  0.07913  1.0000
  C   C3054     1.0  0.74715  0.47000  0.12953  1.0000
  C   C3055     1.0  0.70305  0.23924  0.22309  1.0000
  C   C3056     1.0  0.86891  0.26054  0.19573  1.0000
  H   H2428     1.0  0.78204  0.46369  0.22947  1.0000
  C   C3057     1.0  0.61570  0.47941  0.04282  1.0000
  C   C3058     1.0  0.56157  0.46440  0.08694  1.0000
  H   H2429     1.0  0.54282  0.41966  0.02467  1.0000
  C   C3059     1.0  0.86909  0.24064  0.19725  1.0000
  C   C3060     1.0  0.74095  0.45504  0.14366  1.0000
  C   C3061     1.0  0.74103  0.43639  0.11876  1.0000
  H   H2430     1.0  0.87310  0.33097  0.29445  1.0000
  C   C3062     1.0  0.79998  0.45833  0.17630  1.0000
  C   C3063     1.0  0.76224  0.26438  0.28052  1.0000
  C   C3064     1.0  0.76163  0.38474  0.13093  1.0000
  H   H2431     1.0  0.88983  0.32862  0.26140  1.0000
  C   C3065     1.0  0.69974  0.25860  0.22536  1.0000
  C   C3066     1.0  0.71202  0.27110  0.21423  1.0000
  C   C3067     1.0  0.72756  0.26437  0.20056  1.0000
  C   C3068     1.0  0.71297  0.44076  0.06407  1.0000
  P   P102      1.0  0.74432  0.27986  0.18685  1.0000
  C   C3069     1.0  0.73526  0.30540  0.18578  1.0000
  C   C3070     1.0  0.76565  0.27258  0.19808  1.0000
  C   C3071     1.0  0.76670  0.27999  0.21449  1.0000
  C   C3072     1.0  0.78335  0.27466  0.22302  1.0000
  C   C3073     1.0  0.79864  0.26111  0.21591  1.0000
  C   C3074     1.0  0.79720  0.25283  0.20028  1.0000
  C   C3075     1.0  0.78079  0.25859  0.19131  1.0000
  C   C3076     1.0  0.74768  0.31823  0.18609  1.0000
  C   C3077     1.0  0.74092  0.33812  0.18416  1.0000
  C   C3078     1.0  0.72194  0.34542  0.18116  1.0000
  C   C3079     1.0  0.70986  0.33286  0.17971  1.0000
  C   C3080     1.0  0.71644  0.31294  0.18206  1.0000
  C   C3081     1.0  0.74931  0.27762  0.16165  1.0000
  C   C3082     1.0  0.73612  0.27108  0.15335  1.0000
  C   C3083     1.0  0.73854  0.27223  0.13332  1.0000
  C   C3084     1.0  0.75394  0.28022  0.12142  1.0000
  C   C3085     1.0  0.76713  0.28675  0.12958  1.0000
  C   C3086     1.0  0.76499  0.28522  0.14963  1.0000
  H   H2432     1.0  0.80884  0.24200  0.19503  1.0000
  C   C3087     1.0  0.59427  0.25822  0.19015  1.0000
  H   H2433     1.0  0.68752  0.26406  0.23554  1.0000
  H   H2434     1.0  0.70916  0.28601  0.21613  1.0000
  H   H2435     1.0  0.65120  0.26554  0.24536  1.0000
  H   H2436     1.0  0.75468  0.28999  0.22058  1.0000
  H   H2437     1.0  0.78435  0.28101  0.23519  1.0000
  H   H2438     1.0  0.81150  0.25691  0.22260  1.0000
  C   C3088     1.0  0.82596  0.30553  0.30219  1.0000
  H   H2439     1.0  0.77985  0.25205  0.17921  1.0000
  H   H2440     1.0  0.76262  0.31297  0.18780  1.0000
  H   H2441     1.0  0.75037  0.34781  0.18523  1.0000
  H   H2442     1.0  0.71655  0.36077  0.18005  1.0000
  H   H2443     1.0  0.69524  0.33852  0.17706  1.0000
  H   H2444     1.0  0.70687  0.30346  0.18090  1.0000
  H   H2445     1.0  0.72392  0.26511  0.16220  1.0000
  H   H2446     1.0  0.72840  0.26686  0.12713  1.0000
  H   H2447     1.0  0.75577  0.28111  0.10592  1.0000
  H   H2448     1.0  0.77920  0.29284  0.12043  1.0000
  H   H2449     1.0  0.77532  0.29043  0.15568  1.0000
  C   C3089     1.0  0.75480  0.23963  0.06720  1.0000
  H   H2450     1.0  0.72689  0.37580  0.12520  1.0000
  H   H2451     1.0  0.70285  0.45373  0.06008  1.0000
  H   H2452     1.0  0.79355  0.46964  0.16592  1.0000
  H   H2453     1.0  0.75497  0.39726  0.28568  1.0000
  H   H2454     1.0  0.60862  0.39031  0.13075  1.0000
  H   H2455     1.0  0.59010  0.26327  0.16047  1.0000
  H   H2456     1.0  0.56266  0.39086  0.06722  1.0000
  C   C3090     1.0  0.61748  0.38650  0.11746  1.0000
  H   H2457     1.0  0.63798  0.30463  0.14360  1.0000
  C   C3091     1.0  0.64428  0.35136  0.04643  1.0000
  H   H2458     1.0  0.65579  0.24352  0.22217  1.0000
  H   H2459     1.0  0.61789  0.24763  0.30486  1.0000
  H   H2460     1.0  0.69825  0.36435  0.14638  1.0000
  C   C3092     1.0  0.70637  0.28673  0.28893  1.0000
  C   C3093     1.0  0.56751  0.36552  0.05398  1.0000
  H   H2461     1.0  0.77411  0.40975  0.08579  1.0000
  H   H2462     1.0  0.60405  0.28113  0.30868  1.0000
  H   H2463     1.0  0.55510  0.37022  0.04665  1.0000
  C   C3094     1.0  0.67030  0.32757  0.03389  1.0000
  H   H2464     1.0  0.64868  0.37457  0.06920  1.0000
  H   H2465     1.0  0.62939  0.46972  0.04331  1.0000
  C   C3095     1.0  0.86586  0.23359  0.18147  1.0000
  C   C3096     1.0  0.63125  0.39778  0.10738  1.0000
  H   H2466     1.0  0.75698  0.46732  0.29704  1.0000
  H   H2467     1.0  0.82380  0.41669  0.21224  1.0000
  H   H2468     1.0  0.65295  0.40217  0.08235  1.0000
  C   C3097     1.0  0.65274  0.32048  0.06638  1.0000
  H   H2469     1.0  0.79817  0.43597  0.16087  1.0000
  H   H2470     1.0  0.74654  0.24734  0.98951  1.0000
  H   H2471     1.0  0.71189  0.44668  0.09247  1.0000
  H   H2472     1.0  0.84817  0.25447  0.23510  1.0000
  H   H2473     1.0  0.75007  0.25674  0.28419  1.0000
  H   H2474     1.0  0.66084  0.35549  0.01777  1.0000
  C   C3098     1.0  0.73215  0.25281  0.01811  1.0000
  C   C3099     1.0  0.73489  0.25586  0.99779  1.0000
  H   H2475     1.0  0.75170  0.47112  0.25196  1.0000
  C   C3100     1.0  0.86469  0.27320  0.17894  1.0000
  C   C3101     1.0  0.91946  0.32895  0.30119  1.0000
  C   C3102     1.0  0.71710  0.26469  0.02812  1.0000
  C   C3103     1.0  0.55632  0.44614  0.09442  1.0000
  Fe  Fe209     1.0  0.67031  0.23708  0.09514  1.0000
  C   C3104     1.0  0.77087  0.46994  0.28867  1.0000
  C   C3105     1.0  0.56423  0.43543  0.02800  1.0000
  C   C3106     1.0  0.72246  0.27024  0.98779  1.0000
  H   H2476     1.0  0.63839  0.33380  0.11879  1.0000
  C   C3107     1.0  0.61277  0.24268  0.26461  1.0000
  H   H2477     1.0  0.75003  0.38425  0.14322  1.0000
  C   C3108     1.0  0.64008  0.37737  0.08283  1.0000
  C   C3109     1.0  0.85522  0.48255  0.21327  1.0000
  H   H2478     1.0  0.59895  0.45806  0.05904  1.0000
  C   C3110     1.0  0.56812  0.44959  0.03691  1.0000
  C   C3111     1.0  0.68356  0.39281  0.15064  1.0000
  H   H2479     1.0  0.63312  0.41024  0.11271  1.0000
  S   S419      1.0  0.81746  0.24029  0.15450  1.0000
  H   H2480     1.0  0.69746  0.29267  0.99018  1.0000
  C   C3112     1.0  0.89814  0.32883  0.27246  1.0000
  C   C3113     1.0  0.77713  0.26837  0.05005  1.0000
  H   H2481     1.0  0.71463  0.26259  0.04376  1.0000
  C   C3114     1.0  0.68647  0.40951  0.24874  1.0000
  H   H2482     1.0  0.77800  0.30210  0.30875  1.0000
  C   C3115     1.0  0.71855  0.40699  0.22924  1.0000
  C   C3116     1.0  0.70329  0.41727  0.24073  1.0000
  P   P103      1.0  0.74006  0.41746  0.21924  1.0000
  C   C3117     1.0  0.73248  0.44194  0.20763  1.0000
  C   C3118     1.0  0.71603  0.44626  0.19857  1.0000
  C   C3119     1.0  0.70979  0.46516  0.18984  1.0000
  H   H2483     1.0  0.69986  0.24804  0.27153  1.0000
  H   H2484     1.0  0.87314  0.25868  0.28343  1.0000
  C   C3120     1.0  0.74276  0.45677  0.20740  1.0000
  C   C3121     1.0  0.75608  0.40385  0.20202  1.0000
  C   C3122     1.0  0.76562  0.38533  0.20862  1.0000
  C   C3123     1.0  0.77918  0.37506  0.19585  1.0000
  C   C3124     1.0  0.78370  0.38336  0.17650  1.0000
  C   C3125     1.0  0.77415  0.40174  0.16973  1.0000
  C   C3126     1.0  0.76037  0.41198  0.18245  1.0000
  H   H2485     1.0  0.67458  0.41753  0.25737  1.0000
  H   H2486     1.0  0.85820  0.27579  0.15026  1.0000
  H   H2487     1.0  0.70437  0.43131  0.24345  1.0000
  C   C3127     1.0  0.65892  0.34585  0.03150  1.0000
  H   H2488     1.0  0.70791  0.43507  0.19833  1.0000
  C   C3128     1.0  0.54567  0.43076  0.03153  1.0000
  P   P104      1.0  0.73707  0.41473  0.11193  1.0000
  C   C3129     1.0  0.80258  0.43919  0.17334  1.0000
  H   H2489     1.0  0.75545  0.45396  0.21410  1.0000
  H   H2490     1.0  0.76286  0.37897  0.22377  1.0000
  H   H2491     1.0  0.78669  0.36086  0.20113  1.0000
  H   H2492     1.0  0.79491  0.37561  0.16694  1.0000
  H   H2493     1.0  0.77772  0.40816  0.15470  1.0000
  H   H2494     1.0  0.75350  0.42634  0.17708  1.0000
  C   C3130     1.0  0.62009  0.29206  0.13035  1.0000
  H   H2495     1.0  0.60243  0.31208  0.08900  1.0000
  C   C3131     1.0  0.84050  0.47973  0.20439  1.0000
  C   C3132     1.0  0.69899  0.37962  0.14310  1.0000
  S   S420      1.0  0.89087  0.41672  0.30820  1.0000
  H   H2496     1.0  0.60566  0.32900  0.05719  1.0000
  C   C3133     1.0  0.61504  0.37054  0.11027  1.0000
  H   H2497     1.0  0.63498  0.36521  0.04406  1.0000
  H   H2498     1.0  0.78248  0.26780  0.07869  1.0000
  C   C3134     1.0  0.76819  0.26033  0.03862  1.0000
  C   C3135     1.0  0.76370  0.24778  0.07859  1.0000
  C   C3136     1.0  0.79656  0.26512  0.27652  1.0000
  S   S421      1.0  0.67167  0.25316  0.06450  1.0000
  H   H2499     1.0  0.74336  0.23916  0.18874  1.0000
  H   H2500     1.0  0.71642  0.43115  0.03678  1.0000
  C   C3137     1.0  0.56777  0.44575  0.12419  1.0000
  C   C3138     1.0  0.55948  0.43685  0.11295  1.0000
  C   C3139     1.0  0.79305  0.28512  0.27125  1.0000
  C   C3140     1.0  0.85913  0.25829  0.25962  1.0000
  H   H2501     1.0  0.87021  0.46612  0.28471  1.0000
  H   H2502     1.0  0.57065  0.43841  0.13838  1.0000
  H   H2503     1.0  0.55572  0.42265  0.11854  1.0000
  H   H2504     1.0  0.85345  0.43859  0.29934  1.0000
  C   C3141     1.0  0.80583  0.46264  0.19235  1.0000
  H   H2505     1.0  0.77026  0.26515  0.02313  1.0000
  S   S422      1.0  0.63498  0.32431  0.29909  1.0000
  H   H2506     1.0  0.79879  0.42154  0.24324  1.0000
  H   H2507     1.0  0.67549  0.30045  0.05314  1.0000
  H   H2508     1.0  0.80815  0.36314  0.11826  1.0000
  H   H2509     1.0  0.77560  0.44467  0.27547  1.0000
  H   H2510     1.0  0.82053  0.47924  0.25845  1.0000
  H   H2511     1.0  0.66496  0.34834  0.29855  1.0000
  H   H2512     1.0  0.84361  0.46871  0.19531  1.0000
  S   S423      1.0  0.69717  0.23553  0.10722  1.0000
  C   C3142     1.0  0.81410  0.44739  0.20547  1.0000
  H   H2513     1.0  0.80495  0.29315  0.26811  1.0000
  Fe  Fe210     1.0  0.82364  0.26172  0.12788  1.0000
  C   C3143     1.0  0.72061  0.42801  0.05097  1.0000
  C   C3144     1.0  0.79268  0.38645  0.10029  1.0000
  H   H2514     1.0  0.73856  0.40086  0.04643  1.0000
  C   C3145     1.0  0.75392  0.41611  0.23815  1.0000
  H   H2515     1.0  0.73377  0.40279  0.26147  1.0000
  C   C3146     1.0  0.78433  0.41811  0.24723  1.0000
  C   C3147     1.0  0.70436  0.27566  0.27564  1.0000
  H   H2516     1.0  0.67091  0.38784  0.15988  1.0000
  H   H2517     1.0  0.84763  0.27005  0.26314  1.0000
  C   C3148     1.0  0.71814  0.43670  0.08246  1.0000
  C   C3149     1.0  0.74752  0.40783  0.25731  1.0000
  C   C3150     1.0  0.60488  0.24687  0.20401  1.0000
  S   S424      1.0  0.65045  0.24513  0.12184  1.0000
  C   C3151     1.0  0.77807  0.40950  0.26612  1.0000
  H   H2518     1.0  0.60266  0.28291  0.11367  1.0000
  C   C3152     1.0  0.73119  0.41996  0.08784  1.0000
  C   C3153     1.0  0.73657  0.47561  0.19852  1.0000
  C   C3154     1.0  0.59851  0.25469  0.17116  1.0000
  C   C3155     1.0  0.66717  0.31488  0.05133  1.0000
  H   H2519     1.0  0.68109  0.32309  0.02198  1.0000
  C   C3156     1.0  0.71682  0.38877  0.22603  1.0000
  C   C3157     1.0  0.64411  0.24252  0.23427  1.0000
  C   C3158     1.0  0.63008  0.32310  0.11771  1.0000
  C   C3159     1.0  0.77249  0.42106  0.23324  1.0000
  H   H2520     1.0  0.81338  0.40935  0.18390  1.0000
  C   C3160     1.0  0.57005  0.47309  0.09830  1.0000
  C   C3161     1.0  0.62630  0.36589  0.09281  1.0000
  H   H2521     1.0  0.81143  0.25818  0.27655  1.0000
  C   C3162     1.0  0.77910  0.37208  0.13239  1.0000
  C   C3163     1.0  0.75957  0.40462  0.27122  1.0000
  C   C3164     1.0  0.70467  0.27893  0.01805  1.0000
  H   H2522     1.0  0.61651  0.23702  0.15134  1.0000
  C   C3165     1.0  0.60024  0.35349  0.07225  1.0000
  C   C3166     1.0  0.75892  0.28437  0.27429  1.0000
  H   H2523     1.0  0.67159  0.38565  0.25133  1.0000
  H   H2524     1.0  0.87173  0.28117  0.30351  1.0000
  H   H2525     1.0  0.80484  0.38726  0.08855  1.0000
  H   H2526     1.0  0.72825  0.38038  0.21735  1.0000
  H   H2527     1.0  0.78779  0.40616  0.27664  1.0000
  C   C3167     1.0  0.78137  0.45719  0.27645  1.0000
  C   C3168     1.0  0.73811  0.40676  0.07494  1.0000
  H   H2528     1.0  0.80736  0.45073  0.25606  1.0000
  C   C3169     1.0  0.73797  0.43823  0.13835  1.0000
  C   C3170     1.0  0.75734  0.24558  0.04702  1.0000
  H   H2529     1.0  0.87235  0.26636  0.20721  1.0000
  H   H2530     1.0  0.81743  0.31590  0.29272  1.0000
  H   H2531     1.0  0.58269  0.45270  0.03391  1.0000
  C   C3171     1.0  0.61008  0.29427  0.11496  1.0000
  C   C3172     1.0  0.59607  0.34221  0.06014  1.0000
  C   C3173     1.0  0.68469  0.32400  0.31013  1.0000
  H   H2532     1.0  0.78069  0.36157  0.14540  1.0000
  H   H2533     1.0  0.60035  0.24315  0.27605  1.0000
  C   C3174     1.0  0.85964  0.24958  0.24367  1.0000
  H   H2534     1.0  0.59112  0.38056  0.08332  1.0000
  C   C3175     1.0  0.71635  0.40595  0.12729  1.0000
  C   C3176     1.0  0.70053  0.41914  0.13434  1.0000
  C   C3177     1.0  0.68481  0.39144  0.24539  1.0000
  H   H2535     1.0  0.81848  0.45011  0.21818  1.0000
  H   H2536     1.0  0.60411  0.36205  0.11808  1.0000
  H   H2537     1.0  0.85995  0.24054  0.15237  1.0000
  H   H2538     1.0  0.77160  0.31027  0.26657  1.0000
  C   C3178     1.0  0.75065  0.46808  0.11005  1.0000
  C   C3179     1.0  0.69995  0.38110  0.23402  1.0000
  P   P105      1.0  0.62194  0.34607  0.08302  1.0000
  H   H2539     1.0  0.67223  0.42287  0.15143  1.0000
  C   C3180     1.0  0.78113  0.25457  0.28189  1.0000
  C   C3181     1.0  0.73112  0.24478  0.19880  1.0000
  C   C3182     1.0  0.70129  0.24830  0.30126  1.0000
  C   C3183     1.0  0.60994  0.31096  0.10097  1.0000
  C   C3184     1.0  0.53476  0.45440  0.05298  1.0000
  C   C3185     1.0  0.57175  0.37708  0.06562  1.0000
  C   C3186     1.0  0.77520  0.39905  0.09873  1.0000
  C   C3187     1.0  0.68430  0.41255  0.14606  1.0000
  C   C3188     1.0  0.61351  0.23997  0.16598  1.0000
  C   C3189     1.0  0.58799  0.37109  0.07478  1.0000
  C   C3190     1.0  0.74775  0.45130  0.10466  1.0000
  C   C3191     1.0  0.88839  0.23672  0.26682  1.0000
  H   H2540     1.0  0.65614  0.28469  0.29735  1.0000
  C   C3192     1.0  0.61991  0.32556  0.10224  1.0000
  C   C3193     1.0  0.57286  0.46394  0.11694  1.0000
  S   S425      1.0  0.80162  0.25471  0.11287  1.0000
  C   C3194     1.0  0.77506  0.26195  0.06998  1.0000
  H   H2541     1.0  0.57637  0.33913  0.04229  1.0000
  C   C3195     1.0  0.63005  0.30647  0.13175  1.0000
  C   C3196     1.0  0.79918  0.46070  0.26547  1.0000
  H   H2542     1.0  0.74444  0.29200  0.27306  1.0000
  H   H2543     1.0  0.57575  0.42788  0.01849  1.0000
  H   H2544     1.0  0.62035  0.27906  0.14105  1.0000
  C   C3197     1.0  0.73309  0.41096  0.05644  1.0000
  C   C3198     1.0  0.77424  0.29474  0.27024  1.0000
  C   C3199     1.0  0.53091  0.44030  0.04395  1.0000
  C   C3200     1.0  0.75937  0.39797  0.11384  1.0000
  H   H2545     1.0  0.89199  0.38717  0.28596  1.0000
  C   C3201     1.0  0.71526  0.38616  0.13127  1.0000
  H   H2546     1.0  0.70056  0.43457  0.13067  1.0000
  C   C3202     1.0  0.91823  0.32756  0.26793  1.0000
  H   H2547     1.0  0.73303  0.42682  0.14949  1.0000
  H   H2548     1.0  0.69853  0.36718  0.23124  1.0000
  C   C3203     1.0  0.67778  0.34370  0.30531  1.0000
  C   C3204     1.0  0.64157  0.25515  0.24745  1.0000
  C   C3205     1.0  0.79459  0.37290  0.11706  1.0000
  H   H2549     1.0  0.73819  0.45669  0.15867  1.0000
  C   C3206     1.0  0.72006  0.47982  0.18984  1.0000
  C   C3207     1.0  0.70161  0.25652  0.28183  1.0000
  H   H2550     1.0  0.77520  0.24124  0.25099  1.0000
  H   H2551     1.0  0.69705  0.46847  0.18294  1.0000
  H   H2552     1.0  0.55010  0.43880  0.08599  1.0000
  C   C3208     1.0  0.81118  0.42420  0.18625  1.0000
  H   H2553     1.0  0.52327  0.46136  0.06290  1.0000
  H   H2554     1.0  0.60116  0.24984  0.21863  1.0000
  C   C3209     1.0  0.81703  0.42833  0.20224  1.0000
  P   P106      1.0  0.55847  0.47630  0.06267  1.0000
  H   H2555     1.0  0.76212  0.24278  0.09407  1.0000
  H   H2556     1.0  0.51652  0.43661  0.04672  1.0000
  C   C3210     1.0  0.77389  0.47816  0.22773  1.0000
  C   C3211     1.0  0.64606  0.28482  0.31078  1.0000
  S   S426      1.0  0.65196  0.48034  0.07467  1.0000
  S   S427      1.0  0.63356  0.47924  0.12093  1.0000
  H   H2557     1.0  0.75520  0.47982  0.09908  1.0000
  Fe  Fe211     1.0  0.67751  0.24110  0.13458  1.0000
  C   C3212     1.0  0.68715  0.35733  0.30948  1.0000
  H   H2558     1.0  0.86931  0.47347  0.21138  1.0000
  C   C3213     1.0  0.70561  0.27870  0.30857  1.0000
  C   C3214     1.0  0.87359  0.25196  0.27107  1.0000
  H   H2559     1.0  0.67690  0.31370  0.30716  1.0000
  C   C3215     1.0  0.75673  0.48234  0.24061  1.0000
  C   C3216     1.0  0.80669  0.47681  0.26702  1.0000
  H   H2560     1.0  0.74346  0.31090  0.30638  1.0000
  H   H2561     1.0  0.66210  0.23535  0.19085  1.0000
  H   H2562     1.0  0.68176  0.37258  0.30566  1.0000
  H   H2563     1.0  0.57972  0.47060  0.12551  1.0000
  H   H2564     1.0  0.83459  0.47342  0.29094  1.0000
  H   H2565     1.0  0.92795  0.32881  0.31219  1.0000
  C   C3217     1.0  0.86286  0.48066  0.28035  1.0000
  C   C3218     1.0  0.87497  0.23485  0.23876  1.0000
  H   H2566     1.0  0.74895  0.48322  0.13365  1.0000
  P   P107      1.0  0.74763  0.23411  0.03162  1.0000
  H   H2567     1.0  0.90442  0.26039  0.45554  1.0000
  S   S428      1.0  0.85908  0.45370  0.34125  1.0000
  Fe  Fe212     1.0  0.91003  0.46360  0.34488  1.0000
  C   C3219     1.0  0.89666  0.29188  0.33684  1.0000
  C   C3220     1.0  0.96367  0.44389  0.39272  1.0000
  Fe  Fe213     1.0  0.87381  0.44833  0.36733  1.0000
  S   S429      1.0  0.85744  0.43527  0.39581  1.0000
  C   C3221     1.0  0.87744  0.24698  0.42726  1.0000
  C   C3222     1.0  0.90474  0.34027  0.35894  1.0000
  S   S430      1.0  0.90216  0.43366  0.35287  1.0000
  C   C3223     1.0  0.94907  0.39703  0.58635  1.0000
  H   H2568     1.0  0.88672  0.35908  0.54624  1.0000
  C   C3224     1.0  0.88009  0.25925  0.51893  1.0000
  H   H2569     1.0  0.79514  0.27731  0.53330  1.0000
  C   C3225     1.0  0.81736  0.29850  0.32097  1.0000
  H   H2570     1.0  0.92721  0.37715  0.36148  1.0000
  S   S431      1.0  0.62904  0.24716  0.35919  1.0000
  Fe  Fe214     1.0  0.88012  0.32852  0.51497  1.0000
  S   S432      1.0  0.89936  0.30113  0.50850  1.0000
  S   S433      1.0  0.86342  0.32694  0.54544  1.0000
  Fe  Fe215     1.0  0.89783  0.35174  0.47690  1.0000
  S   S434      1.0  0.91835  0.32558  0.46855  1.0000
  S   S435      1.0  0.90395  0.37944  0.45717  1.0000
  Fe  Fe216     1.0  0.89242  0.31025  0.47818  1.0000
  S   S436      1.0  0.87696  0.29651  0.46033  1.0000
  Fe  Fe217     1.0  0.92299  0.31955  0.49976  1.0000
  S   S437      1.0  0.95159  0.31190  0.51174  1.0000
  S   S438      1.0  0.87174  0.33707  0.48541  1.0000
  S   S439      1.0  0.90382  0.34641  0.50728  1.0000
  H   H2571     1.0  0.84018  0.23559  0.31996  1.0000
  S   S440      1.0  0.74744  0.27009  0.60922  1.0000
  H   H2572     1.0  0.89960  0.24647  0.58905  1.0000
  C   C3226     1.0  0.89994  0.34637  0.34031  1.0000
  C   C3227     1.0  0.57557  0.23984  0.33458  1.0000
  C   C3228     1.0  0.89666  0.36773  0.64026  1.0000
  H   H2573     1.0  0.90113  0.32699  0.36773  1.0000
  C   C3229     1.0  0.89270  0.26119  0.44777  1.0000
  Fe  Fe218     1.0  0.77710  0.27802  0.59846  1.0000
  S   S441      1.0  0.78325  0.29657  0.56919  1.0000
  H   H2574     1.0  0.82854  0.26336  0.60825  1.0000
  S   S442      1.0  0.79293  0.24759  0.60220  1.0000
  H   H2575     1.0  0.98398  0.30369  0.53237  1.0000
  H   H2576     1.0  0.86749  0.44977  0.43409  1.0000
  H   H2577     1.0  0.91957  0.38775  0.32830  1.0000
  C   C3230     1.0  0.84187  0.31712  0.55148  1.0000
  C   C3231     1.0  0.83101  0.31664  0.53740  1.0000
  C   C3232     1.0  0.81305  0.31020  0.54293  1.0000
  C   C3233     1.0  0.80619  0.30367  0.56247  1.0000
  C   C3234     1.0  0.81742  0.30343  0.57642  1.0000
  C   C3235     1.0  0.83506  0.31039  0.57096  1.0000
  H   H2578     1.0  0.83615  0.32178  0.52235  1.0000
  H   H2579     1.0  0.80442  0.31042  0.53206  1.0000
  H   H2580     1.0  0.81222  0.29848  0.59150  1.0000
  H   H2581     1.0  0.84336  0.31068  0.58191  1.0000
  C   C3236     1.0  0.87772  0.27706  0.44787  1.0000
  C   C3237     1.0  0.86264  0.27776  0.43763  1.0000
  H   H2582     1.0  0.85095  0.28988  0.43776  1.0000
  C   C3238     1.0  0.82973  0.24561  0.47182  1.0000
  C   C3239     1.0  0.85823  0.32447  0.63375  1.0000
  H   H2583     1.0  0.98219  0.40340  0.48775  1.0000
  C   C3240     1.0  0.97638  0.31794  0.53447  1.0000
  C   C3241     1.0  0.95977  0.32575  0.52588  1.0000
  C   C3242     1.0  0.95037  0.34436  0.52857  1.0000
  C   C3243     1.0  0.95757  0.35499  0.53940  1.0000
  C   C3244     1.0  0.86524  0.25696  0.50995  1.0000
  C   C3245     1.0  0.87605  0.30640  0.36310  1.0000
  H   H2584     1.0  0.93772  0.35076  0.52204  1.0000
  C   C3246     1.0  0.76801  0.29278  0.31706  1.0000
  H   H2585     1.0  0.90029  0.38135  0.63220  1.0000
  C   C3247     1.0  0.96811  0.41731  0.46335  1.0000
  C   C3248     1.0  0.82801  0.28443  0.33306  1.0000
  H   H2586     1.0  0.90128  0.29977  0.41308  1.0000
  C   C3249     1.0  0.85846  0.36455  0.32332  1.0000
  H   H2587     1.0  0.88060  0.40024  0.35233  1.0000
  H   H2588     1.0  0.85317  0.27240  0.56045  1.0000
  C   C3250     1.0  0.70125  0.31777  0.31893  1.0000
  C   C3251     1.0  0.63199  0.26798  0.34190  1.0000
  C   C3252     1.0  0.62009  0.28525  0.34562  1.0000
  C   C3253     1.0  0.62144  0.30227  0.33236  1.0000
  H   H2589     1.0  0.93685  0.39778  0.44579  1.0000
  C   C3254     1.0  0.83116  0.29536  0.48943  1.0000
  H   H2590     1.0  0.60987  0.28552  0.35897  1.0000
  C   C3255     1.0  0.79993  0.28679  0.49005  1.0000
  C   C3256     1.0  0.89056  0.39209  0.43906  1.0000
  C   C3257     1.0  0.87034  0.39601  0.44268  1.0000
  C   C3258     1.0  0.86025  0.40873  0.42894  1.0000
  C   C3259     1.0  0.87028  0.41728  0.41143  1.0000
  C   C3260     1.0  0.89043  0.41250  0.40744  1.0000
  C   C3261     1.0  0.90054  0.40023  0.42134  1.0000
  H   H2591     1.0  0.86257  0.39004  0.45642  1.0000
  H   H2592     1.0  0.84471  0.41254  0.43218  1.0000
  H   H2593     1.0  0.89835  0.41919  0.39418  1.0000
  H   H2594     1.0  0.91619  0.39753  0.41859  1.0000
  H   H2595     1.0  0.60437  0.41390  0.63991  1.0000
  Fe  Fe219     1.0  0.88779  0.44043  0.32636  1.0000
  C   C3262     1.0  0.91463  0.35129  0.36647  1.0000
  H   H2596     1.0  0.98303  0.28399  0.61594  1.0000
  C   C3263     1.0  0.87181  0.23941  0.58894  1.0000
  C   C3264     1.0  0.87638  0.26620  0.60278  1.0000
  C   C3265     1.0  0.96980  0.30872  0.59777  1.0000
  C   C3266     1.0  0.86256  0.34441  0.32867  1.0000
  H   H2597     1.0  0.77947  0.30909  0.47652  1.0000
  C   C3267     1.0  0.77486  0.27562  0.32863  1.0000
  H   H2598     1.0  0.90409  0.23398  0.43774  1.0000
  H   H2599     1.0  0.70396  0.25267  0.32944  1.0000
  C   C3268     1.0  0.92314  0.44025  0.43291  1.0000
  C   C3269     1.0  0.97414  0.34718  0.54801  1.0000
  C   C3270     1.0  0.57815  0.27381  0.32748  1.0000
  H   H2600     1.0  0.88938  0.45953  0.40377  1.0000
  C   C3271     1.0  0.88668  0.30847  0.34432  1.0000
  H   H2601     1.0  0.97476  0.43001  0.46125  1.0000
  H   H2602     1.0  0.95981  0.45895  0.39434  1.0000
  H   H2603     1.0  0.83717  0.38909  0.31518  1.0000
  C   C3272     1.0  0.94034  0.38065  0.58928  1.0000
  C   C3273     1.0  0.94341  0.28411  0.55875  1.0000
  H   H2604     1.0  0.93660  0.32101  0.64496  1.0000
  H   H2605     1.0  0.75045  0.24790  0.38357  1.0000
  C   C3274     1.0  0.83344  0.39538  0.35796  1.0000
  C   C3275     1.0  0.88589  0.27175  0.36704  1.0000
  H   H2606     1.0  0.93803  0.37554  0.57681  1.0000
  C   C3276     1.0  0.96379  0.38571  0.48178  1.0000
  C   C3277     1.0  0.87456  0.31701  0.59667  1.0000
  H   H2607     1.0  0.72214  0.32710  0.33167  1.0000
  H   H2608     1.0  0.94422  0.37146  0.47254  1.0000
  C   C3278     1.0  0.89057  0.43889  0.45067  1.0000
  C   C3279     1.0  0.97310  0.40535  0.38740  1.0000
  C   C3280     1.0  0.93536  0.37067  0.60805  1.0000
  Fe  Fe220     1.0  0.87092  0.48152  0.33378  1.0000
  H   H2609     1.0  0.96171  0.27745  0.58040  1.0000
  C   C3281     1.0  0.69574  0.28580  0.34917  1.0000
  C   C3282     1.0  0.70312  0.28547  0.36603  1.0000
  C   C3283     1.0  0.69227  0.28028  0.38421  1.0000
  C   C3284     1.0  0.67389  0.27568  0.38570  1.0000
  C   C3285     1.0  0.66620  0.27664  0.36901  1.0000
  C   C3286     1.0  0.67702  0.28183  0.35081  1.0000
  H   H2610     1.0  0.83517  0.32387  0.47526  1.0000
  C   C3287     1.0  0.91458  0.33731  0.58045  1.0000
  H   H2611     1.0  0.81092  0.36978  0.31967  1.0000
  H   H2612     1.0  0.86836  0.31901  0.36903  1.0000
  C   C3288     1.0  0.85179  0.24403  0.59446  1.0000
  C   C3289     1.0  0.74230  0.26842  0.33788  1.0000
  C   C3290     1.0  0.83541  0.24138  0.49010  1.0000
  H   H2613     1.0  0.82062  0.40133  0.35149  1.0000
  H   H2614     1.0  0.79011  0.27177  0.32963  1.0000
  C   C3291     1.0  0.96520  0.40983  0.40580  1.0000
  P   P108      1.0  0.94906  0.43535  0.43204  1.0000
  H   H2615     1.0  0.92832  0.47210  0.44425  1.0000
  H   H2616     1.0  0.69834  0.27930  0.39714  1.0000
  H   H2617     1.0  0.66564  0.27127  0.39977  1.0000
  H   H2618     1.0  0.65186  0.27325  0.37022  1.0000
  H   H2619     1.0  0.67080  0.28276  0.33803  1.0000
  S   S443      1.0  0.82547  0.23672  0.40058  1.0000
  C   C3292     1.0  0.94687  0.39916  0.45476  1.0000
  H   H2620     1.0  0.86743  0.28662  0.38892  1.0000
  H   H2621     1.0  0.90477  0.31976  0.63849  1.0000
  H   H2622     1.0  0.76733  0.25018  0.34801  1.0000
  H   H2623     1.0  0.73258  0.25870  0.34599  1.0000
  C   C3293     1.0  0.73523  0.28594  0.32673  1.0000
  C   C3294     1.0  0.97618  0.42010  0.37168  1.0000
  C   C3295     1.0  0.92448  0.28724  0.55515  1.0000
  C   C3296     1.0  0.89528  0.45317  0.41685  1.0000
  H   H2624     1.0  0.95024  0.36943  0.54108  1.0000
  C   C3297     1.0  0.97665  0.45875  0.42894  1.0000
  H   H2625     1.0  0.85931  0.34507  0.58655  1.0000
  C   C3298     1.0  0.71007  0.33154  0.32386  1.0000
  C   C3299     1.0  0.85663  0.26740  0.54666  1.0000
  C   C3300     1.0  0.89549  0.24895  0.64045  1.0000
  C   C3301     1.0  0.84597  0.25918  0.51959  1.0000
  C   C3302     1.0  0.96037  0.42916  0.40862  1.0000
  C   C3303     1.0  0.95697  0.45711  0.43423  1.0000
  H   H2626     1.0  0.79004  0.27648  0.49402  1.0000
  H   H2627     1.0  0.92102  0.31838  0.42476  1.0000
  C   C3304     1.0  0.97150  0.43934  0.37437  1.0000
  C   C3305     1.0  0.87579  0.26451  0.53728  1.0000
  H   H2628     1.0  0.85611  0.26775  0.33617  1.0000
  H   H2629     1.0  0.85148  0.41337  0.33731  1.0000
  H   H2630     1.0  0.92454  0.45333  0.40273  1.0000
  H   H2631     1.0  0.87244  0.29610  0.64398  1.0000
  H   H2632     1.0  0.97666  0.39042  0.38531  1.0000
  C   C3306     1.0  0.59599  0.26960  0.31572  1.0000
  C   C3307     1.0  0.86253  0.26296  0.42727  1.0000
  C   C3308     1.0  0.80657  0.31867  0.47472  1.0000
  C   C3309     1.0  0.85453  0.33840  0.61769  1.0000
  H   H2633     1.0  0.81764  0.33434  0.32975  1.0000
  H   H2634     1.0  0.88661  0.24233  0.63410  1.0000
  S   S444      1.0  0.81644  0.27514  0.35602  1.0000
  C   C3310     1.0  0.70320  0.35125  0.31890  1.0000
  C   C3311     1.0  0.81862  0.28175  0.49482  1.0000
  C   C3312     1.0  0.74831  0.29785  0.31593  1.0000
  C   C3313     1.0  0.97235  0.40225  0.47847  1.0000
  S   S445      1.0  0.78053  0.28307  0.62744  1.0000
  C   C3314     1.0  0.94512  0.31738  0.63152  1.0000
  C   C3315     1.0  0.95936  0.30086  0.63221  1.0000
  C   C3316     1.0  0.97164  0.29647  0.61533  1.0000
  S   S446      1.0  0.88262  0.47779  0.36134  1.0000
  C   C3317     1.0  0.89625  0.27360  0.34820  1.0000
  H   H2635     1.0  0.82704  0.26737  0.54541  1.0000
  H   H2636     1.0  0.84567  0.29194  0.49282  1.0000
  H   H2637     1.0  0.95535  0.28493  0.54680  1.0000
  C   C3318     1.0  0.93158  0.27874  0.59315  1.0000
  C   C3319     1.0  0.91552  0.37443  0.33686  1.0000
  H   H2638     1.0  0.85082  0.26379  0.41948  1.0000
  H   H2639     1.0  0.65422  0.25433  0.32145  1.0000
  C   C3320     1.0  0.88410  0.25039  0.59316  1.0000
  C   C3321     1.0  0.87021  0.30685  0.63131  1.0000
  C   C3322     1.0  0.90050  0.26701  0.63173  1.0000
  H   H2640     1.0  0.87946  0.38463  0.56664  1.0000
  H   H2641     1.0  0.95344  0.40423  0.57177  1.0000
  H   H2642     1.0  0.96276  0.39816  0.41764  1.0000
  C   C3323     1.0  0.86725  0.39474  0.35844  1.0000
  C   C3324     1.0  0.86650  0.38038  0.37483  1.0000
  C   C3325     1.0  0.84924  0.37315  0.38280  1.0000
  C   C3326     1.0  0.83268  0.38087  0.37423  1.0000
  P   P109      1.0  0.84780  0.35498  0.40443  1.0000
  C   C3327     1.0  0.87168  0.34355  0.40933  1.0000
  C   C3328     1.0  0.83565  0.36608  0.42520  1.0000
  C   C3329     1.0  0.83972  0.35758  0.44374  1.0000
  C   C3330     1.0  0.83055  0.36616  0.45983  1.0000
  C   C3331     1.0  0.81721  0.38321  0.45761  1.0000
  C   C3332     1.0  0.81304  0.39175  0.43927  1.0000
  C   C3333     1.0  0.82227  0.38330  0.42312  1.0000
  C   C3334     1.0  0.88303  0.35397  0.41589  1.0000
  C   C3335     1.0  0.90082  0.34498  0.42128  1.0000
  C   C3336     1.0  0.79393  0.30522  0.48007  1.0000
  C   C3337     1.0  0.87849  0.32396  0.40818  1.0000
  C   C3338     1.0  0.83477  0.33653  0.40213  1.0000
  C   C3339     1.0  0.83245  0.33375  0.38388  1.0000
  C   C3340     1.0  0.82399  0.31829  0.38217  1.0000
  C   C3341     1.0  0.81770  0.30554  0.39862  1.0000
  C   C3342     1.0  0.81973  0.30831  0.41684  1.0000
  C   C3343     1.0  0.82827  0.32369  0.41861  1.0000
  C   C3344     1.0  0.94005  0.37680  0.62370  1.0000
  H   H2643     1.0  0.61232  0.31559  0.33559  1.0000
  C   C3345     1.0  0.77647  0.23635  0.55254  1.0000
  H   H2644     1.0  0.87943  0.37518  0.38117  1.0000
  H   H2645     1.0  0.81911  0.37578  0.38025  1.0000
  H   H2646     1.0  0.85020  0.34445  0.44579  1.0000
  H   H2647     1.0  0.83403  0.35976  0.47403  1.0000
  H   H2648     1.0  0.81035  0.38996  0.47007  1.0000
  H   H2649     1.0  0.80299  0.40520  0.43748  1.0000
  H   H2650     1.0  0.81910  0.39052  0.40909  1.0000
  H   H2651     1.0  0.87789  0.36898  0.41721  1.0000
  H   H2652     1.0  0.90922  0.35303  0.42684  1.0000
  H   H2653     1.0  0.86985  0.31528  0.40393  1.0000
  H   H2654     1.0  0.83778  0.34301  0.37084  1.0000
  H   H2655     1.0  0.82262  0.31585  0.36806  1.0000
  H   H2656     1.0  0.81150  0.29337  0.39714  1.0000
  H   H2657     1.0  0.81513  0.29823  0.42958  1.0000
  H   H2658     1.0  0.83040  0.32512  0.43277  1.0000
  H   H2659     1.0  0.88575  0.25760  0.37595  1.0000
  S   S447      1.0  0.98250  0.36155  0.56141  1.0000
  C   C3346     1.0  0.98283  0.47589  0.42959  1.0000
  Fe  Fe221     1.0  0.76363  0.23987  0.61470  1.0000
  C   C3347     1.0  0.76202  0.26342  0.33896  1.0000
  C   C3348     1.0  0.87564  0.28814  0.37441  1.0000
  H   H2660     1.0  0.88001  0.31430  0.58213  1.0000
  H   H2661     1.0  0.91577  0.28929  0.63423  1.0000
  H   H2662     1.0  0.92188  0.29072  0.54036  1.0000
  C   C3349     1.0  0.91241  0.28186  0.58970  1.0000
  H   H2663     1.0  0.84517  0.35199  0.61958  1.0000
  C   C3350     1.0  0.82902  0.34277  0.32811  1.0000
  P   P110      1.0  0.70971  0.29228  0.32563  1.0000
  C   C3351     1.0  0.89800  0.36888  0.58691  1.0000
  H   H2664     1.0  0.93496  0.27516  0.60757  1.0000
  C   C3352     1.0  0.89927  0.33312  0.64388  1.0000
  C   C3353     1.0  0.91059  0.43534  0.45023  1.0000
  C   C3354     1.0  0.90903  0.28602  0.57049  1.0000
  C   C3355     1.0  0.85626  0.27072  0.60825  1.0000
  H   H2665     1.0  0.89496  0.38030  0.59549  1.0000
  H   H2666     1.0  0.90471  0.29294  0.32228  1.0000
  C   C3356     1.0  0.94360  0.47283  0.44030  1.0000
  S   S448      1.0  0.71584  0.23378  0.38407  1.0000
  H   H2667     1.0  0.89449  0.28826  0.56727  1.0000
  H   H2668     1.0  0.86878  0.25408  0.49524  1.0000
  C   C3357     1.0  0.94696  0.27990  0.57772  1.0000
  C   C3358     1.0  0.64506  0.26769  0.32444  1.0000
  H   H2669     1.0  0.71734  0.28893  0.36522  1.0000
  P   P111      1.0  0.82665  0.25786  0.50727  1.0000
  H   H2670     1.0  0.80198  0.33295  0.46700  1.0000
  H   H2671     1.0  0.95446  0.33464  0.58338  1.0000
  C   C3359     1.0  0.88929  0.37146  0.57052  1.0000
  H   H2672     1.0  0.97981  0.30585  0.58476  1.0000
  Fe  Fe222     1.0  0.83019  0.24533  0.36831  1.0000
  C   C3360     1.0  0.94863  0.39329  0.62076  1.0000
  C   C3361     1.0  0.95297  0.40351  0.60210  1.0000
  H   H2673     1.0  0.71028  0.36180  0.32242  1.0000
  C   C3362     1.0  0.80686  0.24937  0.52476  1.0000
  H   H2674     1.0  0.91823  0.34653  0.38084  1.0000
  C   C3363     1.0  0.91094  0.35191  0.59187  1.0000
  C   C3364     1.0  0.95543  0.32508  0.59702  1.0000
  H   H2675     1.0  0.90931  0.32907  0.55479  1.0000
  C   C3365     1.0  0.95105  0.38419  0.46991  1.0000
  C   C3366     1.0  0.94245  0.32916  0.61372  1.0000
  P   P112      1.0  0.89232  0.27949  0.60944  1.0000
  C   C3367     1.0  0.89640  0.31505  0.41337  1.0000
  H   H2676     1.0  0.89487  0.25771  0.51130  1.0000
  C   C3368     1.0  0.85076  0.40223  0.35000  1.0000
  S   S449      1.0  0.93933  0.47246  0.34345  1.0000
  C   C3369     1.0  0.89248  0.24624  0.43760  1.0000
  H   H2677     1.0  0.92392  0.32379  0.58409  1.0000
  S   S450      1.0  0.89872  0.46872  0.31681  1.0000
  C   C3370     1.0  0.91529  0.44938  0.41627  1.0000
  P   P113      1.0  0.92338  0.34997  0.61204  1.0000
  C   C3371     1.0  0.89346  0.35713  0.55894  1.0000
  C   C3372     1.0  0.95524  0.41590  0.45139  1.0000
  C   C3373     1.0  0.90614  0.34013  0.56386  1.0000
  C   C3374     1.0  0.90749  0.32550  0.42006  1.0000
  C   C3375     1.0  0.90579  0.36338  0.32923  1.0000
  H   H2678     1.0  0.91617  0.42843  0.46334  1.0000
  H   H2679     1.0  0.84988  0.28260  0.61597  1.0000
  H   H2680     1.0  0.98201  0.41668  0.35737  1.0000
  H   H2681     1.0  0.90287  0.36821  0.31462  1.0000
  H   H2682     1.0  0.81433  0.28111  0.64103  1.0000
  H   H2683     1.0  0.85046  0.31795  0.33432  1.0000
  H   H2684     1.0  0.90393  0.26079  0.34244  1.0000
  C   C3376     1.0  0.86260  0.33460  0.59915  1.0000
  C   C3377     1.0  0.87867  0.30304  0.61272  1.0000
  C   C3378     1.0  0.82517  0.31368  0.47940  1.0000
  C   C3379     1.0  0.91171  0.27543  0.64070  1.0000
  H   H2685     1.0  0.80587  0.24085  0.31641  1.0000
  H   H2686     1.0  0.82019  0.25884  0.46755  1.0000
  H   H2687     1.0  0.88104  0.43421  0.46382  1.0000
  C   C3380     1.0  0.84177  0.26463  0.53796  1.0000
  H   H2688     1.0  0.98716  0.44687  0.42401  1.0000
  H   H2689     1.0  0.96021  0.41589  0.59974  1.0000
  C   C3381     1.0  0.84766  0.33356  0.33092  1.0000
  S   S451      1.0  0.76638  0.24092  0.64514  1.0000
  C   C3382     1.0  0.91982  0.36847  0.35553  1.0000
  C   C3383     1.0  0.88293  0.44775  0.43398  1.0000
  C   C3384     1.0  0.90536  0.35028  0.63374  1.0000
  C   C3385     1.0  0.98343  0.32847  0.54556  1.0000
  C   C3386     1.0  0.79365  0.26225  0.53540  1.0000
  C   C3387     1.0  0.82520  0.36276  0.32248  1.0000
  H   H2690     1.0  0.95260  0.39765  0.63288  1.0000
  C   C3388     1.0  0.63425  0.30217  0.31487  1.0000
  C   C3389     1.0  0.84762  0.27812  0.32670  1.0000
  H   H2691     1.0  0.76865  0.26571  0.55766  1.0000
  Fe  Fe223     1.0  0.79409  0.25188  0.63212  1.0000
  Fe  Fe224     1.0  0.75247  0.27187  0.63877  1.0000
  C   C3390     1.0  0.84405  0.25978  0.60394  1.0000
  H   H2692     1.0  0.93728  0.36872  0.63817  1.0000
  C   C3391     1.0  0.77856  0.25574  0.54924  1.0000
  H   H2693     1.0  0.97357  0.45082  0.36212  1.0000
  H   H2694     1.0  0.78124  0.33686  0.64058  1.0000
  H   H2695     1.0  0.84220  0.23549  0.59138  1.0000
  H   H2696     1.0  0.88721  0.26701  0.54392  1.0000
  P   P114      1.0  0.88713  0.33237  0.33017  1.0000
  C   C3392     1.0  0.56792  0.25894  0.33690  1.0000
  H   H2697     1.0  0.55417  0.26222  0.34617  1.0000
  H   H2698     1.0  0.69418  0.33941  0.64119  1.0000
  S   S452      1.0  0.86188  0.23340  0.36376  1.0000
  H   H2699     1.0  0.83289  0.23645  0.44425  1.0000
  C   C3393     1.0  0.59361  0.23547  0.32293  1.0000
  H   H2700     1.0  0.85751  0.48266  0.40675  1.0000
  C   C3394     1.0  0.83994  0.37362  0.32000  1.0000
  H   H2701     1.0  0.80238  0.30388  0.32613  1.0000
  C   C3395     1.0  0.70361  0.25927  0.31452  1.0000
  H   H2702     1.0  0.96697  0.37410  0.49358  1.0000
  H   H2703     1.0  0.86953  0.37337  0.32118  1.0000
  H   H2704     1.0  0.57242  0.28859  0.32947  1.0000
  H   H2705     1.0  0.98110  0.45883  0.64376  1.0000
  H   H2706     1.0  0.58538  0.38742  0.64467  1.0000
  H   H2707     1.0  0.96118  0.29171  0.64592  1.0000
  C   C3396     1.0  0.98825  0.44401  0.64389  1.0000
  H   H2708     1.0  0.84983  0.48304  0.44204  1.0000
  C   C3397     1.0  0.60378  0.25051  0.31356  1.0000
  Fe  Fe225     1.0  0.88326  0.25576  0.73942  1.0000
  S   S453      1.0  0.89738  0.27618  0.74972  1.0000
  Fe  Fe226     1.0  0.86756  0.28692  0.70823  1.0000
  S   S454      1.0  0.88065  0.30959  0.71619  1.0000
  S   S455      1.0  0.85018  0.29838  0.68421  1.0000
  Fe  Fe227     1.0  0.90701  0.28671  0.71810  1.0000
  S   S456      1.0  0.93863  0.28673  0.70481  1.0000
  Fe  Fe228     1.0  0.86957  0.29668  0.74681  1.0000
  S   S457      1.0  0.85260  0.31514  0.76878  1.0000
  S   S458      1.0  0.89455  0.26482  0.70806  1.0000
  S   S459      1.0  0.85480  0.27550  0.73858  1.0000
  C   C3398     1.0  0.80686  0.25805  0.72625  1.0000
  Fe  Fe229     1.0  0.73593  0.26692  0.88221  1.0000
  S   S460      1.0  0.75912  0.28333  0.88352  1.0000
  C   C3399     1.0  0.66624  0.34030  0.65952  1.0000
  Fe  Fe230     1.0  0.72115  0.29565  0.84902  1.0000
  S   S461      1.0  0.74332  0.31455  0.84680  1.0000
  S   S462      1.0  0.69549  0.30311  0.83361  1.0000
  Fe  Fe231     1.0  0.76464  0.28679  0.85098  1.0000
  S   S463      1.0  0.79335  0.27392  0.83470  1.0000
  Fe  Fe232     1.0  0.73613  0.30957  0.87928  1.0000
  S   S464      1.0  0.72739  0.33446  0.89566  1.0000
  S   S465      1.0  0.74286  0.26855  0.85026  1.0000
  S   S466      1.0  0.71262  0.29270  0.88101  1.0000
  H   H2709     1.0  0.63420  0.28579  0.64861  1.0000
  C   C3400     1.0  0.65890  0.25021  0.84894  1.0000
  H   H2710     1.0  0.76321  0.31193  0.74877  1.0000
  Fe  Fe233     1.0  0.66318  0.25593  0.76761  1.0000
  S   S467      1.0  0.65167  0.28573  0.75364  1.0000
  P   P115      1.0  0.63247  0.23564  0.92526  1.0000
  H   H2711     1.0  0.70140  0.27903  0.64746  1.0000
  S   S468      1.0  0.61265  0.26817  0.75211  1.0000
  C   C3401     1.0  0.60605  0.29219  0.66571  1.0000
  Fe  Fe234     1.0  0.64208  0.27009  0.73402  1.0000
  S   S469      1.0  0.64731  0.27875  0.70170  1.0000
  Fe  Fe235     1.0  0.62360  0.28103  0.77324  1.0000
  S   S470      1.0  0.60641  0.30256  0.79199  1.0000
  H   H2712     1.0  0.66686  0.23645  0.84546  1.0000
  S   S471      1.0  0.63624  0.25264  0.78891  1.0000
  H   H2713     1.0  0.52467  0.38495  0.90476  1.0000
  C   C3402     1.0  0.88329  0.36769  0.65746  1.0000
  C   C3403     1.0  0.60157  0.31870  0.68336  1.0000
  Fe  Fe236     1.0  0.50513  0.29536  0.85594  1.0000
  S   S472      1.0  0.52296  0.28324  0.82991  1.0000
  C   C3404     1.0  0.78096  0.32855  0.65502  1.0000
  C   C3405     1.0  0.58333  0.29712  0.80299  1.0000
  C   C3406     1.0  0.57550  0.28382  0.79635  1.0000
  C   C3407     1.0  0.55701  0.27976  0.80480  1.0000
  C   C3408     1.0  0.54626  0.28872  0.82016  1.0000
  C   C3409     1.0  0.55413  0.30188  0.82706  1.0000
  C   C3410     1.0  0.57261  0.30617  0.81838  1.0000
  H   H2714     1.0  0.58360  0.27666  0.78463  1.0000
  H   H2715     1.0  0.55104  0.26960  0.79938  1.0000
  H   H2716     1.0  0.54590  0.30890  0.83887  1.0000
  H   H2717     1.0  0.57853  0.31651  0.82362  1.0000
  C   C3411     1.0  0.58214  0.27467  0.92334  1.0000
  C   C3412     1.0  0.96518  0.39480  0.69007  1.0000
  C   C3413     1.0  0.68566  0.27742  0.70287  1.0000
  C   C3414     1.0  0.76778  0.30460  0.68044  1.0000
  C   C3415     1.0  0.79056  0.30308  0.73097  1.0000
  H   H2718     1.0  0.68138  0.27716  0.71825  1.0000
  H   H2719     1.0  0.49249  0.36559  0.85807  1.0000
  C   C3416     1.0  0.53639  0.31590  0.92668  1.0000
  C   C3417     1.0  0.54425  0.30931  0.94385  1.0000
  C   C3418     1.0  0.56139  0.33673  0.93789  1.0000
  C   C3419     1.0  0.55330  0.34351  0.92084  1.0000
  C   C3420     1.0  0.54091  0.33322  0.91527  1.0000
  H   H2720     1.0  0.55661  0.35688  0.91191  1.0000
  H   H2721     1.0  0.53488  0.33867  0.90216  1.0000
  C   C3421     1.0  0.69368  0.28595  0.82000  1.0000
  C   C3422     1.0  0.67728  0.28832  0.81137  1.0000
  C   C3423     1.0  0.67652  0.27620  0.79855  1.0000
  C   C3424     1.0  0.69210  0.26156  0.79447  1.0000
  C   C3425     1.0  0.70805  0.25851  0.80386  1.0000
  C   C3426     1.0  0.70884  0.27075  0.81658  1.0000
  H   H2722     1.0  0.66536  0.29987  0.81422  1.0000
  H   H2723     1.0  0.66398  0.27842  0.79164  1.0000
  H   H2724     1.0  0.62070  0.25304  0.70651  1.0000
  H   H2725     1.0  0.72153  0.26882  0.82307  1.0000
  C   C3427     1.0  0.71014  0.32937  0.91642  1.0000
  C   C3428     1.0  0.71109  0.31063  0.92685  1.0000
  C   C3429     1.0  0.69754  0.30660  0.94355  1.0000
  C   C3430     1.0  0.68241  0.32102  0.94944  1.0000
  C   C3431     1.0  0.68134  0.33979  0.93900  1.0000
  C   C3432     1.0  0.69538  0.34401  0.92262  1.0000
  H   H2726     1.0  0.72243  0.29931  0.92214  1.0000
  H   H2727     1.0  0.69848  0.29213  0.95169  1.0000
  H   H2728     1.0  0.66985  0.35105  0.94362  1.0000
  H   H2729     1.0  0.69464  0.35855  0.91461  1.0000
  C   C3433     1.0  0.84231  0.28159  0.67405  1.0000
  C   C3434     1.0  0.76001  0.37774  0.75100  1.0000
  C   C3435     1.0  0.98091  0.32043  0.72966  1.0000
  H   H2730     1.0  0.82008  0.29641  0.71655  1.0000
  C   C3436     1.0  0.84125  0.24879  0.67087  1.0000
  C   C3437     1.0  0.84792  0.26172  0.67939  1.0000
  C   C3438     1.0  0.79408  0.31902  0.68484  1.0000
  H   H2731     1.0  0.51948  0.25499  0.78175  1.0000
  H   H2732     1.0  0.85730  0.25632  0.69009  1.0000
  C   C3439     1.0  0.83599  0.30380  0.78707  1.0000
  C   C3440     1.0  0.83660  0.28383  0.78989  1.0000
  C   C3441     1.0  0.82336  0.27500  0.80451  1.0000
  C   C3442     1.0  0.80925  0.28603  0.81632  1.0000
  C   C3443     1.0  0.80854  0.30602  0.81353  1.0000
  C   C3444     1.0  0.82196  0.31486  0.79900  1.0000
  H   H2733     1.0  0.84749  0.27513  0.78100  1.0000
  H   H2734     1.0  0.82408  0.25952  0.80665  1.0000
  H   H2735     1.0  0.79789  0.31461  0.82275  1.0000
  H   H2736     1.0  0.82151  0.33029  0.79700  1.0000
  C   C3445     1.0  0.96345  0.33855  0.66683  1.0000
  C   C3446     1.0  0.94483  0.34134  0.67784  1.0000
  C   C3447     1.0  0.93669  0.32552  0.68904  1.0000
  C   C3448     1.0  0.94740  0.30688  0.68972  1.0000
  C   C3449     1.0  0.67194  0.27734  0.69147  1.0000
  S   S473      1.0  0.66546  0.31471  0.97005  1.0000
  H   H2737     1.0  0.93667  0.35578  0.67770  1.0000
  H   H2738     1.0  0.92234  0.32778  0.69749  1.0000
  H   H2739     1.0  0.60057  0.28059  0.66202  1.0000
  C   C3450     1.0  0.52233  0.39942  0.94920  1.0000
  H   H2740     1.0  0.69359  0.26178  0.90460  1.0000
  H   H2741     1.0  0.56259  0.31413  0.96258  1.0000
  H   H2742     1.0  0.64710  0.31155  0.65733  1.0000
  C   C3451     1.0  0.50174  0.38108  0.93949  1.0000
  H   H2743     1.0  0.50594  0.35052  0.95164  1.0000
  C   C3452     1.0  0.79110  0.24235  0.93631  1.0000
  H   H2744     1.0  0.98819  0.31763  0.65857  1.0000
  Fe  Fe237     1.0  0.63577  0.33219  0.97785  1.0000
  H   H2745     1.0  0.62782  0.27024  0.94342  1.0000
  Fe  Fe238     1.0  0.50271  0.30394  0.89658  1.0000
  H   H2746     1.0  0.75975  0.28291  0.96336  1.0000
  C   C3453     1.0  0.51844  0.37349  0.86295  1.0000
  C   C3454     1.0  0.77608  0.25508  0.92821  1.0000
  C   C3455     1.0  0.76489  0.26971  0.93789  1.0000
  C   C3456     1.0  0.52740  0.37889  0.87622  1.0000
  H   H2747     1.0  0.54382  0.24232  0.75532  1.0000
  C   C3457     1.0  0.79392  0.24367  0.95484  1.0000
  H   H2748     1.0  0.85165  0.32718  0.64816  1.0000
  C   C3458     1.0  0.60477  0.36695  0.66132  1.0000
  C   C3459     1.0  0.94221  0.39892  0.71933  1.0000
  S   S474      1.0  0.69215  0.24787  0.77683  1.0000
  C   C3460     1.0  0.82868  0.25570  0.65731  1.0000
  Fe  Fe239     1.0  0.59441  0.34506  0.96932  1.0000
  H   H2749     1.0  0.97677  0.27670  0.72131  1.0000
  C   C3461     1.0  0.65414  0.28172  0.93350  1.0000
  C   C3462     1.0  0.49838  0.37673  0.90044  1.0000
  C   C3463     1.0  0.63245  0.37880  0.66653  1.0000
  H   H2750     1.0  0.55282  0.26991  0.93410  1.0000
  S   S475      1.0  0.61950  0.36124  0.96635  1.0000
  H   H2751     1.0  0.54209  0.38178  0.87209  1.0000
  C   C3464     1.0  0.91334  0.24762  0.66621  1.0000
  H   H2752     1.0  0.77310  0.25372  0.91433  1.0000
  H   H2753     1.0  0.75368  0.27983  0.93127  1.0000
  H   H2754     1.0  0.80454  0.33981  0.66088  1.0000
  H   H2755     1.0  0.54603  0.31304  0.87835  1.0000
  C   C3465     1.0  0.53053  0.38271  0.96045  1.0000
  C   C3466     1.0  0.88623  0.33303  0.66124  1.0000
  C   C3467     1.0  0.54509  0.23653  0.77027  1.0000
  H   H2756     1.0  0.93533  0.39148  0.69404  1.0000
  C   C3468     1.0  0.75690  0.35902  0.72749  1.0000
  C   C3469     1.0  0.76586  0.37238  0.73273  1.0000
  C   C3470     1.0  0.74517  0.36978  0.76406  1.0000
  C   C3471     1.0  0.73584  0.35662  0.75877  1.0000
  C   C3472     1.0  0.74207  0.35106  0.74052  1.0000
  P   P116      1.0  0.71872  0.34416  0.77636  1.0000
  C   C3473     1.0  0.73297  0.32143  0.78499  1.0000
  C   C3474     1.0  0.70844  0.35790  0.79562  1.0000
  C   C3475     1.0  0.70857  0.34940  0.81504  1.0000
  C   C3476     1.0  0.70064  0.36020  0.82982  1.0000
  C   C3477     1.0  0.73103  0.30414  0.77974  1.0000
  C   C3478     1.0  0.74352  0.28702  0.78499  1.0000
  C   C3479     1.0  0.75787  0.28696  0.79568  1.0000
  C   C3480     1.0  0.75987  0.30409  0.80092  1.0000
  C   C3481     1.0  0.74757  0.32126  0.79555  1.0000
  C   C3482     1.0  0.69850  0.34099  0.76630  1.0000
  C   C3483     1.0  0.69460  0.35119  0.74820  1.0000
  C   C3484     1.0  0.67910  0.34801  0.74063  1.0000
  C   C3485     1.0  0.66718  0.33496  0.75124  1.0000
  C   C3486     1.0  0.67057  0.32533  0.76953  1.0000
  C   C3487     1.0  0.68601  0.32853  0.77711  1.0000
  H   H2757     1.0  0.76181  0.35447  0.71351  1.0000
  H   H2758     1.0  0.77758  0.37831  0.72276  1.0000
  H   H2759     1.0  0.73576  0.34020  0.73659  1.0000
  H   H2760     1.0  0.71468  0.33441  0.81893  1.0000
  H   H2761     1.0  0.70094  0.35347  0.84478  1.0000
  H   H2762     1.0  0.71999  0.30372  0.77161  1.0000
  H   H2763     1.0  0.74181  0.27373  0.78108  1.0000
  H   H2764     1.0  0.76740  0.27368  0.80008  1.0000
  H   H2765     1.0  0.77098  0.30403  0.80920  1.0000
  H   H2766     1.0  0.74960  0.33443  0.79955  1.0000
  H   H2767     1.0  0.70335  0.36168  0.73995  1.0000
  H   H2768     1.0  0.67627  0.35570  0.72657  1.0000
  H   H2769     1.0  0.65517  0.33243  0.74543  1.0000
  H   H2770     1.0  0.66112  0.31547  0.77795  1.0000
  H   H2771     1.0  0.68834  0.32126  0.79145  1.0000
  H   H2772     1.0  0.52609  0.37222  0.84848  1.0000
  H   H2773     1.0  0.68540  0.40309  0.80258  1.0000
  C   C3488     1.0  0.70482  0.27888  0.69418  1.0000
  H   H2774     1.0  0.60880  0.31122  0.75057  1.0000
  H   H2775     1.0  0.70297  0.28152  0.74867  1.0000
  C   C3489     1.0  0.61165  0.32436  0.74084  1.0000
  H   H2776     1.0  0.57056  0.24924  0.87839  1.0000
  H   H2777     1.0  0.52314  0.24306  0.81558  1.0000
  H   H2778     1.0  0.78156  0.26516  0.68900  1.0000
  H   H2779     1.0  0.72163  0.26099  0.93666  1.0000
  C   C3490     1.0  0.83039  0.24802  0.86032  1.0000
  H   H2780     1.0  0.69938  0.38404  0.77633  1.0000
  S   S476      1.0  0.97376  0.35870  0.65384  1.0000
  C   C3491     1.0  0.68647  0.33662  0.65584  1.0000
  H   H2781     1.0  0.95673  0.30685  0.72923  1.0000
  C   C3492     1.0  0.69710  0.27834  0.66291  1.0000
  C   C3493     1.0  0.62162  0.34104  0.70840  1.0000
  H   H2782     1.0  0.65937  0.32354  0.70804  1.0000
  H   H2783     1.0  0.71171  0.25008  0.86754  1.0000
  C   C3494     1.0  0.56801  0.26349  0.93266  1.0000
  H   H2784     1.0  0.64187  0.25487  0.82643  1.0000
  H   H2785     1.0  0.72985  0.25442  0.75371  1.0000
  H   H2786     1.0  0.60339  0.28070  0.87727  1.0000
  C   C3495     1.0  0.61843  0.32397  0.72121  1.0000
  H   H2787     1.0  0.92559  0.24087  0.73821  1.0000
  H   H2788     1.0  0.96821  0.39159  0.67547  1.0000
  H   H2789     1.0  0.74137  0.37359  0.77840  1.0000
  H   H2790     1.0  0.62108  0.31031  0.71607  1.0000
  H   H2791     1.0  0.64192  0.23620  0.96331  1.0000
  P   P117      1.0  0.63005  0.34044  0.68293  1.0000
  C   C3496     1.0  0.60170  0.26631  0.92102  1.0000
  C   C3497     1.0  0.59433  0.30398  0.67832  1.0000
  H   H2792     1.0  0.49715  0.33839  0.92548  1.0000
  H   H2793     1.0  0.80637  0.26405  0.90146  1.0000
  C   C3498     1.0  0.97391  0.31987  0.66710  1.0000
  H   H2794     1.0  0.86810  0.35014  0.68152  1.0000
  C   C3499     1.0  0.62065  0.32171  0.67586  1.0000
  H   H2795     1.0  0.64559  0.37669  0.67260  1.0000
  H   H2796     1.0  0.77691  0.33046  0.76681  1.0000
  H   H2797     1.0  0.82638  0.30376  0.65550  1.0000
  C   C3500     1.0  0.67776  0.27737  0.67155  1.0000
  H   H2798     1.0  0.80480  0.32030  0.69297  1.0000
  H   H2799     1.0  0.75781  0.31431  0.65309  1.0000
  H   H2800     1.0  0.81187  0.33204  0.75990  1.0000
  H   H2801     1.0  0.52361  0.24497  0.84903  1.0000
  H   H2802     1.0  0.57784  0.28987  0.91792  1.0000
  C   C3501     1.0  0.73293  0.26813  0.74528  1.0000
  C   C3502     1.0  0.69189  0.38809  0.80603  1.0000
  C   C3503     1.0  0.80587  0.32400  0.75187  1.0000
  C   C3504     1.0  0.62496  0.29519  0.65806  1.0000
  C   C3505     1.0  0.82342  0.27557  0.65185  1.0000
  C   C3506     1.0  0.50997  0.36439  0.95100  1.0000
  C   C3507     1.0  0.67257  0.27957  0.92235  1.0000
  C   C3508     1.0  0.61850  0.35840  0.71572  1.0000
  C   C3509     1.0  0.78090  0.30607  0.69205  1.0000
  H   H2803     1.0  0.97142  0.25243  0.76263  1.0000
  C   C3510     1.0  0.55673  0.31951  0.94935  1.0000
  P   P118      1.0  0.78061  0.29143  0.71589  1.0000
  C   C3511     1.0  0.69680  0.32881  0.67100  1.0000
  C   C3512     1.0  0.63519  0.27877  0.84204  1.0000
  C   C3513     1.0  0.63941  0.28655  0.85696  1.0000
  C   C3514     1.0  0.65284  0.27548  0.86839  1.0000
  P   P119      1.0  0.62769  0.31060  0.86083  1.0000
  C   C3515     1.0  0.63504  0.31783  0.88086  1.0000
  C   C3516     1.0  0.63356  0.32659  0.83822  1.0000
  C   C3517     1.0  0.64870  0.33731  0.83503  1.0000
  C   C3518     1.0  0.65322  0.34907  0.81723  1.0000
  C   C3519     1.0  0.64270  0.35031  0.80244  1.0000
  C   C3520     1.0  0.62773  0.33965  0.80539  1.0000
  C   C3521     1.0  0.62318  0.32787  0.82315  1.0000
  C   C3522     1.0  0.62106  0.32407  0.89618  1.0000
  C   C3523     1.0  0.62662  0.33001  0.91142  1.0000
  C   C3524     1.0  0.64614  0.32990  0.91151  1.0000
  C   C3525     1.0  0.66018  0.32362  0.89649  1.0000
  C   C3526     1.0  0.65471  0.31740  0.88134  1.0000
  C   C3527     1.0  0.60179  0.31120  0.86587  1.0000
  C   C3528     1.0  0.59401  0.29433  0.87400  1.0000
  C   C3529     1.0  0.93625  0.23620  0.74776  1.0000
  C   C3530     1.0  0.56155  0.31255  0.87468  1.0000
  C   C3531     1.0  0.56917  0.32944  0.86680  1.0000
  C   C3532     1.0  0.58922  0.32881  0.86244  1.0000
  H   H2804     1.0  0.66726  0.27700  0.66274  1.0000
  H   H2805     1.0  0.67350  0.24935  0.87256  1.0000
  C   C3533     1.0  0.53136  0.24358  0.78513  1.0000
  H   H2806     1.0  0.62474  0.28677  0.83309  1.0000
  H   H2807     1.0  0.65607  0.28063  0.88036  1.0000
  H   H2808     1.0  0.65731  0.33657  0.84598  1.0000
  H   H2809     1.0  0.66507  0.35702  0.81488  1.0000
  H   H2810     1.0  0.64636  0.35929  0.78861  1.0000
  H   H2811     1.0  0.61974  0.34021  0.79387  1.0000
  H   H2812     1.0  0.61162  0.31964  0.82499  1.0000
  H   H2813     1.0  0.60578  0.32450  0.89658  1.0000
  H   H2814     1.0  0.61573  0.33486  0.92313  1.0000
  H   H2815     1.0  0.65034  0.33458  0.92333  1.0000
  H   H2816     1.0  0.67535  0.32348  0.89665  1.0000
  H   H2817     1.0  0.66589  0.31221  0.87004  1.0000
  H   H2818     1.0  0.64931  0.29375  0.94140  1.0000
  H   H2819     1.0  0.94723  0.26301  0.74057  1.0000
  H   H2820     1.0  0.71521  0.27978  0.70290  1.0000
  H   H2821     1.0  0.55949  0.34304  0.86430  1.0000
  H   H2822     1.0  0.59493  0.34207  0.85661  1.0000
  C   C3534     1.0  0.81356  0.25377  0.89208  1.0000
  H   H2823     1.0  0.88212  0.31955  0.66929  1.0000
  C   C3535     1.0  0.60841  0.34166  0.74799  1.0000
  C   C3536     1.0  0.61193  0.35867  0.73545  1.0000
  C   C3537     1.0  0.83033  0.28844  0.66007  1.0000
  H   H2824     1.0  0.56783  0.28211  0.88466  1.0000
  H   H2825     1.0  0.60308  0.34177  0.76327  1.0000
  H   H2826     1.0  0.60936  0.37210  0.74103  1.0000
  H   H2827     1.0  0.62101  0.37176  0.70628  1.0000
  H   H2828     1.0  0.75764  0.29460  0.68550  1.0000
  H   H2829     1.0  0.87693  0.38113  0.66261  1.0000
  S   S477      1.0  0.57667  0.35058  0.94442  1.0000
  C   C3538     1.0  0.81798  0.31444  0.73769  1.0000
  H   H2830     1.0  0.54210  0.38309  0.96806  1.0000
  H   H2831     1.0  0.71992  0.24695  0.80102  1.0000
  C   C3539     1.0  0.69984  0.37728  0.79121  1.0000
  C   C3540     1.0  0.76829  0.27141  0.95598  1.0000
  H   H2832     1.0  0.95326  0.40668  0.74208  1.0000
  H   H2833     1.0  0.68628  0.38790  0.83683  1.0000
  C   C3541     1.0  0.71774  0.28344  0.74246  1.0000
  C   C3542     1.0  0.61336  0.23706  0.68734  1.0000
  S   S478      1.0  0.50362  0.27650  0.88508  1.0000
  H   H2834     1.0  0.52742  0.41288  0.94826  1.0000
  C   C3543     1.0  0.50801  0.39864  0.93875  1.0000
  H   H2835     1.0  0.76725  0.38779  0.75521  1.0000
  C   C3544     1.0  0.87827  0.35030  0.66808  1.0000
  H   H2836     1.0  0.72452  0.27254  0.97216  1.0000
  C   C3545     1.0  0.82069  0.26080  0.87284  1.0000
  C   C3546     1.0  0.97236  0.30524  0.72758  1.0000
  C   C3547     1.0  0.78617  0.32298  0.75581  1.0000
  H   H2837     1.0  0.80923  0.26483  0.73759  1.0000
  C   C3548     1.0  0.57394  0.29503  0.87823  1.0000
  C   C3549     1.0  0.67912  0.26374  0.91281  1.0000
  C   C3550     1.0  0.95665  0.40321  0.72760  1.0000
  C   C3551     1.0  0.96201  0.24270  0.76159  1.0000
  C   C3552     1.0  0.96605  0.30414  0.67879  1.0000
  C   C3553     1.0  0.68691  0.32460  0.68982  1.0000
  H   H2838     1.0  0.98664  0.43796  0.67471  1.0000
  H   H2839     1.0  0.83562  0.23905  0.93544  1.0000
  C   C3554     1.0  0.78260  0.25821  0.96458  1.0000
  H   H2840     1.0  0.59624  0.35564  0.66317  1.0000
  H   H2841     1.0  0.54065  0.29618  0.95306  1.0000
  C   C3555     1.0  0.77850  0.31250  0.74548  1.0000
  C   C3556     1.0  0.69236  0.37956  0.82532  1.0000
  C   C3557     1.0  0.79433  0.26777  0.71325  1.0000
  C   C3558     1.0  0.71051  0.27962  0.67419  1.0000
  H   H2842     1.0  0.74338  0.31726  0.71495  1.0000
  C   C3559     1.0  0.81044  0.30380  0.72748  1.0000
  H   H2843     1.0  0.92769  0.39890  0.72743  1.0000
  C   C3560     1.0  0.74062  0.30356  0.72357  1.0000
  C   C3561     1.0  0.72160  0.30120  0.73175  1.0000
  C   C3562     1.0  0.79118  0.25816  0.69916  1.0000
  C   C3563     1.0  0.75598  0.28821  0.72626  1.0000
  H   H2844     1.0  0.76357  0.25853  0.74005  1.0000
  C   C3564     1.0  0.63224  0.30992  0.66304  1.0000
  C   C3565     1.0  0.62182  0.36369  0.66926  1.0000
  H   H2845     1.0  0.59557  0.26370  0.85335  1.0000
  C   C3566     1.0  0.94647  0.39479  0.70054  1.0000
  C   C3567     1.0  0.58755  0.25391  0.84992  1.0000
  H   H2846     1.0  0.92673  0.27237  0.66477  1.0000
  S   S479      1.0  0.52138  0.30170  0.92020  1.0000
  C   C3568     1.0  0.64816  0.25287  0.92418  1.0000
  C   C3569     1.0  0.91814  0.26576  0.65785  1.0000
  C   C3570     1.0  0.66669  0.32787  0.69351  1.0000
  H   H2847     1.0  0.68185  0.29007  0.92121  1.0000
  C   C3571     1.0  0.75201  0.27053  0.73745  1.0000
  C   C3572     1.0  0.94845  0.24867  0.74910  1.0000
  H   H2848     1.0  0.70979  0.31306  0.72978  1.0000
  C   C3573     1.0  0.65619  0.33602  0.67842  1.0000
  H   H2849     1.0  0.49134  0.24561  0.86934  1.0000
  H   H2850     1.0  0.69494  0.31788  0.70138  1.0000
  H   H2851     1.0  0.97444  0.28977  0.67928  1.0000
  C   C3574     1.0  0.66708  0.25035  0.91384  1.0000
  H   H2852     1.0  0.83329  0.31528  0.73467  1.0000
  H   H2853     1.0  0.60216  0.25570  0.82046  1.0000
  H   H2854     1.0  0.61234  0.27510  0.91314  1.0000
  C   C3575     1.0  0.49954  0.36967  0.86837  1.0000
  H   H2855     1.0  0.73158  0.23795  0.67856  1.0000
  S   S480      1.0  0.73089  0.23864  0.90094  1.0000
  C   C3576     1.0  0.51738  0.38068  0.89483  1.0000
  C   C3577     1.0  0.79402  0.33024  0.66646  1.0000
  C   C3578     1.0  0.66268  0.25752  0.86419  1.0000
  C   C3579     1.0  0.64483  0.26063  0.83817  1.0000
  C   C3580     1.0  0.59132  0.24936  0.83133  1.0000
  S   S481      1.0  0.50621  0.32226  0.86698  1.0000
  C   C3581     1.0  0.97997  0.39846  0.69848  1.0000
  C   C3582     1.0  0.64197  0.26840  0.93449  1.0000
  C   C3583     1.0  0.52423  0.36526  0.96146  1.0000
  C   C3584     1.0  0.71880  0.24831  0.94720  1.0000
  C   C3585     1.0  0.58073  0.23711  0.82652  1.0000
  H   H2856     1.0  0.57971  0.30157  0.68438  1.0000
  C   C3586     1.0  0.59853  0.38500  0.65079  1.0000
  C   C3587     1.0  0.76779  0.31580  0.66205  1.0000
  C   C3588     1.0  0.57345  0.24585  0.86392  1.0000
  C   C3589     1.0  0.97545  0.40308  0.71721  1.0000
  H   H2857     1.0  0.59236  0.32759  0.69330  1.0000
  H   H2858     1.0  0.71247  0.32539  0.66806  1.0000
  C   C3590     1.0  0.98388  0.28804  0.72300  1.0000
  H   H2859     1.0  0.56242  0.23542  0.94734  1.0000
  H   H2860     1.0  0.98620  0.40679  0.72383  1.0000
  H   H2861     1.0  0.97190  0.33381  0.73298  1.0000
  C   C3591     1.0  0.62617  0.39683  0.65598  1.0000
  C   C3592     1.0  0.70028  0.24757  0.95787  1.0000
  H   H2862     1.0  0.68880  0.25982  0.95591  1.0000
  H   H2863     1.0  0.98832  0.36166  0.68886  1.0000
  S   S482      1.0  0.73364  0.28497  0.66373  1.0000
  H   H2864     1.0  0.81845  0.27620  0.86746  1.0000
  H   H2865     1.0  0.50225  0.41160  0.92962  1.0000
  H   H2866     1.0  0.83561  0.25362  0.84535  1.0000
  H   H2867     1.0  0.61202  0.24089  0.89196  1.0000
  C   C3593     1.0  0.60733  0.24685  0.92890  1.0000
  H   H2868     1.0  0.59869  0.24481  0.68790  1.0000
  C   C3594     1.0  0.62576  0.24165  0.69789  1.0000
  H   H2869     1.0  0.53095  0.35223  0.96983  1.0000
  H   H2870     1.0  0.63447  0.40841  0.65389  1.0000
  H   H2871     1.0  0.98815  0.25500  0.69842  1.0000
  S   S483      1.0  0.65558  0.24056  0.74670  1.0000
  S   S484      1.0  0.61156  0.31606  0.97898  1.0000
  C   C3595     1.0  0.53341  0.23662  0.80442  1.0000
  H   H2872     1.0  0.72658  0.23949  0.71348  1.0000
  C   C3596     1.0  0.71291  0.23465  0.87190  1.0000
  C   C3597     1.0  0.59302  0.23572  0.93825  1.0000
  S   S485      1.0  0.81960  0.23940  0.64743  1.0000
  H   H2873     1.0  0.65843  0.34613  0.64757  1.0000
  H   H2874     1.0  0.67274  0.23814  0.90649  1.0000
  C   C3598     1.0  0.48969  0.37090  0.88713  1.0000
  Fe  Fe240     1.0  0.62734  0.23998  0.76671  1.0000
  C   C3599     1.0  0.81647  0.23926  0.72475  1.0000
  C   C3600     1.0  0.80051  0.23926  0.69797  1.0000
  H   H2875     1.0  0.65416  0.23584  0.70527  1.0000
  H   H2876     1.0  0.91830  0.24010  0.67950  1.0000
  H   H2877     1.0  0.75462  0.23775  0.78767  1.0000
  C   C3601     1.0  0.90186  0.23930  0.65762  1.0000
  C   C3602     1.0  0.57344  0.24403  0.94009  1.0000
  H   H2878     1.0  0.78502  0.25930  0.97877  1.0000
  H   H2879     1.0  0.80480  0.23357  0.96186  1.0000
  C   C3603     1.0  0.81566  0.23379  0.89877  1.0000
  H   H2880     1.0  0.84542  0.23344  0.67525  1.0000
  C   C3604     1.0  0.56280  0.23359  0.85917  1.0000
  H   H2881     1.0  0.58389  0.23389  0.81195  1.0000
  C   C3605     1.0  0.60922  0.39993  0.64810  1.0000
  H   H2882     1.0  0.67794  0.59920  0.07463  1.0000
  S   S486      1.0  0.86741  0.72507  0.27491  1.0000
  Fe  Fe241     1.0  0.82717  0.71580  0.17766  1.0000
  S   S487      1.0  0.83877  0.71524  0.14621  1.0000
  Fe  Fe242     1.0  0.85989  0.68558  0.19026  1.0000
  S   S488      1.0  0.87416  0.68249  0.15983  1.0000
  S   S489      1.0  0.87034  0.66836  0.21720  1.0000
  Fe  Fe243     1.0  0.86792  0.71517  0.15420  1.0000
  Fe  Fe244     1.0  0.84367  0.68276  0.15495  1.0000
  S   S490      1.0  0.83606  0.66296  0.13685  1.0000
  S   S491      1.0  0.83021  0.68364  0.18585  1.0000
  C   C3606     1.0  0.79514  0.64050  0.29494  1.0000
  H   H2883     1.0  0.66262  0.54327  0.12991  1.0000
  Fe  Fe245     1.0  0.51274  0.58936  0.10701  1.0000
  S   S492      1.0  0.52576  0.60536  0.07869  1.0000
  S   S493      1.0  0.52275  0.55775  0.11850  1.0000
  Fe  Fe246     1.0  0.52669  0.62818  0.09617  1.0000
  S   S494      1.0  0.55508  0.63767  0.09751  1.0000
  H   H2884     1.0  0.54321  0.50385  0.09027  1.0000
  S   S495      1.0  0.51473  0.61140  0.12454  1.0000
  C   C3607     1.0  0.68277  0.57554  0.27975  1.0000
  Fe  Fe247     1.0  0.61261  0.70753  0.28389  1.0000
  S   S496      1.0  0.61455  0.69049  0.26025  1.0000
  C   C3608     1.0  0.74604  0.50098  0.23893  1.0000
  S   S497      1.0  0.59894  0.70440  0.15369  1.0000
  Fe  Fe248     1.0  0.63098  0.70329  0.14861  1.0000
  S   S498      1.0  0.64830  0.67721  0.16410  1.0000
  Fe  Fe249     1.0  0.76482  0.58403  0.15098  1.0000
  S   S499      1.0  0.74140  0.60867  0.15723  1.0000
  S   S500      1.0  0.79646  0.58768  0.14706  1.0000
  Fe  Fe250     1.0  0.73534  0.55649  0.15266  1.0000
  S   S501      1.0  0.71018  0.57960  0.15981  1.0000
  S   S502      1.0  0.72805  0.52631  0.15358  1.0000
  Fe  Fe251     1.0  0.72636  0.59935  0.13689  1.0000
  S   S503      1.0  0.70932  0.62052  0.11619  1.0000
  Fe  Fe252     1.0  0.72757  0.58656  0.17950  1.0000
  S   S504      1.0  0.71371  0.59626  0.20771  1.0000
  S   S505      1.0  0.75102  0.57606  0.12841  1.0000
  S   S506      1.0  0.75179  0.56200  0.17461  1.0000
  C   C3609     1.0  0.79873  0.51177  0.30848  1.0000
  S   S507      1.0  0.73937  0.55819  0.28769  1.0000
  H   H2885     1.0  0.66842  0.59335  0.25738  1.0000
  H   H2886     1.0  0.69641  0.68093  0.14462  1.0000
  H   H2887     1.0  0.53130  0.49493  0.03612  1.0000
  C   C3610     1.0  0.53797  0.71190  0.19614  1.0000
  Fe  Fe253     1.0  0.62240  0.48592  0.09264  1.0000
  H   H2888     1.0  0.50550  0.52349  0.03641  1.0000
  C   C3611     1.0  0.71483  0.51850  0.13858  1.0000
  C   C3612     1.0  0.69858  0.50955  0.14705  1.0000
  C   C3613     1.0  0.69042  0.49945  0.13642  1.0000
  C   C3614     1.0  0.69852  0.49799  0.11714  1.0000
  C   C3615     1.0  0.71439  0.50738  0.10857  1.0000
  C   C3616     1.0  0.72248  0.51751  0.11915  1.0000
  H   H2889     1.0  0.69256  0.50993  0.16208  1.0000
  C   C3617     1.0  0.78996  0.71153  0.25023  1.0000
  C   C3618     1.0  0.83301  0.50384  0.27877  1.0000
  H   H2890     1.0  0.73534  0.52363  0.11248  1.0000
  C   C3619     1.0  0.72354  0.58487  0.22844  1.0000
  C   C3620     1.0  0.72934  0.59608  0.23949  1.0000
  C   C3621     1.0  0.73478  0.58775  0.25742  1.0000
  C   C3622     1.0  0.73413  0.56826  0.26456  1.0000
  C   C3623     1.0  0.72878  0.55688  0.25334  1.0000
  C   C3624     1.0  0.72345  0.56521  0.23527  1.0000
  H   H2891     1.0  0.72944  0.61126  0.23438  1.0000
  H   H2892     1.0  0.73929  0.59648  0.26580  1.0000
  H   H2893     1.0  0.72819  0.54180  0.25893  1.0000
  H   H2894     1.0  0.71835  0.55672  0.22703  1.0000
  C   C3625     1.0  0.66512  0.66198  0.15015  1.0000
  C   C3626     1.0  0.66553  0.66352  0.13027  1.0000
  C   C3627     1.0  0.67934  0.65098  0.11969  1.0000
  C   C3628     1.0  0.69256  0.63684  0.12903  1.0000
  C   C3629     1.0  0.69211  0.63549  0.14883  1.0000
  C   C3630     1.0  0.67857  0.64813  0.15929  1.0000
  H   H2895     1.0  0.65522  0.67431  0.12310  1.0000
  H   H2896     1.0  0.67974  0.65216  0.10432  1.0000
  H   H2897     1.0  0.70215  0.62469  0.15620  1.0000
  H   H2898     1.0  0.67880  0.64738  0.17447  1.0000
  C   C3631     1.0  0.60399  0.70416  0.24067  1.0000
  C   C3632     1.0  0.60241  0.71032  0.20639  1.0000
  C   C3633     1.0  0.61022  0.69911  0.22229  1.0000
  H   H2899     1.0  0.60770  0.70655  0.19219  1.0000
  H   H2900     1.0  0.62164  0.68699  0.22018  1.0000
  C   C3634     1.0  0.54557  0.54588  0.10826  1.0000
  C   C3635     1.0  0.55481  0.52912  0.11887  1.0000
  C   C3636     1.0  0.57275  0.51916  0.11085  1.0000
  C   C3637     1.0  0.58132  0.52564  0.09193  1.0000
  C   C3638     1.0  0.57197  0.54227  0.08128  1.0000
  C   C3639     1.0  0.55429  0.55243  0.08944  1.0000
  H   H2901     1.0  0.54814  0.52390  0.13342  1.0000
  C   C3640     1.0  0.67993  0.60922  0.29486  1.0000
  H   H2902     1.0  0.57848  0.54737  0.06663  1.0000
  H   H2903     1.0  0.54724  0.56513  0.08100  1.0000
  C   C3641     1.0  0.55970  0.65983  0.10167  1.0000
  C   C3642     1.0  0.57457  0.65949  0.11207  1.0000
  C   C3643     1.0  0.58028  0.67670  0.11382  1.0000
  C   C3644     1.0  0.57155  0.69446  0.10464  1.0000
  C   C3645     1.0  0.55660  0.69482  0.09437  1.0000
  C   C3646     1.0  0.55048  0.67764  0.09313  1.0000
  H   H2904     1.0  0.58199  0.64582  0.11857  1.0000
  H   H2905     1.0  0.59190  0.67617  0.12164  1.0000
  H   H2906     1.0  0.53938  0.67811  0.08468  1.0000
  S   S508      1.0  0.60362  0.51367  0.08083  1.0000
  C   C3647     1.0  0.82408  0.64242  0.14115  1.0000
  C   C3648     1.0  0.83192  0.62791  0.12994  1.0000
  C   C3649     1.0  0.82325  0.61149  0.13210  1.0000
  C   C3650     1.0  0.80595  0.60946  0.14492  1.0000
  C   C3651     1.0  0.79762  0.62413  0.15601  1.0000
  C   C3652     1.0  0.80672  0.64053  0.15415  1.0000
  H   H2907     1.0  0.84505  0.62925  0.11958  1.0000
  H   H2908     1.0  0.82993  0.60037  0.12350  1.0000
  H   H2909     1.0  0.78431  0.62280  0.16604  1.0000
  H   H2910     1.0  0.80004  0.65200  0.16223  1.0000
  C   C3653     1.0  0.86720  0.70959  0.25894  1.0000
  C   C3654     1.0  0.86106  0.69174  0.26577  1.0000
  C   C3655     1.0  0.86199  0.67902  0.25294  1.0000
  C   C3656     1.0  0.86901  0.68421  0.23327  1.0000
  C   C3657     1.0  0.87498  0.70211  0.22648  1.0000
  C   C3658     1.0  0.87388  0.71486  0.23926  1.0000
  H   H2911     1.0  0.85556  0.68768  0.28092  1.0000
  H   H2912     1.0  0.85723  0.66523  0.25826  1.0000
  H   H2913     1.0  0.88099  0.70594  0.21143  1.0000
  H   H2914     1.0  0.97514  0.69475  0.29214  1.0000
  C   C3659     1.0  0.94503  0.68462  0.19768  1.0000
  S   S509      1.0  0.85546  0.71793  0.18498  1.0000
  C   C3660     1.0  0.57383  0.58354  0.11350  1.0000
  C   C3661     1.0  0.58809  0.56710  0.11454  1.0000
  C   C3662     1.0  0.59698  0.56107  0.13090  1.0000
  C   C3663     1.0  0.59165  0.57154  0.14622  1.0000
  C   C3664     1.0  0.57727  0.58807  0.14532  1.0000
  C   C3665     1.0  0.56847  0.59399  0.12880  1.0000
  P   P120      1.0  0.57100  0.60201  0.16481  1.0000
  C   C3666     1.0  0.57280  0.58529  0.18717  1.0000
  C   C3667     1.0  0.58725  0.61923  0.16141  1.0000
  C   C3668     1.0  0.58249  0.63459  0.17194  1.0000
  C   C3669     1.0  0.59523  0.64769  0.16969  1.0000
  C   C3670     1.0  0.61255  0.64581  0.15665  1.0000
  C   C3671     1.0  0.61733  0.63067  0.14606  1.0000
  C   C3672     1.0  0.60480  0.61737  0.14847  1.0000
  C   C3673     1.0  0.56553  0.56791  0.19023  1.0000
  H   H2915     1.0  0.71529  0.49448  0.18310  1.0000
  H   H2916     1.0  0.70869  0.63717  0.22061  1.0000
  C   C3674     1.0  0.58372  0.57570  0.21828  1.0000
  C   C3675     1.0  0.58200  0.58905  0.20130  1.0000
  C   C3676     1.0  0.54649  0.61503  0.16513  1.0000
  C   C3677     1.0  0.53067  0.60737  0.17690  1.0000
  H   H2917     1.0  0.79863  0.66937  0.28095  1.0000
  C   C3678     1.0  0.50853  0.63476  0.16365  1.0000
  C   C3679     1.0  0.52417  0.64256  0.15201  1.0000
  C   C3680     1.0  0.54304  0.63279  0.15282  1.0000
  H   H2918     1.0  0.56677  0.58817  0.10088  1.0000
  H   H2919     1.0  0.59215  0.55894  0.10272  1.0000
  H   H2920     1.0  0.60790  0.54819  0.13168  1.0000
  H   H2921     1.0  0.59862  0.56666  0.15882  1.0000
  H   H2922     1.0  0.55735  0.60657  0.12771  1.0000
  H   H2923     1.0  0.56902  0.63633  0.18199  1.0000
  H   H2924     1.0  0.59175  0.65939  0.17798  1.0000
  H   H2925     1.0  0.62228  0.65613  0.15467  1.0000
  H   H2926     1.0  0.63080  0.62932  0.13597  1.0000
  H   H2927     1.0  0.60884  0.60574  0.14018  1.0000
  H   H2928     1.0  0.55855  0.56460  0.17943  1.0000
  H   H2929     1.0  0.63265  0.56483  0.14634  1.0000
  H   H2930     1.0  0.58799  0.60215  0.19929  1.0000
  H   H2931     1.0  0.53271  0.59367  0.18640  1.0000
  C   C3681     1.0  0.97048  0.66037  0.25484  1.0000
  H   H2932     1.0  0.49878  0.54236  0.06325  1.0000
  H   H2933     1.0  0.52171  0.65582  0.14180  1.0000
  H   H2934     1.0  0.55489  0.63877  0.14330  1.0000
  C   C3682     1.0  0.64030  0.64126  0.09155  1.0000
  C   C3683     1.0  0.67309  0.61027  0.27752  1.0000
  H   H2935     1.0  0.67891  0.62212  0.30099  1.0000
  H   H2936     1.0  0.59785  0.62635  0.09222  1.0000
  C   C3684     1.0  0.70795  0.58832  0.07578  1.0000
  C   C3685     1.0  0.70336  0.66458  0.20223  1.0000
  S   S510      1.0  0.87745  0.67946  0.31291  1.0000
  C   C3686     1.0  0.90507  0.65537  0.26575  1.0000
  C   C3687     1.0  0.90077  0.63838  0.26219  1.0000
  C   C3688     1.0  0.90393  0.62120  0.27528  1.0000
  C   C3689     1.0  0.58955  0.72016  0.24321  1.0000
  C   C3690     1.0  0.65071  0.71600  0.22065  1.0000
  C   C3691     1.0  0.69881  0.64392  0.26158  1.0000
  H   H2937     1.0  0.82951  0.51242  0.17206  1.0000
  H   H2938     1.0  0.90227  0.66875  0.25581  1.0000
  H   H2939     1.0  0.89454  0.63869  0.24946  1.0000
  H   H2940     1.0  0.90009  0.60836  0.27235  1.0000
  H   H2941     1.0  0.49204  0.62686  0.00636  1.0000
  C   C3692     1.0  0.98570  0.64237  0.29627  1.0000
  C   C3693     1.0  0.78444  0.50855  0.16571  1.0000
  H   H2942     1.0  0.97501  0.68769  0.18893  1.0000
  C   C3694     1.0  0.52820  0.50266  0.04822  1.0000
  C   C3695     1.0  0.74743  0.67797  0.30181  1.0000
  C   C3696     1.0  0.75649  0.69857  0.17075  1.0000
  C   C3697     1.0  0.50699  0.70794  0.13884  1.0000
  C   C3698     1.0  0.64094  0.65198  0.29582  1.0000
  C   C3699     1.0  0.50259  0.59646  0.01297  1.0000
  H   H2943     1.0  0.79200  0.71629  0.12505  1.0000
  H   H2944     1.0  0.62684  0.56760  0.18095  1.0000
  H   H2945     1.0  0.56160  0.54123  0.20948  1.0000
  C   C3700     1.0  0.69554  0.57021  0.11334  1.0000
  C   C3701     1.0  0.85182  0.49705  0.22458  1.0000
  C   C3702     1.0  0.75248  0.51546  0.22434  1.0000
  C   C3703     1.0  0.71429  0.70218  0.14381  1.0000
  C   C3704     1.0  0.78655  0.71368  0.29495  1.0000
  C   C3705     1.0  0.77843  0.48592  0.29040  1.0000
  C   C3706     1.0  0.58062  0.48523  0.05121  1.0000
  H   H2946     1.0  0.80519  0.51547  0.21979  1.0000
  C   C3707     1.0  0.90660  0.57104  0.29167  1.0000
  H   H2947     1.0  0.71279  0.59538  0.06127  1.0000
  C   C3708     1.0  0.95736  0.64698  0.23277  1.0000
  H   H2948     1.0  0.94518  0.64598  0.22632  1.0000
  C   C3709     1.0  0.49464  0.57635  0.99318  1.0000
  C   C3710     1.0  0.65056  0.52829  0.11332  1.0000
  H   H2949     1.0  0.92051  0.63863  0.30882  1.0000
  H   H2950     1.0  0.72508  0.67661  0.28625  1.0000
  H   H2951     1.0  0.72710  0.72723  0.14390  1.0000
  C   C3711     1.0  0.77987  0.68171  0.24809  1.0000
  H   H2952     1.0  0.77011  0.49557  0.30006  1.0000
  C   C3712     1.0  0.78193  0.71150  0.13775  1.0000
  H   H2953     1.0  0.79562  0.61167  0.31105  1.0000
  C   C3713     1.0  0.50941  0.70724  0.11914  1.0000
  C   C3714     1.0  0.78250  0.52330  0.14982  1.0000
  C   C3715     1.0  0.79724  0.53424  0.14229  1.0000
  C   C3716     1.0  0.92568  0.71061  0.27425  1.0000
  H   H2954     1.0  0.52501  0.71217  0.23835  1.0000
  H   H2955     1.0  0.74424  0.52993  0.22300  1.0000
  C   C3717     1.0  0.53138  0.71247  0.25076  1.0000
  H   H2956     1.0  0.77439  0.52299  0.20048  1.0000
  C   C3718     1.0  0.53884  0.49666  0.06352  1.0000
  H   H2957     1.0  0.73942  0.62580  0.19988  1.0000
  H   H2958     1.0  0.49462  0.70502  0.26217  1.0000
  C   C3719     1.0  0.84408  0.51844  0.27028  1.0000
  C   C3720     1.0  0.83376  0.50891  0.22680  1.0000
  H   H2959     1.0  0.49961  0.61111  0.18501  1.0000
  C   C3721     1.0  0.58805  0.72642  0.20891  1.0000
  C   C3722     1.0  0.89559  0.55805  0.28890  1.0000
  H   H2960     1.0  0.91541  0.66848  0.28537  1.0000
  H   H2961     1.0  0.76933  0.52663  0.14362  1.0000
  H   H2962     1.0  0.79545  0.54612  0.13039  1.0000
  C   C3723     1.0  0.54751  0.69870  0.25486  1.0000
  S   S511      1.0  0.73069  0.61225  0.30045  1.0000
  H   H2963     1.0  0.74680  0.69367  0.18366  1.0000
  C   C3724     1.0  0.79885  0.67443  0.24043  1.0000
  C   C3725     1.0  0.81338  0.68561  0.23760  1.0000
  C   C3726     1.0  0.80902  0.70408  0.24252  1.0000
  H   H2964     1.0  0.96824  0.66973  0.26546  1.0000
  C   C3727     1.0  0.71402  0.64642  0.20757  1.0000
  H   H2965     1.0  0.59750  0.52599  0.02635  1.0000
  H   H2966     1.0  0.65471  0.51423  0.12167  1.0000
  C   C3728     1.0  0.79669  0.48913  0.28006  1.0000
  H   H2967     1.0  0.80236  0.65996  0.23713  1.0000
  H   H2968     1.0  0.82812  0.67991  0.23174  1.0000
  S   S512      1.0  0.59317  0.70262  0.31242  1.0000
  H   H2969     1.0  0.55558  0.71365  0.29433  1.0000
  C   C3729     1.0  0.68081  0.70958  0.13885  1.0000
  H   H2970     1.0  0.66689  0.60760  0.16900  1.0000
  H   H2971     1.0  0.92051  0.57211  0.28254  1.0000
  C   C3730     1.0  0.72828  0.67867  0.29976  1.0000
  C   C3731     1.0  0.92663  0.70091  0.29311  1.0000
  C   C3732     1.0  0.92774  0.68991  0.20989  1.0000
  H   H2972     1.0  0.55371  0.68809  0.24551  1.0000
  H   H2973     1.0  0.83119  0.52045  0.23518  1.0000
  H   H2974     1.0  0.56848  0.70261  0.18796  1.0000
  H   H2975     1.0  0.70125  0.69030  0.18122  1.0000
  C   C3733     1.0  0.96159  0.69189  0.19834  1.0000
  C   C3734     1.0  0.79755  0.53102  0.26806  1.0000
  C   C3735     1.0  0.72143  0.57687  0.08678  1.0000
  H   H2976     1.0  0.75089  0.64617  0.16955  1.0000
  H   H2977     1.0  0.59081  0.57867  0.22915  1.0000
  C   C3736     1.0  0.73128  0.64002  0.19586  1.0000
  C   C3737     1.0  0.79272  0.56601  0.25947  1.0000
  C   C3738     1.0  0.78250  0.56511  0.24507  1.0000
  C   C3739     1.0  0.77968  0.54725  0.24216  1.0000
  C   C3740     1.0  0.78703  0.53025  0.25369  1.0000
  H   H2978     1.0  0.55005  0.70846  0.08690  1.0000
  C   C3741     1.0  0.49001  0.64356  0.21127  1.0000
  H   H2979     1.0  0.91341  0.70692  0.23172  1.0000
  H   H2980     1.0  0.94096  0.66793  0.25011  1.0000
  P   P121      1.0  0.80675  0.50921  0.28339  1.0000
  H   H2981     1.0  0.97373  0.71210  0.25884  1.0000
  H   H2982     1.0  0.79435  0.57989  0.26215  1.0000
  H   H2983     1.0  0.77621  0.57828  0.23657  1.0000
  H   H2984     1.0  0.77121  0.54673  0.23137  1.0000
  H   H2985     1.0  0.86325  0.49916  0.23148  1.0000
  C   C3742     1.0  0.80578  0.57191  0.19638  1.0000
  C   C3743     1.0  0.82068  0.55604  0.19651  1.0000
  C   C3744     1.0  0.83728  0.55634  0.20389  1.0000
  C   C3745     1.0  0.83897  0.57255  0.21115  1.0000
  C   C3746     1.0  0.82393  0.58847  0.21136  1.0000
  C   C3747     1.0  0.80742  0.58813  0.20363  1.0000
  P   P122      1.0  0.82757  0.61036  0.21804  1.0000
  C   C3748     1.0  0.80537  0.62749  0.21777  1.0000
  C   C3749     1.0  0.83309  0.60707  0.24220  1.0000
  C   C3750     1.0  0.83484  0.62323  0.24968  1.0000
  C   C3751     1.0  0.83911  0.62108  0.26828  1.0000
  C   C3752     1.0  0.84116  0.60287  0.27980  1.0000
  C   C3753     1.0  0.83893  0.58679  0.27272  1.0000
  C   C3754     1.0  0.83490  0.58883  0.25400  1.0000
  C   C3755     1.0  0.80338  0.64317  0.20266  1.0000
  C   C3756     1.0  0.78567  0.65563  0.20215  1.0000
  C   C3757     1.0  0.76981  0.65247  0.21665  1.0000
  C   C3758     1.0  0.77179  0.63704  0.23191  1.0000
  C   C3759     1.0  0.78951  0.62466  0.23253  1.0000
  C   C3760     1.0  0.84688  0.61878  0.19979  1.0000
  C   C3761     1.0  0.84715  0.61780  0.18032  1.0000
  C   C3762     1.0  0.86217  0.62380  0.16605  1.0000
  C   C3763     1.0  0.87699  0.63090  0.17101  1.0000
  C   C3764     1.0  0.87696  0.63175  0.19030  1.0000
  C   C3765     1.0  0.86205  0.62566  0.20468  1.0000
  H   H2986     1.0  0.79324  0.57201  0.18995  1.0000
  H   H2987     1.0  0.84911  0.54428  0.20340  1.0000
  H   H2988     1.0  0.85227  0.57297  0.21602  1.0000
  H   H2989     1.0  0.79602  0.60053  0.20249  1.0000
  H   H2990     1.0  0.83309  0.63753  0.24106  1.0000
  H   H2991     1.0  0.84051  0.63361  0.27391  1.0000
  H   H2992     1.0  0.84413  0.60135  0.29435  1.0000
  H   H2993     1.0  0.84016  0.57279  0.28187  1.0000
  H   H2994     1.0  0.83295  0.57622  0.24900  1.0000
  H   H2995     1.0  0.81544  0.64583  0.19124  1.0000
  H   H2996     1.0  0.78434  0.66774  0.19047  1.0000
  H   H2997     1.0  0.75610  0.66208  0.21616  1.0000
  H   H2998     1.0  0.75972  0.63473  0.24345  1.0000
  H   H2999     1.0  0.79082  0.61294  0.24458  1.0000
  H   H3000     1.0  0.83566  0.61261  0.17607  1.0000
  H   H3001     1.0  0.86214  0.62338  0.15103  1.0000
  H   H3002     1.0  0.88831  0.63603  0.15983  1.0000
  H   H3003     1.0  0.88832  0.63754  0.19412  1.0000
  H   H3004     1.0  0.86252  0.62660  0.21942  1.0000
  C   C3766     1.0  0.64023  0.57411  0.15115  1.0000
  C   C3767     1.0  0.66275  0.59665  0.14450  1.0000
  H   H3005     1.0  0.62269  0.65492  0.21352  1.0000
  H   H3006     1.0  0.78412  0.51665  0.25160  1.0000
  C   C3768     1.0  0.62416  0.63226  0.28323  1.0000
  H   H3007     1.0  0.73672  0.57511  0.08086  1.0000
  C   C3769     1.0  0.53497  0.50756  0.07856  1.0000
  C   C3770     1.0  0.50987  0.52960  0.06332  1.0000
  H   H3008     1.0  0.78611  0.63890  0.11734  1.0000
  C   C3771     1.0  0.51179  0.61724  0.17616  1.0000
  C   C3772     1.0  0.51368  0.51897  0.04822  1.0000
  C   C3773     1.0  0.76657  0.70297  0.13596  1.0000
  C   C3774     1.0  0.94530  0.56849  0.31139  1.0000
  C   C3775     1.0  0.82204  0.49106  0.20727  1.0000
  C   C3776     1.0  0.71438  0.72201  0.14243  1.0000
  C   C3777     1.0  0.55604  0.69891  0.27075  1.0000
  C   C3778     1.0  0.54862  0.71309  0.28235  1.0000
  H   H3009     1.0  0.82390  0.67154  0.29936  1.0000
  C   C3779     1.0  0.93954  0.58863  0.30864  1.0000
  C   C3780     1.0  0.65488  0.54481  0.11799  1.0000
  H   H3010     1.0  0.65650  0.70072  0.22240  1.0000
  C   C3781     1.0  0.80334  0.65731  0.29155  1.0000
  H   H3011     1.0  0.72550  0.55850  0.11389  1.0000
  C   C3782     1.0  0.52054  0.52391  0.07844  1.0000
  C   C3783     1.0  0.73768  0.65159  0.17853  1.0000
  S   S513      1.0  0.57941  0.71643  0.10473  1.0000
  P   P123      1.0  0.49291  0.69690  0.17783  1.0000
  H   H3012     1.0  0.58460  0.72408  0.25739  1.0000
  C   C3784     1.0  0.68830  0.59151  0.30442  1.0000
  H   H3013     1.0  0.66782  0.70479  0.13749  1.0000
  S   S514      1.0  0.63286  0.71721  0.11733  1.0000
  H   H3014     1.0  0.69103  0.56289  0.12783  1.0000
  C   C3785     1.0  0.57634  0.55850  0.22126  1.0000
  C   C3786     1.0  0.77544  0.70015  0.25309  1.0000
  H   H3015     1.0  0.67839  0.49212  0.14338  1.0000
  H   H3016     1.0  0.78925  0.70075  0.28861  1.0000
  P   P124      1.0  0.73475  0.68435  0.15002  1.0000
  H   H3017     1.0  0.83392  0.54292  0.30157  1.0000
  H   H3018     1.0  0.76879  0.67274  0.25076  1.0000
  S   S515      1.0  0.77402  0.58520  0.30212  1.0000
  C   C3787     1.0  0.80010  0.54908  0.27101  1.0000
  H   H3019     1.0  0.73280  0.50427  0.24897  1.0000
  H   H3020     1.0  0.81957  0.54380  0.19030  1.0000
  C   C3788     1.0  0.91553  0.63815  0.29560  1.0000
  H   H3021     1.0  0.64663  0.65430  0.08845  1.0000
  S   S516      1.0  0.63941  0.70610  0.29611  1.0000
  C   C3789     1.0  0.59771  0.51105  0.03310  1.0000
  C   C3790     1.0  0.94442  0.69523  0.29955  1.0000
  C   C3791     1.0  0.94318  0.71101  0.22241  1.0000
  C   C3792     1.0  0.62116  0.64224  0.08924  1.0000
  Fe  Fe254     1.0  0.76078  0.61622  0.30174  1.0000
  H   H3022     1.0  0.49529  0.56209  0.99001  1.0000
  C   C3793     1.0  0.91254  0.65521  0.28238  1.0000
  C   C3794     1.0  0.71517  0.56766  0.10545  1.0000
  Fe  Fe255     1.0  0.60018  0.72048  0.12343  1.0000
  H   H3023     1.0  0.51782  0.53234  0.09002  1.0000
  H   H3024     1.0  0.77407  0.70881  0.18655  1.0000
  H   H3025     1.0  0.82546  0.53880  0.14450  1.0000
  H   H3026     1.0  0.77248  0.50080  0.17177  1.0000
  H   H3027     1.0  0.57768  0.54816  0.23442  1.0000
  H   H3028     1.0  0.71456  0.68721  0.25130  1.0000
  H   H3029     1.0  0.51036  0.56554  0.01697  1.0000
  C   C3795     1.0  0.64081  0.64018  0.28243  1.0000
  C   C3796     1.0  0.55408  0.70109  0.18650  1.0000
  C   C3797     1.0  0.64112  0.56425  0.09065  1.0000
  H   H3030     1.0  0.63818  0.57782  0.08109  1.0000
  C   C3798     1.0  0.81758  0.65857  0.30205  1.0000
  C   C3799     1.0  0.69722  0.69612  0.14242  1.0000
  H   H3031     1.0  0.94558  0.67486  0.18774  1.0000
  C   C3800     1.0  0.51671  0.69801  0.18214  1.0000
  H   H3032     1.0  0.70455  0.62863  0.26419  1.0000
  H   H3033     1.0  0.73793  0.70891  0.09432  1.0000
  C   C3801     1.0  0.65323  0.58455  0.13791  1.0000
  H   H3034     1.0  0.67279  0.60489  0.13449  1.0000
  C   C3802     1.0  0.96045  0.70922  0.26830  1.0000
  H   H3035     1.0  0.63827  0.51696  0.09374  1.0000
  H   H3036     1.0  0.56413  0.68115  0.16636  1.0000
  H   H3037     1.0  0.74442  0.48709  0.19844  1.0000
  C   C3803     1.0  0.92688  0.70291  0.22235  1.0000
  C   C3804     1.0  0.61536  0.49854  0.03361  1.0000
  C   C3805     1.0  0.89976  0.58248  0.30621  1.0000
  C   C3806     1.0  0.53306  0.68720  0.17249  1.0000
  H   H3038     1.0  0.61266  0.65601  0.08423  1.0000
  H   H3039     1.0  0.69683  0.56106  0.30395  1.0000
  H   H3040     1.0  0.68989  0.66941  0.21127  1.0000
  C   C3807     1.0  0.64642  0.58783  0.17721  1.0000
  C   C3808     1.0  0.64973  0.56301  0.10697  1.0000
  H   H3041     1.0  0.62400  0.62260  0.27344  1.0000
  C   C3809     1.0  0.63663  0.54771  0.08618  1.0000
  H   H3042     1.0  0.64570  0.63647  0.19043  1.0000
  H   H3043     1.0  0.87866  0.72860  0.23396  1.0000
  C   C3810     1.0  0.96075  0.70490  0.21081  1.0000
  H   H3044     1.0  0.79649  0.72015  0.15730  1.0000
  C   C3811     1.0  0.68822  0.59065  0.08351  1.0000
  C   C3812     1.0  0.51931  0.71037  0.19406  1.0000
  C   C3813     1.0  0.55163  0.68886  0.17455  1.0000
  S   S517      1.0  0.49739  0.64412  0.09068  1.0000
  C   C3814     1.0  0.70981  0.67628  0.18501  1.0000
  H   H3045     1.0  0.86920  0.54628  0.29845  1.0000
  H   H3046     1.0  0.77451  0.53474  0.30319  1.0000
  H   H3047     1.0  0.90111  0.54894  0.27796  1.0000
  H   H3048     1.0  0.64392  0.58907  0.19237  1.0000
  C   C3815     1.0  0.97554  0.63617  0.22748  1.0000
  H   H3049     1.0  0.62967  0.65385  0.24611  1.0000
  C   C3816     1.0  0.49305  0.61282  0.00237  1.0000
  H   H3050     1.0  0.67956  0.69888  0.25110  1.0000
  H   H3051     1.0  0.76484  0.70126  0.12175  1.0000
  C   C3817     1.0  0.70466  0.67695  0.25413  1.0000
  H   H3052     1.0  0.82063  0.71233  0.24031  1.0000
  C   C3818     1.0  0.81417  0.53010  0.15031  1.0000
  C   C3819     1.0  0.61280  0.62552  0.09376  1.0000
  C   C3820     1.0  0.64303  0.60656  0.10220  1.0000
  C   C3821     1.0  0.65119  0.62350  0.09807  1.0000
  C   C3822     1.0  0.65936  0.59828  0.16407  1.0000
  C   C3823     1.0  0.64137  0.52978  0.09751  1.0000
  H   H3053     1.0  0.50892  0.59794  0.02506  1.0000
  H   H3054     1.0  0.57989  0.50649  0.11925  1.0000
  H   H3055     1.0  0.87276  0.52556  0.26086  1.0000
  H   H3056     1.0  0.66589  0.62307  0.10016  1.0000
  C   C3824     1.0  0.63562  0.64586  0.21798  1.0000
  H   H3057     1.0  0.67615  0.61689  0.20000  1.0000
  C   C3825     1.0  0.68194  0.58193  0.10250  1.0000
  H   H3058     1.0  0.50199  0.69440  0.09742  1.0000
  H   H3059     1.0  0.91491  0.68414  0.20953  1.0000
  C   C3826     1.0  0.64861  0.63546  0.20493  1.0000
  H   H3060     1.0  0.71851  0.67310  0.11910  1.0000
  H   H3061     1.0  0.83729  0.53320  0.26654  1.0000
  C   C3827     1.0  0.63685  0.57573  0.17076  1.0000
  C   C3828     1.0  0.67892  0.65044  0.26164  1.0000
  C   C3829     1.0  0.91134  0.62092  0.29214  1.0000
  C   C3830     1.0  0.66979  0.62376  0.22879  1.0000
  H   H3062     1.0  0.68417  0.56248  0.27380  1.0000
  H   H3063     1.0  0.61645  0.59527  0.10486  1.0000
  H   H3064     1.0  0.53151  0.67787  0.16291  1.0000
  C   C3831     1.0  0.75390  0.69623  0.15248  1.0000
  C   C3832     1.0  0.95491  0.65923  0.24629  1.0000
  C   C3833     1.0  0.67416  0.59320  0.27026  1.0000
  C   C3834     1.0  0.68492  0.68353  0.25398  1.0000
  H   H3065     1.0  0.72687  0.65201  0.25823  1.0000
  C   C3835     1.0  0.60774  0.64882  0.30980  1.0000
  C   C3836     1.0  0.74453  0.66896  0.13188  1.0000
  C   C3837     1.0  0.73327  0.66600  0.11905  1.0000
  H   H3066     1.0  0.91171  0.71452  0.26952  1.0000
  C   C3838     1.0  0.62353  0.60783  0.10061  1.0000
  C   C3839     1.0  0.81631  0.51517  0.16603  1.0000
  C   C3840     1.0  0.77187  0.70713  0.17246  1.0000
  P   P125      1.0  0.65656  0.58404  0.11237  1.0000
  H   H3067     1.0  0.97875  0.63446  0.28903  1.0000
  H   H3068     1.0  0.56885  0.68853  0.27367  1.0000
  C   C3841     1.0  0.87754  0.55660  0.30039  1.0000
  C   C3842     1.0  0.50331  0.57823  0.00845  1.0000
  C   C3843     1.0  0.76958  0.51137  0.21143  1.0000
  P   P126      1.0  0.66239  0.63348  0.26566  1.0000
  Fe  Fe256     1.0  0.86132  0.70913  0.30504  1.0000
  H   H3069     1.0  0.77272  0.66098  0.14074  1.0000
  H   H3070     1.0  0.76077  0.70540  0.25949  1.0000
  C   C3844     1.0  0.74102  0.65340  0.10580  1.0000
  C   C3845     1.0  0.87368  0.49528  0.27192  1.0000
  H   H3071     1.0  0.73210  0.65087  0.09626  1.0000
  C   C3846     1.0  0.63961  0.64509  0.23650  1.0000
  C   C3847     1.0  0.71159  0.65715  0.25797  1.0000
  H   H3072     1.0  0.62976  0.54864  0.07375  1.0000
  C   C3848     1.0  0.76368  0.65909  0.13104  1.0000
  C   C3849     1.0  0.96135  0.69928  0.28711  1.0000
  C   C3850     1.0  0.65648  0.63351  0.24226  1.0000
  H   H3073     1.0  0.80729  0.55011  0.28264  1.0000
  H   H3074     1.0  0.70391  0.71745  0.08864  1.0000
  C   C3851     1.0  0.72683  0.66969  0.17278  1.0000
  P   P127      1.0  0.91416  0.59913  0.30991  1.0000
  C   C3852     1.0  0.66574  0.62448  0.21031  1.0000
  C   C3853     1.0  0.67208  0.67033  0.25759  1.0000
  H   H3075     1.0  0.68342  0.61571  0.23249  1.0000
  H   H3076     1.0  0.65682  0.67560  0.25731  1.0000
  H   H3077     1.0  0.51487  0.71712  0.14353  1.0000
  C   C3854     1.0  0.76000  0.64357  0.10524  1.0000
  C   C3855     1.0  0.77137  0.64653  0.11776  1.0000
  H   H3078     1.0  0.97370  0.71044  0.21100  1.0000
  H   H3079     1.0  0.76581  0.63350  0.09524  1.0000
  C   C3856     1.0  0.86431  0.51416  0.26687  1.0000
  S   S518      1.0  0.77655  0.63898  0.28279  1.0000
  H   H3080     1.0  0.62880  0.50373  0.02717  1.0000
  C   C3857     1.0  0.49975  0.69527  0.11268  1.0000
  C   C3858     1.0  0.56727  0.55461  0.20722  1.0000
  H   H3081     1.0  0.56696  0.51450  0.04144  1.0000
  C   C3859     1.0  0.78409  0.73205  0.28351  1.0000
  H   H3082     1.0  0.72092  0.50628  0.09376  1.0000
  H   H3083     1.0  0.64578  0.71709  0.25111  1.0000
  Fe  Fe257     1.0  0.49483  0.61960  0.07638  1.0000
  Fe  Fe258     1.0  0.74372  0.58063  0.30373  1.0000
  H   H3084     1.0  0.49385  0.64203  0.16267  1.0000
  H   H3085     1.0  0.97748  0.62676  0.21689  1.0000
  C   C3860     1.0  0.80131  0.50446  0.17409  1.0000
  C   C3861     1.0  0.94253  0.71543  0.26189  1.0000
  C   C3862     1.0  0.73045  0.72365  0.09411  1.0000
  C   C3863     1.0  0.58037  0.50444  0.04180  1.0000
  C   C3864     1.0  0.81896  0.50596  0.21816  1.0000
  C   C3865     1.0  0.78458  0.71354  0.15597  1.0000
  H   H3086     1.0  0.65409  0.71938  0.18972  1.0000
  C   C3866     1.0  0.68987  0.57470  0.29677  1.0000
  H   H3087     1.0  0.91350  0.69786  0.30287  1.0000
  H   H3088     1.0  0.65379  0.65770  0.29593  1.0000
  C   C3867     1.0  0.78025  0.49255  0.21277  1.0000
  H   H3089     1.0  0.51905  0.71577  0.10889  1.0000
  P   P128      1.0  0.80264  0.48738  0.19635  1.0000
  H   H3090     1.0  0.88935  0.49202  0.26986  1.0000
  C   C3868     1.0  0.84264  0.48491  0.28388  1.0000
  H   H3091     1.0  0.75902  0.67559  0.28985  1.0000
  H   H3092     1.0  0.57496  0.48675  0.09255  1.0000
  C   C3869     1.0  0.64459  0.72518  0.23680  1.0000
  C   C3870     1.0  0.64909  0.72651  0.20224  1.0000
  H   H3093     1.0  0.98318  0.60112  0.30879  1.0000
  H   H3094     1.0  0.51243  0.66005  0.19768  1.0000
  H   H3095     1.0  0.90911  0.72552  0.16892  1.0000
  C   C3871     1.0  0.53259  0.72695  0.27822  1.0000
  C   C3872     1.0  0.60761  0.63676  0.29674  1.0000
  H   H3096     1.0  0.94936  0.61586  0.30619  1.0000
  C   C3873     1.0  0.95342  0.60038  0.30748  1.0000
  C   C3874     1.0  0.49483  0.69665  0.15231  1.0000
  P   P129      1.0  0.94128  0.72870  0.23776  1.0000
  C   C3875     1.0  0.71129  0.72844  0.09090  1.0000
  H   H3097     1.0  0.59472  0.63081  0.29718  1.0000
  C   C3876     1.0  0.80153  0.62484  0.30852  1.0000
  C   C3877     1.0  0.97262  0.59212  0.30901  1.0000
  C   C3878     1.0  0.58139  0.73111  0.22738  1.0000
  H   H3098     1.0  0.68563  0.72227  0.30614  1.0000
  C   C3879     1.0  0.52365  0.72663  0.26249  1.0000
  H   H3099     1.0  0.54013  0.72188  0.20475  1.0000
  H   H3100     1.0  0.50711  0.71917  0.20141  1.0000
  C   C3880     1.0  0.96452  0.56028  0.31288  1.0000
  S   S519      1.0  0.62977  0.73092  0.15928  1.0000
  C   C3881     1.0  0.62444  0.65628  0.30941  1.0000
  C   C3882     1.0  0.97816  0.57211  0.31179  1.0000
  H   H3101     1.0  0.93490  0.55901  0.31309  1.0000
  C   C3883     1.0  0.68100  0.72917  0.13748  1.0000
  H   H3102     1.0  0.49991  0.63140  0.21732  1.0000
  C   C3884     1.0  0.49705  0.65987  0.20011  1.0000
  Fe  Fe259     1.0  0.59780  0.73311  0.16191  1.0000
  C   C3885     1.0  0.98876  0.64945  0.24976  1.0000
  Fe  Fe260     1.0  0.83844  0.71005  0.34495  1.0000
  C   C3886     1.0  0.71758  0.68415  0.33278  1.0000
  Fe  Fe261     1.0  0.88048  0.68954  0.33958  1.0000
  H   H3103     1.0  0.68976  0.64683  0.32192  1.0000
  S   S520      1.0  0.91141  0.68154  0.34470  1.0000
  C   C3887     1.0  0.77539  0.52630  0.33339  1.0000
  C   C3888     1.0  0.87039  0.56825  0.31458  1.0000
  S   S521      1.0  0.86641  0.72017  0.33036  1.0000
  S   S522      1.0  0.85302  0.68023  0.35671  1.0000
  C   C3889     1.0  0.82454  0.58815  0.36878  1.0000
  C   C3890     1.0  0.71014  0.64597  0.38994  1.0000
  Fe  Fe262     1.0  0.96313  0.59173  0.40079  1.0000
  S   S523      1.0  0.93648  0.61266  0.41011  1.0000
  S   S524      1.0  0.97193  0.56331  0.41935  1.0000
  S   S525      1.0  0.95740  0.52547  0.39751  1.0000
  H   H3104     1.0  0.93859  0.53644  0.34544  1.0000
  H   H3105     1.0  0.98470  0.65100  0.34151  1.0000
  H   H3106     1.0  0.87009  0.58615  0.40256  1.0000
  C   C3891     1.0  0.93178  0.49038  0.37584  1.0000
  S   S526      1.0  0.62746  0.68297  0.35102  1.0000
  H   H3107     1.0  0.91859  0.54774  0.37407  1.0000
  S   S527      1.0  0.75597  0.61443  0.33392  1.0000
  H   H3108     1.0  0.78223  0.72694  0.33888  1.0000
  C   C3892     1.0  0.66149  0.71435  0.35220  1.0000
  H   H3109     1.0  0.97412  0.50501  0.43539  1.0000
  S   S528      1.0  0.70130  0.61733  0.35479  1.0000
  Fe  Fe263     1.0  0.76704  0.58283  0.33433  1.0000
  S   S529      1.0  0.78691  0.56604  0.35511  1.0000
  H   H3110     1.0  0.77776  0.69886  0.36386  1.0000
  C   C3893     1.0  0.70005  0.72569  0.42138  1.0000
  C   C3894     1.0  0.80777  0.55134  0.34505  1.0000
  C   C3895     1.0  0.83908  0.52576  0.32882  1.0000
  C   C3896     1.0  0.78466  0.51389  0.34767  1.0000
  C   C3897     1.0  0.81406  0.55399  0.32510  1.0000
  H   H3111     1.0  0.87001  0.50978  0.38460  1.0000
  C   C3898     1.0  0.81595  0.62593  0.31870  1.0000
  C   C3899     1.0  0.64845  0.66510  0.35050  1.0000
  C   C3900     1.0  0.66250  0.66313  0.33389  1.0000
  C   C3901     1.0  0.67896  0.64847  0.33467  1.0000
  C   C3902     1.0  0.68133  0.63596  0.35212  1.0000
  C   C3903     1.0  0.66728  0.63810  0.36853  1.0000
  C   C3904     1.0  0.65096  0.65248  0.36770  1.0000
  H   H3112     1.0  0.87332  0.58404  0.36443  1.0000
  C   C3905     1.0  0.96038  0.49659  0.35277  1.0000
  H   H3113     1.0  0.66894  0.62841  0.38199  1.0000
  H   H3114     1.0  0.64010  0.65373  0.38049  1.0000
  C   C3906     1.0  0.95263  0.51108  0.38199  1.0000
  C   C3907     1.0  0.63786  0.67458  0.42015  1.0000
  H   H3115     1.0  0.85449  0.51113  0.45495  1.0000
  C   C3908     1.0  0.78061  0.68360  0.36344  1.0000
  H   H3116     1.0  0.86834  0.53429  0.35777  1.0000
  C   C3909     1.0  0.93645  0.50160  0.38781  1.0000
  C   C3910     1.0  0.70335  0.65293  0.40733  1.0000
  C   C3911     1.0  0.86933  0.52648  0.40694  1.0000
  C   C3912     1.0  0.79012  0.64430  0.36119  1.0000
  H   H3117     1.0  0.80690  0.56579  0.31586  1.0000
  C   C3913     1.0  0.88373  0.53459  0.35543  1.0000
  Fe  Fe264     1.0  0.97436  0.55056  0.39236  1.0000
  C   C3914     1.0  0.75177  0.67977  0.31946  1.0000
  S   S530      1.0  0.96388  0.57889  0.37461  1.0000
  H   H3118     1.0  0.70545  0.71550  0.43323  1.0000
  H   H3119     1.0  0.84086  0.51164  0.35808  1.0000
  C   C3915     1.0  0.65473  0.67291  0.40644  1.0000
  H   H3120     1.0  0.88911  0.52199  0.32956  1.0000
  C   C3916     1.0  0.91750  0.66164  0.36251  1.0000
  C   C3917     1.0  0.93583  0.65020  0.35958  1.0000
  C   C3918     1.0  0.94160  0.63485  0.37393  1.0000
  C   C3919     1.0  0.92926  0.63129  0.39158  1.0000
  C   C3920     1.0  0.91098  0.64284  0.39458  1.0000
  C   C3921     1.0  0.90495  0.65778  0.37994  1.0000
  H   H3121     1.0  0.94560  0.65332  0.34622  1.0000
  H   H3122     1.0  0.95575  0.62606  0.37154  1.0000
  H   H3123     1.0  0.90145  0.64021  0.40825  1.0000
  H   H3124     1.0  0.89090  0.66673  0.38239  1.0000
  C   C3922     1.0  0.69138  0.73287  0.33018  1.0000
  C   C3923     1.0  0.79912  0.67365  0.36571  1.0000
  H   H3125     1.0  0.92911  0.54806  0.42648  1.0000
  H   H3126     1.0  0.80826  0.49092  0.35351  1.0000
  C   C3924     1.0  0.62807  0.69282  0.42354  1.0000
  H   H3127     1.0  0.96991  0.49441  0.33934  1.0000
  H   H3128     1.0  0.70687  0.63234  0.38817  1.0000
  C   C3925     1.0  0.81784  0.53635  0.35701  1.0000
  S   S531      1.0  0.73754  0.57573  0.33608  1.0000
  S   S532      1.0  0.84183  0.64340  0.32892  1.0000
  P   P130      1.0  0.74228  0.68619  0.35770  1.0000
  H   H3129     1.0  0.76302  0.53700  0.33746  1.0000
  C   C3926     1.0  0.80081  0.50028  0.34246  1.0000
  H   H3130     1.0  0.83487  0.54654  0.39976  1.0000
  H   H3131     1.0  0.88240  0.62764  0.32505  1.0000
  H   H3132     1.0  0.66070  0.67278  0.32051  1.0000
  H   H3133     1.0  0.96868  0.63401  0.32410  1.0000
  C   C3927     1.0  0.82169  0.57166  0.38241  1.0000
  C   C3928     1.0  0.91606  0.55623  0.42145  1.0000
  H   H3134     1.0  0.81308  0.53427  0.37248  1.0000
  H   H3135     1.0  0.77959  0.51518  0.36273  1.0000
  C   C3929     1.0  0.89194  0.54104  0.36875  1.0000
  H   H3136     1.0  0.67477  0.68785  0.38528  1.0000
  C   C3930     1.0  0.77155  0.65416  0.35903  1.0000
  C   C3931     1.0  0.97986  0.64214  0.31613  1.0000
  H   H3137     1.0  0.74818  0.70852  0.38603  1.0000
  H   H3138     1.0  0.88806  0.60052  0.42056  1.0000
  Fe  Fe265     1.0  0.72694  0.60772  0.33286  1.0000
  C   C3932     1.0  0.85531  0.49511  0.43229  1.0000
  C   C3933     1.0  0.73991  0.71188  0.35785  1.0000
  H   H3139     1.0  0.72675  0.65040  0.36162  1.0000
  H   H3140     1.0  0.78876  0.69771  0.32349  1.0000
  C   C3934     1.0  0.83743  0.55948  0.38958  1.0000
  C   C3935     1.0  0.73553  0.72541  0.34152  1.0000
  C   C3936     1.0  0.96943  0.49150  0.43550  1.0000
  H   H3141     1.0  0.70228  0.67584  0.42302  1.0000
  C   C3937     1.0  0.73687  0.68296  0.33507  1.0000
  H   H3142     1.0  0.80986  0.68131  0.36806  1.0000
  C   C3938     1.0  0.65170  0.70785  0.39893  1.0000
  H   H3143     1.0  0.72150  0.69466  0.39638  1.0000
  C   C3939     1.0  0.70752  0.67052  0.40948  1.0000
  H   H3144     1.0  0.64961  0.70734  0.36031  1.0000
  Fe  Fe266     1.0  0.84901  0.67248  0.32905  1.0000
  C   C3940     1.0  0.83350  0.52351  0.34890  1.0000
  H   H3145     1.0  0.76677  0.67842  0.32087  1.0000
  C   C3941     1.0  0.80384  0.65398  0.36473  1.0000
  C   C3942     1.0  0.84313  0.59273  0.36254  1.0000
  H   H3146     1.0  0.73342  0.72082  0.32871  1.0000
  H   H3147     1.0  0.68064  0.70796  0.41775  1.0000
  C   C3943     1.0  0.89292  0.58579  0.41800  1.0000
  C   C3944     1.0  0.90603  0.54797  0.41124  1.0000
  C   C3945     1.0  0.76653  0.67388  0.36033  1.0000
  C   C3946     1.0  0.74360  0.71857  0.37371  1.0000
  H   H3148     1.0  0.81826  0.64633  0.36634  1.0000
  C   C3947     1.0  0.72590  0.67407  0.37683  1.0000
  C   C3948     1.0  0.90952  0.57513  0.42482  1.0000
  C   C3949     1.0  0.92324  0.53599  0.34814  1.0000
  H   H3149     1.0  0.69485  0.64464  0.41912  1.0000
  C   C3950     1.0  0.90915  0.60141  0.36751  1.0000
  C   C3951     1.0  0.89320  0.61596  0.37043  1.0000
  C   C3952     1.0  0.88359  0.62529  0.35510  1.0000
  C   C3953     1.0  0.88997  0.62016  0.33679  1.0000
  C   C3954     1.0  0.90604  0.60564  0.33367  1.0000
  C   C3955     1.0  0.91542  0.59605  0.34926  1.0000
  C   C3956     1.0  0.66173  0.68946  0.39595  1.0000
  C   C3957     1.0  0.78259  0.72830  0.32348  1.0000
  H   H3150     1.0  0.63230  0.66173  0.42803  1.0000
  C   C3958     1.0  0.86678  0.51042  0.39982  1.0000
  H   H3151     1.0  0.84531  0.60560  0.35206  1.0000
  C   C3959     1.0  0.85893  0.58055  0.36962  1.0000
  H   H3152     1.0  0.97727  0.51542  0.35985  1.0000
  H   H3153     1.0  0.66219  0.65879  0.40363  1.0000
  H   H3154     1.0  0.70579  0.68673  0.34457  1.0000
  H   H3155     1.0  0.80726  0.56805  0.38699  1.0000
  C   C3960     1.0  0.91174  0.54229  0.36461  1.0000
  H   H3156     1.0  0.91685  0.59449  0.37936  1.0000
  H   H3157     1.0  0.88842  0.62019  0.38453  1.0000
  H   H3158     1.0  0.87130  0.63669  0.35732  1.0000
  C   C3961     1.0  0.68600  0.72144  0.41250  1.0000
  H   H3159     1.0  0.92776  0.58467  0.34742  1.0000
  H   H3160     1.0  0.92435  0.52254  0.32348  1.0000
  C   C3962     1.0  0.91520  0.52833  0.33570  1.0000
  H   H3161     1.0  0.91131  0.53328  0.40882  1.0000
  H   H3162     1.0  0.79394  0.62919  0.35985  1.0000
  P   P131      1.0  0.87692  0.54749  0.39079  1.0000
  H   H3163     1.0  0.92733  0.50304  0.40159  1.0000
  C   C3963     1.0  0.63501  0.70943  0.41306  1.0000
  C   C3964     1.0  0.89540  0.52785  0.33923  1.0000
  C   C3965     1.0  0.72145  0.65637  0.37483  1.0000
  H   H3164     1.0  0.91744  0.58159  0.43257  1.0000
  H   H3165     1.0  0.76126  0.64638  0.35609  1.0000
  C   C3966     1.0  0.66720  0.71300  0.33266  1.0000
  H   H3166     1.0  0.86628  0.53891  0.43285  1.0000
  C   C3967     1.0  0.85618  0.56384  0.38317  1.0000
  C   C3968     1.0  0.71863  0.68113  0.39427  1.0000
  S   S533      1.0  0.83236  0.70133  0.31868  1.0000
  C   C3969     1.0  0.96462  0.50849  0.36438  1.0000
  H   H3167     1.0  0.81232  0.59716  0.36290  1.0000
  C   C3970     1.0  0.86475  0.52662  0.42695  1.0000
  C   C3971     1.0  0.88966  0.55871  0.40382  1.0000
  H   H3168     1.0  0.61498  0.69410  0.43416  1.0000
  C   C3972     1.0  0.88293  0.57762  0.40760  1.0000
  H   H3169     1.0  0.65982  0.70492  0.32614  1.0000
  C   C3973     1.0  0.85968  0.49488  0.41243  1.0000
  Fe  Fe267     1.0  0.61960  0.70356  0.32459  1.0000
  C   C3974     1.0  0.80787  0.49924  0.32297  1.0000
  S   S534      1.0  0.81323  0.72683  0.36258  1.0000
  H   H3170     1.0  0.93947  0.50231  0.44492  1.0000
  C   C3975     1.0  0.88141  0.58121  0.31742  1.0000
  C   C3976     1.0  0.85792  0.51093  0.43955  1.0000
  C   C3977     1.0  0.71336  0.68172  0.31525  1.0000
  H   H3171     1.0  0.87550  0.59021  0.32833  1.0000
  S   S535      1.0  0.85749  0.50958  0.31753  1.0000
  H   H3172     1.0  0.82092  0.61362  0.32897  1.0000
  H   H3173     1.0  0.62460  0.66535  0.31975  1.0000
  H   H3174     1.0  0.62723  0.72344  0.41585  1.0000
  C   C3978     1.0  0.94383  0.48764  0.35833  1.0000
  H   H3175     1.0  0.59499  0.65231  0.32035  1.0000
  H   H3176     1.0  0.91902  0.48362  0.38031  1.0000
  C   C3979     1.0  0.68187  0.72256  0.32152  1.0000
  C   C3980     1.0  0.82957  0.54119  0.31704  1.0000
  C   C3981     1.0  0.67053  0.72517  0.36096  1.0000
  H   H3177     1.0  0.96874  0.54472  0.31544  1.0000
  H   H3178     1.0  0.69375  0.59085  0.31768  1.0000
  P   P132      1.0  0.66081  0.72922  0.38545  1.0000
  H   H3179     1.0  0.85639  0.56706  0.32355  1.0000
  C   C3982     1.0  0.82386  0.64282  0.31567  1.0000
  H   H3180     1.0  0.82060  0.48881  0.31936  1.0000
  C   C3983     1.0  0.94984  0.48997  0.44086  1.0000
  C   C3984     1.0  0.78226  0.52519  0.31389  1.0000
  C   C3985     1.0  0.78597  0.71187  0.31485  1.0000
  C   C3986     1.0  0.98900  0.65166  0.32601  1.0000
  H   H3181     1.0  0.69851  0.68213  0.31373  1.0000
  H   H3182     1.0  0.94501  0.68772  0.31423  1.0000
  H   H3183     1.0  0.53439  0.61241  0.92226  1.0000
  C   C3987     1.0  0.52207  0.60558  0.92256  1.0000
  C   C3988     1.0  0.50869  0.60282  0.93960  1.0000
  C   C3989     1.0  0.51958  0.59961  0.90593  1.0000
  H   H3184     1.0  0.51089  0.60766  0.95226  1.0000
  H   H3185     1.0  0.52997  0.60177  0.89274  1.0000
  H   H3186     1.0  0.49736  0.55374  0.95236  1.0000
  H   H3187     1.0  0.50168  0.58634  0.89335  1.0000
  C   C3990     1.0  0.50365  0.59090  0.90628  1.0000
  C   C3991     1.0  0.49024  0.58810  0.92328  1.0000
  C   C3992     1.0  0.49275  0.59390  0.94013  1.0000
  Fe  Fe268     1.0  0.70678  0.83868  0.15125  1.0000
  S   S536      1.0  0.72567  0.81323  0.16513  1.0000
  S   S537      1.0  0.68086  0.83496  0.13869  1.0000
  Fe  Fe269     1.0  0.72981  0.86746  0.16085  1.0000
  S   S538      1.0  0.74968  0.84368  0.17594  1.0000
  S   S539      1.0  0.73426  0.89881  0.15692  1.0000
  Fe  Fe270     1.0  0.75046  0.82878  0.15110  1.0000
  S   S540      1.0  0.77926  0.81412  0.13766  1.0000
  Fe  Fe271     1.0  0.72305  0.83061  0.18849  1.0000
  S   S541      1.0  0.71793  0.81458  0.21868  1.0000
  S   S542      1.0  0.73203  0.85320  0.13492  1.0000
  S   S543      1.0  0.70257  0.85555  0.17572  1.0000
  S   S544      1.0  0.70322  0.86573  0.28338  1.0000
  Fe  Fe272     1.0  0.82460  0.95401  0.15772  1.0000
  S   S545      1.0  0.84029  0.96075  0.12733  1.0000
  S   S546      1.0  0.80811  0.92873  0.17075  1.0000
  H   H3188     1.0  0.92000  0.74448  0.20572  1.0000
  H   H3189     1.0  0.76818  0.86748  0.09926  1.0000
  H   H3190     1.0  0.69045  0.90133  0.26029  1.0000
  Fe  Fe273     1.0  0.86649  0.95886  0.14132  1.0000
  S   S547      1.0  0.89451  0.94072  0.12811  1.0000
  S   S548      1.0  0.85097  0.95108  0.17151  1.0000
  P   P133      1.0  0.58413  0.84853  0.27776  1.0000
  H   H3191     1.0  0.71383  0.85607  0.21602  1.0000
  H   H3192     1.0  0.74232  0.94076  0.24219  1.0000
  Fe  Fe274     1.0  0.97272  0.79558  0.14754  1.0000
  S   S549      1.0  0.96917  0.82392  0.12667  1.0000
  S   S550      1.0  0.95723  0.76898  0.15688  1.0000
  Fe  Fe275     1.0  0.96922  0.83804  0.15211  1.0000
  S   S551      1.0  0.94636  0.86258  0.16341  1.0000
  S   S552      1.0  0.97168  0.80987  0.17308  1.0000
  C   C3993     1.0  0.70140  0.74730  0.09120  1.0000
  H   H3193     1.0  0.49645  0.80438  0.30054  1.0000
  S   S553      1.0  0.64700  0.76919  0.11370  1.0000
  C   C3994     1.0  0.49759  0.76284  0.19941  1.0000
  H   H3194     1.0  0.79843  0.84540  0.08950  1.0000
  C   C3995     1.0  0.91190  0.75020  0.21836  1.0000
  C   C3996     1.0  0.95958  0.74393  0.22923  1.0000
  C   C3997     1.0  0.49168  0.77565  0.30086  1.0000
  H   H3195     1.0  0.65260  0.79911  0.26283  1.0000
  H   H3196     1.0  0.66111  0.79100  0.19441  1.0000
  H   H3197     1.0  0.82746  0.81031  0.21989  1.0000
  C   C3998     1.0  0.62001  0.95559  0.30059  1.0000
  C   C3999     1.0  0.96503  0.75002  0.20931  1.0000
  H   H3198     1.0  0.72180  0.90300  0.21429  1.0000
  H   H3199     1.0  0.73001  0.81145  0.11873  1.0000
  C   C4000     1.0  0.97902  0.76198  0.20266  1.0000
  C   C4001     1.0  0.90820  0.75331  0.25202  1.0000
  C   C4002     1.0  0.98730  0.76839  0.21580  1.0000
  C   C4003     1.0  0.93735  0.76080  0.15111  1.0000
  H   H3200     1.0  0.71109  0.89900  0.30130  1.0000
  C   C4004     1.0  0.57852  0.89353  0.30728  1.0000
  H   H3201     1.0  0.74861  0.75523  0.27986  1.0000
  C   C4005     1.0  0.76912  0.96833  0.22365  1.0000
  H   H3202     1.0  0.80729  0.78700  0.10102  1.0000
  H   H3203     1.0  0.68663  0.80210  0.20602  1.0000
  C   C4006     1.0  0.90804  0.91843  0.13808  1.0000
  C   C4007     1.0  0.90561  0.91140  0.15793  1.0000
  C   C4008     1.0  0.91731  0.89424  0.16531  1.0000
  C   C4009     1.0  0.93153  0.88370  0.15297  1.0000
  C   C4010     1.0  0.93362  0.89043  0.13304  1.0000
  C   C4011     1.0  0.92205  0.90773  0.12570  1.0000
  H   H3204     1.0  0.89514  0.91956  0.16764  1.0000
  H   H3205     1.0  0.91556  0.88928  0.18073  1.0000
  H   H3206     1.0  0.94446  0.88258  0.12333  1.0000
  H   H3207     1.0  0.92413  0.91300  0.11031  1.0000
  C   C4012     1.0  0.75783  0.89598  0.27829  1.0000
  C   C4013     1.0  0.67484  0.81424  0.13237  1.0000
  C   C4014     1.0  0.66864  0.79889  0.14632  1.0000
  C   C4015     1.0  0.66040  0.78458  0.14107  1.0000
  C   C4016     1.0  0.65823  0.78561  0.12177  1.0000
  C   C4017     1.0  0.66503  0.80059  0.10790  1.0000
  C   C4018     1.0  0.67295  0.81484  0.11316  1.0000
  H   H3208     1.0  0.66933  0.79865  0.16126  1.0000
  H   H3209     1.0  0.65513  0.77322  0.15201  1.0000
  H   H3210     1.0  0.66347  0.80164  0.09298  1.0000
  H   H3211     1.0  0.67700  0.82682  0.10231  1.0000
  C   C4019     1.0  0.78631  0.79275  0.15307  1.0000
  C   C4020     1.0  0.52879  0.87295  0.26968  1.0000
  H   H3212     1.0  0.62020  0.86282  0.27762  1.0000
  H   H3213     1.0  0.81453  0.77771  0.20212  1.0000
  C   C4021     1.0  0.77916  0.76998  0.18234  1.0000
  C   C4022     1.0  0.77462  0.78787  0.17080  1.0000
  C   C4023     1.0  0.93007  0.74492  0.16329  1.0000
  H   H3214     1.0  0.77252  0.78906  0.11403  1.0000
  H   H3215     1.0  0.76958  0.76606  0.19562  1.0000
  H   H3216     1.0  0.76189  0.79773  0.17556  1.0000
  C   C4024     1.0  0.75599  0.90571  0.15975  1.0000
  C   C4025     1.0  0.76242  0.92193  0.14752  1.0000
  C   C4026     1.0  0.77882  0.92866  0.15011  1.0000
  C   C4027     1.0  0.78857  0.91971  0.16549  1.0000
  C   C4028     1.0  0.78229  0.90333  0.17762  1.0000
  C   C4029     1.0  0.76618  0.89628  0.17472  1.0000
  H   H3217     1.0  0.75470  0.92930  0.13587  1.0000
  H   H3218     1.0  0.78381  0.94081  0.14025  1.0000
  H   H3219     1.0  0.78980  0.89613  0.18945  1.0000
  H   H3220     1.0  0.76138  0.88385  0.18434  1.0000
  C   C4030     1.0  0.71114  0.82965  0.23613  1.0000
  C   C4031     1.0  0.70716  0.82131  0.25557  1.0000
  C   C4032     1.0  0.70355  0.83272  0.26997  1.0000
  C   C4033     1.0  0.70457  0.85237  0.26508  1.0000
  C   C4034     1.0  0.70755  0.86098  0.24560  1.0000
  C   C4035     1.0  0.71075  0.84959  0.23106  1.0000
  H   H3221     1.0  0.70727  0.80594  0.25954  1.0000
  H   H3222     1.0  0.70008  0.82626  0.28491  1.0000
  H   H3223     1.0  0.70829  0.87620  0.24175  1.0000
  C   C4036     1.0  0.86286  0.89972  0.13310  1.0000
  H   H3224     1.0  0.81347  0.78437  0.31182  1.0000
  H   H3225     1.0  0.82212  0.82445  0.30009  1.0000
  H   H3226     1.0  0.55282  0.79770  0.26507  1.0000
  H   H3227     1.0  0.71559  0.82350  0.05194  1.0000
  C   C4037     1.0  0.50798  0.75349  0.23079  1.0000
  C   C4038     1.0  0.63721  0.81838  0.31047  1.0000
  H   H3228     1.0  0.78157  0.97224  0.14334  1.0000
  C   C4039     1.0  0.53024  0.76475  0.20231  1.0000
  H   H3229     1.0  0.62704  0.88873  0.29168  1.0000
  C   C4040     1.0  0.49741  0.79326  0.29201  1.0000
  C   C4041     1.0  0.74624  0.75511  0.26548  1.0000
  H   H3230     1.0  0.71072  0.77176  0.23805  1.0000
  H   H3231     1.0  0.52761  0.73797  0.28725  1.0000
  H   H3232     1.0  0.50296  0.86003  0.27740  1.0000
  H   H3233     1.0  0.51130  0.78498  0.24587  1.0000
  C   C4042     1.0  0.69768  0.73539  0.13937  1.0000
  C   C4043     1.0  0.76647  0.97283  0.17252  1.0000
  C   C4044     1.0  0.74533  0.92806  0.28631  1.0000
  C   C4045     1.0  0.63649  0.74473  0.23458  1.0000
  H   H3234     1.0  0.71451  0.84367  0.10475  1.0000
  H   H3235     1.0  0.93679  0.73789  0.17568  1.0000
  Fe  Fe276     1.0  0.62923  0.74535  0.12867  1.0000
  C   C4046     1.0  0.50582  0.78210  0.26117  1.0000
  H   H3236     1.0  0.98325  0.76652  0.18724  1.0000
  C   C4047     1.0  0.65518  0.84450  0.29716  1.0000
  C   C4048     1.0  0.91377  0.76166  0.13044  1.0000
  Fe  Fe277     1.0  0.63026  0.73795  0.29564  1.0000
  H   H3237     1.0  0.71746  0.77119  0.27084  1.0000
  H   H3238     1.0  0.66088  0.93462  0.30424  1.0000
  Fe  Fe278     1.0  0.71279  0.84542  0.30936  1.0000
  H   H3239     1.0  0.76695  0.73856  0.22341  1.0000
  C   C4049     1.0  0.50427  0.79658  0.27217  1.0000
  P   P134      1.0  0.50325  0.74481  0.25649  1.0000
  S   S554      1.0  0.80024  0.73420  0.19048  1.0000
  C   C4050     1.0  0.57447  0.87866  0.29948  1.0000
  H   H3240     1.0  0.60054  0.90848  0.31081  1.0000
  C   C4051     1.0  0.67562  0.91615  0.28376  1.0000
  H   H3241     1.0  0.73550  0.75517  0.21459  1.0000
  H   H3242     1.0  0.86968  0.77919  0.23204  1.0000
  C   C4052     1.0  0.80256  0.74894  0.24523  1.0000
  C   C4053     1.0  0.81991  0.74680  0.25241  1.0000
  H   H3243     1.0  0.82182  0.76969  0.07343  1.0000
  C   C4054     1.0  0.96745  0.75104  0.24236  1.0000
  C   C4055     1.0  0.83517  0.75577  0.24152  1.0000
  H   H3244     1.0  0.67186  0.96206  0.24460  1.0000
  S   S555      1.0  0.88719  0.73690  0.13647  1.0000
  C   C4056     1.0  0.71846  0.77676  0.13947  1.0000
  H   H3245     1.0  0.68242  0.80584  0.24037  1.0000
  C   C4057     1.0  0.66908  0.97966  0.29438  1.0000
  H   H3246     1.0  0.74752  0.94250  0.28663  1.0000
  C   C4058     1.0  0.91876  0.74511  0.23605  1.0000
  C   C4059     1.0  0.80649  0.77062  0.07907  1.0000
  H   H3247     1.0  0.91336  0.75003  0.26572  1.0000
  P   P135      1.0  0.74869  0.97368  0.21093  1.0000
  C   C4060     1.0  0.76689  0.77266  0.09404  1.0000
  H   H3248     1.0  0.59893  0.81672  0.22139  1.0000
  H   H3249     1.0  0.56824  0.82425  0.24376  1.0000
  C   C4061     1.0  0.79836  0.78026  0.09466  1.0000
  H   H3250     1.0  0.95840  0.74575  0.19881  1.0000
  H   H3251     1.0  0.68227  0.77989  0.27832  1.0000
  H   H3252     1.0  0.77995  0.76280  0.28360  1.0000
  C   C4062     1.0  0.59742  0.89718  0.30445  1.0000
  P   P136      1.0  0.65217  0.97321  0.28215  1.0000
  H   H3253     1.0  0.88195  0.77102  0.26320  1.0000
  H   H3254     1.0  0.69751  0.75064  0.13821  1.0000
  C   C4063     1.0  0.49300  0.76122  0.28990  1.0000
  H   H3255     1.0  0.71568  0.93252  0.30088  1.0000
  H   H3256     1.0  0.82104  0.75268  0.15477  1.0000
  C   C4064     1.0  0.76613  0.96605  0.24394  1.0000
  C   C4065     1.0  0.86853  0.80882  0.12019  1.0000
  C   C4066     1.0  0.86467  0.79153  0.13196  1.0000
  C   C4067     1.0  0.85012  0.79180  0.14814  1.0000
  C   C4068     1.0  0.83930  0.80936  0.15254  1.0000
  C   C4069     1.0  0.84307  0.82690  0.14084  1.0000
  C   C4070     1.0  0.85770  0.82642  0.12450  1.0000
  P   P137      1.0  0.82795  0.84964  0.14523  1.0000
  C   C4071     1.0  0.80907  0.85518  0.13057  1.0000
  C   C4072     1.0  0.81681  0.84812  0.17037  1.0000
  C   C4073     1.0  0.82289  0.85778  0.18277  1.0000
  C   C4074     1.0  0.81492  0.85572  0.20238  1.0000
  C   C4075     1.0  0.80088  0.84395  0.20978  1.0000
  C   C4076     1.0  0.79418  0.83488  0.19744  1.0000
  C   C4077     1.0  0.80193  0.83716  0.17774  1.0000
  C   C4078     1.0  0.81142  0.84736  0.11358  1.0000
  C   C4079     1.0  0.79674  0.85185  0.10231  1.0000
  C   C4080     1.0  0.77967  0.86422  0.10783  1.0000
  C   C4081     1.0  0.77726  0.87212  0.12463  1.0000
  C   C4082     1.0  0.79182  0.86755  0.13603  1.0000
  C   C4083     1.0  0.84190  0.86913  0.13953  1.0000
  C   C4084     1.0  0.86184  0.86541  0.14023  1.0000
  C   C4085     1.0  0.87229  0.88067  0.13684  1.0000
  C   C4086     1.0  0.84298  0.90355  0.13285  1.0000
  C   C4087     1.0  0.83253  0.88837  0.13603  1.0000
  H   H3257     1.0  0.87974  0.80852  0.10755  1.0000
  H   H3258     1.0  0.87273  0.77786  0.12840  1.0000
  H   H3259     1.0  0.84697  0.77828  0.15700  1.0000
  H   H3260     1.0  0.82778  0.80896  0.16481  1.0000
  H   H3261     1.0  0.86048  0.83963  0.11484  1.0000
  H   H3262     1.0  0.83371  0.86701  0.17741  1.0000
  H   H3263     1.0  0.81975  0.86314  0.21186  1.0000
  H   H3264     1.0  0.79531  0.84177  0.22510  1.0000
  H   H3265     1.0  0.78298  0.82605  0.20308  1.0000
  H   H3266     1.0  0.79651  0.83014  0.16828  1.0000
  H   H3267     1.0  0.82435  0.83754  0.10911  1.0000
  H   H3268     1.0  0.76397  0.88165  0.12892  1.0000
  H   H3269     1.0  0.78959  0.87368  0.14907  1.0000
  H   H3270     1.0  0.86929  0.85081  0.14373  1.0000
  H   H3271     1.0  0.88769  0.87785  0.13731  1.0000
  H   H3272     1.0  0.81709  0.89181  0.13612  1.0000
  C   C4088     1.0  0.86595  0.89147  0.18750  1.0000
  C   C4089     1.0  0.87110  0.90102  0.20044  1.0000
  C   C4090     1.0  0.88146  0.89054  0.21487  1.0000
  C   C4091     1.0  0.88689  0.87052  0.21623  1.0000
  C   C4092     1.0  0.88256  0.86095  0.20271  1.0000
  C   C4093     1.0  0.87160  0.87149  0.18869  1.0000
  P   P138      1.0  0.88955  0.83513  0.20431  1.0000
  C   C4094     1.0  0.91239  0.82674  0.21279  1.0000
  C   C4095     1.0  0.87012  0.82455  0.22033  1.0000
  C   C4096     1.0  0.86998  0.82062  0.24037  1.0000
  C   C4097     1.0  0.85470  0.81285  0.25289  1.0000
  C   C4098     1.0  0.83942  0.80906  0.24551  1.0000
  C   C4099     1.0  0.83931  0.81325  0.22561  1.0000
  C   C4100     1.0  0.85445  0.82122  0.21306  1.0000
  C   C4101     1.0  0.91697  0.80752  0.22174  1.0000
  C   C4102     1.0  0.93526  0.80046  0.22685  1.0000
  C   C4103     1.0  0.94924  0.81248  0.22279  1.0000
  C   C4104     1.0  0.94491  0.83153  0.21356  1.0000
  C   C4105     1.0  0.92662  0.83861  0.20847  1.0000
  C   C4106     1.0  0.89448  0.82836  0.18063  1.0000
  C   C4107     1.0  0.90400  0.83999  0.16494  1.0000
  C   C4108     1.0  0.90966  0.83403  0.14693  1.0000
  C   C4109     1.0  0.90585  0.81639  0.14445  1.0000
  C   C4110     1.0  0.89658  0.80460  0.16004  1.0000
  C   C4111     1.0  0.89110  0.81044  0.17813  1.0000
  H   H3273     1.0  0.85789  0.89965  0.17632  1.0000
  H   H3274     1.0  0.86717  0.91657  0.19922  1.0000
  H   H3275     1.0  0.88546  0.89800  0.22487  1.0000
  H   H3276     1.0  0.89479  0.86261  0.22757  1.0000
  H   H3277     1.0  0.86770  0.86431  0.17848  1.0000
  H   H3278     1.0  0.88165  0.82358  0.24634  1.0000
  H   H3279     1.0  0.85477  0.80963  0.26834  1.0000
  H   H3280     1.0  0.82770  0.80281  0.25520  1.0000
  H   H3281     1.0  0.59783  0.75613  0.24058  1.0000
  H   H3282     1.0  0.85387  0.82478  0.19773  1.0000
  H   H3283     1.0  0.90663  0.79784  0.22425  1.0000
  H   H3284     1.0  0.93877  0.78553  0.23345  1.0000
  H   H3285     1.0  0.96360  0.80691  0.22625  1.0000
  H   H3286     1.0  0.95595  0.84067  0.20962  1.0000
  H   H3287     1.0  0.92388  0.85314  0.20057  1.0000
  H   H3288     1.0  0.90765  0.85340  0.16675  1.0000
  H   H3289     1.0  0.91751  0.84288  0.13507  1.0000
  H   H3290     1.0  0.91056  0.81160  0.13058  1.0000
  H   H3291     1.0  0.89425  0.79062  0.15821  1.0000
  H   H3292     1.0  0.88481  0.80072  0.19021  1.0000
  C   C4112     1.0  0.89427  0.76248  0.21689  1.0000
  C   C4113     1.0  0.71069  0.76142  0.09458  1.0000
  H   H3293     1.0  0.69976  0.77690  0.16704  1.0000
  H   H3294     1.0  0.78757  0.76250  0.22128  1.0000
  C   C4114     1.0  0.63368  0.75515  0.21628  1.0000
  C   C4115     1.0  0.75629  0.74574  0.23386  1.0000
  P   P139      1.0  0.62367  0.78060  0.21393  1.0000
  C   C4116     1.0  0.64144  0.79058  0.22161  1.0000
  C   C4117     1.0  0.61947  0.79089  0.18967  1.0000
  C   C4118     1.0  0.62558  0.80831  0.18013  1.0000
  C   C4119     1.0  0.62268  0.81564  0.16111  1.0000
  C   C4120     1.0  0.61334  0.80586  0.15164  1.0000
  C   C4121     1.0  0.60644  0.78901  0.16136  1.0000
  C   C4122     1.0  0.60929  0.78167  0.18037  1.0000
  C   C4123     1.0  0.63936  0.79259  0.24104  1.0000
  C   C4124     1.0  0.65408  0.79820  0.24770  1.0000
  C   C4125     1.0  0.67099  0.80177  0.23506  1.0000
  C   C4126     1.0  0.67332  0.79959  0.21573  1.0000
  C   C4127     1.0  0.65872  0.79366  0.20910  1.0000
  C   C4128     1.0  0.60074  0.78582  0.22952  1.0000
  C   C4129     1.0  0.59158  0.77100  0.24118  1.0000
  C   C4130     1.0  0.57439  0.77529  0.25397  1.0000
  C   C4131     1.0  0.56605  0.79447  0.25500  1.0000
  C   C4132     1.0  0.57483  0.80939  0.24309  1.0000
  C   C4133     1.0  0.59214  0.80509  0.23042  1.0000
  C   C4134     1.0  0.80060  0.76068  0.22730  1.0000
  H   H3295     1.0  0.81306  0.95754  0.25098  1.0000
  H   H3296     1.0  0.70247  0.77574  0.09553  1.0000
  H   H3297     1.0  0.64002  0.75396  0.18558  1.0000
  C   C4135     1.0  0.72475  0.90364  0.29458  1.0000
  H   H3298     1.0  0.63282  0.81616  0.18713  1.0000
  H   H3299     1.0  0.62823  0.82858  0.15345  1.0000
  H   H3300     1.0  0.61169  0.81116  0.13668  1.0000
  H   H3301     1.0  0.59914  0.78145  0.15407  1.0000
  H   H3302     1.0  0.60391  0.76855  0.18769  1.0000
  H   H3303     1.0  0.62684  0.78888  0.25134  1.0000
  H   H3304     1.0  0.57448  0.86243  0.23838  1.0000
  H   H3305     1.0  0.50836  0.81042  0.26534  1.0000
  C   C4136     1.0  0.59833  0.84884  0.25369  1.0000
  C   C4137     1.0  0.61828  0.84158  0.25126  1.0000
  C   C4138     1.0  0.62946  0.84278  0.23278  1.0000
  C   C4139     1.0  0.62080  0.85073  0.21651  1.0000
  C   C4140     1.0  0.60094  0.85767  0.21871  1.0000
  C   C4141     1.0  0.58976  0.85682  0.23719  1.0000
  H   H3306     1.0  0.62529  0.83511  0.26364  1.0000
  H   H3307     1.0  0.64492  0.83765  0.23100  1.0000
  H   H3308     1.0  0.62952  0.85157  0.20220  1.0000
  H   H3309     1.0  0.59424  0.86386  0.20606  1.0000
  C   C4142     1.0  0.72682  0.93029  0.19698  1.0000
  C   C4143     1.0  0.60833  0.87130  0.28567  1.0000
  Fe  Fe279     1.0  0.84349  0.98314  0.17211  1.0000
  H   H3310     1.0  0.83558  0.91835  0.13041  1.0000
  H   H3311     1.0  0.51916  0.77211  0.17549  1.0000
  C   C4144     1.0  0.81595  0.76948  0.21635  1.0000
  C   C4145     1.0  0.62878  0.97213  0.29716  1.0000
  C   C4146     1.0  0.73699  0.77063  0.12969  1.0000
  H   H3312     1.0  0.82204  0.73753  0.26604  1.0000
  C   C4147     1.0  0.59048  0.82598  0.29334  1.0000
  C   C4148     1.0  0.58931  0.86761  0.28824  1.0000
  C   C4149     1.0  0.66632  0.93386  0.28910  1.0000
  H   H3313     1.0  0.87090  0.91156  0.13059  1.0000
  H   H3314     1.0  0.90791  0.76791  0.11735  1.0000
  C   C4150     1.0  0.80077  0.96037  0.24347  1.0000
  C   C4151     1.0  0.79567  0.75705  0.17642  1.0000
  S   S556      1.0  0.60538  0.73964  0.28053  1.0000
  C   C4152     1.0  0.88348  0.76997  0.23305  1.0000
  H   H3315     1.0  0.72261  0.92716  0.18432  1.0000
  H   H3316     1.0  0.55975  0.87581  0.30251  1.0000
  H   H3317     1.0  0.63242  0.75175  0.24718  1.0000
  H   H3318     1.0  0.81850  0.96147  0.21529  1.0000
  H   H3319     1.0  0.76607  0.75760  0.07087  1.0000
  H   H3320     1.0  0.75709  0.81565  0.27225  1.0000
  C   C4153     1.0  0.73306  0.94777  0.19617  1.0000
  C   C4154     1.0  0.50035  0.76422  0.27002  1.0000
  C   C4155     1.0  0.59861  0.80904  0.28566  1.0000
  C   C4156     1.0  0.67583  0.77792  0.29343  1.0000
  C   C4157     1.0  0.81252  0.83798  0.30171  1.0000
  C   C4158     1.0  0.72712  0.80230  0.07448  1.0000
  C   C4159     1.0  0.80326  0.78020  0.14746  1.0000
  C   C4160     1.0  0.78816  0.96652  0.21345  1.0000
  C   C4161     1.0  0.54801  0.83662  0.28429  1.0000
  C   C4162     1.0  0.72830  0.76413  0.26048  1.0000
  C   C4163     1.0  0.60199  0.79139  0.29797  1.0000
  S   S557      1.0  0.59666  0.74979  0.13207  1.0000
  C   C4164     1.0  0.64075  0.74607  0.20001  1.0000
  H   H3321     1.0  0.81263  0.78415  0.13399  1.0000
  C   C4165     1.0  0.55851  0.85189  0.27698  1.0000
  P   P140      1.0  0.74141  0.77460  0.10365  1.0000
  C   C4166     1.0  0.72635  0.91665  0.21390  1.0000
  H   H3322     1.0  0.67704  0.90324  0.29462  1.0000
  H   H3323     1.0  0.76391  0.87976  0.23248  1.0000
  H   H3324     1.0  0.60199  0.80929  0.27023  1.0000
  H   H3325     1.0  0.93474  0.78104  0.12487  1.0000
  C   C4167     1.0  0.92904  0.76915  0.13464  1.0000
  C   C4168     1.0  0.82585  0.89441  0.23264  1.0000
  H   H3326     1.0  0.53065  0.78849  0.31272  1.0000
  H   H3327     1.0  0.62741  0.94263  0.29509  1.0000
  H   H3328     1.0  0.79165  0.92599  0.21041  1.0000
  C   C4169     1.0  0.78007  0.74658  0.31217  1.0000
  H   H3329     1.0  0.72495  0.75809  0.18561  1.0000
  C   C4170     1.0  0.73168  0.92068  0.23023  1.0000
  H   H3330     1.0  0.79113  0.96807  0.19787  1.0000
  H   H3331     1.0  0.77453  0.91921  0.27270  1.0000
  H   H3332     1.0  0.73099  0.91019  0.24348  1.0000
  H   H3333     1.0  0.66523  0.85130  0.28569  1.0000
  C   C4171     1.0  0.77863  0.78137  0.10205  1.0000
  C   C4172     1.0  0.80799  0.76235  0.15919  1.0000
  C   C4173     1.0  0.83333  0.76682  0.22335  1.0000
  C   C4174     1.0  0.71410  0.77208  0.15958  1.0000
  H   H3334     1.0  0.77032  0.90978  0.23730  1.0000
  C   C4175     1.0  0.68175  0.93164  0.25037  1.0000
  C   C4176     1.0  0.72445  0.76428  0.24209  1.0000
  H   H3335     1.0  0.84865  0.75346  0.24699  1.0000
  S   S558      1.0  0.57871  0.74098  0.18901  1.0000
  C   C4177     1.0  0.79359  0.89048  0.24985  1.0000
  H   H3336     1.0  0.80656  0.84321  0.27277  1.0000
  C   C4178     1.0  0.73813  0.93808  0.22942  1.0000
  C   C4179     1.0  0.79478  0.76239  0.07062  1.0000
  C   C4180     1.0  0.72741  0.92246  0.29439  1.0000
  H   H3337     1.0  0.55496  0.82245  0.29030  1.0000
  H   H3338     1.0  0.70724  0.78481  0.13147  1.0000
  C   C4181     1.0  0.75616  0.85220  0.23387  1.0000
  C   C4182     1.0  0.75885  0.82960  0.26355  1.0000
  C   C4183     1.0  0.51596  0.76702  0.19091  1.0000
  H   H3339     1.0  0.84546  0.77298  0.21453  1.0000
  H   H3340     1.0  0.75438  0.73372  0.10065  1.0000
  C   C4184     1.0  0.78578  0.90540  0.23623  1.0000
  H   H3341     1.0  0.75240  0.85568  0.21948  1.0000
  C   C4185     1.0  0.51848  0.85772  0.27704  1.0000
  C   C4186     1.0  0.67239  0.94934  0.25564  1.0000
  H   H3342     1.0  0.74997  0.82323  0.23883  1.0000
  C   C4187     1.0  0.78142  0.74848  0.29220  1.0000
  C   C4188     1.0  0.75470  0.83393  0.24478  1.0000
  C   C4189     1.0  0.89048  0.76549  0.25057  1.0000
  C   C4190     1.0  0.78615  0.87182  0.30675  1.0000
  H   H3343     1.0  0.65619  0.82052  0.28297  1.0000
  H   H3344     1.0  0.53758  0.75622  0.23076  1.0000
  C   C4191     1.0  0.72833  0.76147  0.17006  1.0000
  C   C4192     1.0  0.73935  0.95161  0.21221  1.0000
  H   H3345     1.0  0.54444  0.76815  0.19572  1.0000
  C   C4193     1.0  0.76266  0.86587  0.24138  1.0000
  H   H3346     1.0  0.82035  0.87384  0.25828  1.0000
  C   C4194     1.0  0.73012  0.75688  0.09730  1.0000
  C   C4195     1.0  0.73988  0.89049  0.28653  1.0000
  C   C4196     1.0  0.76056  0.91484  0.27839  1.0000
  C   C4197     1.0  0.91445  0.73775  0.15939  1.0000
  C   C4198     1.0  0.79018  0.86555  0.28876  1.0000
  C   C4199     1.0  0.77498  0.76360  0.07792  1.0000
  H   H3347     1.0  0.76965  0.95730  0.17662  1.0000
  C   C4200     1.0  0.71421  0.83566  0.07744  1.0000
  H   H3348     1.0  0.84138  0.89013  0.23124  1.0000
  C   C4201     1.0  0.80386  0.96259  0.22334  1.0000
  C   C4202     1.0  0.64996  0.82724  0.29556  1.0000
  H   H3349     1.0  0.51992  0.82799  0.29059  1.0000
  C   C4203     1.0  0.61233  0.88602  0.29372  1.0000
  C   C4204     1.0  0.80357  0.84860  0.28633  1.0000
  C   C4205     1.0  0.71830  0.83216  0.09622  1.0000
  H   H3350     1.0  0.73315  0.95806  0.18287  1.0000
  S   S559      1.0  0.72684  0.81445  0.30935  1.0000
  H   H3351     1.0  0.75801  0.74743  0.16862  1.0000
  C   C4206     1.0  0.81378  0.88511  0.24799  1.0000
  C   C4207     1.0  0.72680  0.81375  0.10421  1.0000
  H   H3352     1.0  0.73771  0.87588  0.28713  1.0000
  C   C4208     1.0  0.73085  0.79857  0.09353  1.0000
  H   H3353     1.0  0.68630  0.75090  0.08940  1.0000
  H   H3354     1.0  0.57038  0.74357  0.22938  1.0000
  H   H3355     1.0  0.60840  0.77835  0.29202  1.0000
  C   C4209     1.0  0.78191  0.96204  0.25379  1.0000
  H   H3356     1.0  0.55644  0.88214  0.26423  1.0000
  C   C4210     1.0  0.76505  0.84331  0.27124  1.0000
  C   C4211     1.0  0.54872  0.87008  0.26967  1.0000
  H   H3357     1.0  0.76556  0.75456  0.13317  1.0000
  C   C4212     1.0  0.74689  0.75542  0.16046  1.0000
  C   C4213     1.0  0.75120  0.75978  0.14031  1.0000
  P   P141      1.0  0.77758  0.87837  0.26920  1.0000
  H   H3358     1.0  0.70744  0.84991  0.07142  1.0000
  H   H3359     1.0  0.52124  0.88707  0.26429  1.0000
  C   C4214     1.0  0.90626  0.74597  0.14280  1.0000
  H   H3360     1.0  0.82716  0.91629  0.20704  1.0000
  C   C4215     1.0  0.79785  0.91466  0.22097  1.0000
  C   C4216     1.0  0.76769  0.86134  0.25996  1.0000
  H   H3361     1.0  0.88888  0.76578  0.20328  1.0000
  H   H3362     1.0  0.63342  0.80482  0.30932  1.0000
  C   C4217     1.0  0.73840  0.75497  0.22885  1.0000
  C   C4218     1.0  0.52632  0.75793  0.22214  1.0000
  C   C4219     1.0  0.65988  0.76827  0.29964  1.0000
  S   S560      1.0  0.55839  0.75385  0.31170  1.0000
  C   C4220     1.0  0.81789  0.90915  0.21909  1.0000
  H   H3363     1.0  0.56765  0.76368  0.26328  1.0000
  C   C4221     1.0  0.71873  0.82076  0.06652  1.0000
  C   C4222     1.0  0.66407  0.95046  0.27498  1.0000
  S   S561      1.0  0.65105  0.75875  0.28296  1.0000
  H   H3364     1.0  0.73054  0.79089  0.06585  1.0000
  H   H3365     1.0  0.68787  0.93075  0.23540  1.0000
  C   C4223     1.0  0.52808  0.83960  0.28436  1.0000
  C   C4224     1.0  0.76060  0.74619  0.25204  1.0000
  H   H3366     1.0  0.98762  0.76838  0.24576  1.0000
  C   C4225     1.0  0.68324  0.91504  0.26439  1.0000
  H   H3367     1.0  0.76777  0.83967  0.28600  1.0000
  H   H3368     1.0  0.77959  0.96041  0.26941  1.0000
  H   H3369     1.0  0.66818  0.73955  0.13503  1.0000
  H   H3370     1.0  0.75162  0.96750  0.25214  1.0000
  H   H3371     1.0  0.80104  0.75519  0.05832  1.0000
  H   H3372     1.0  0.63523  0.97369  0.24804  1.0000
  C   C4226     1.0  0.60115  0.95586  0.31087  1.0000
  C   C4227     1.0  0.68397  0.78429  0.30687  1.0000
  H   H3373     1.0  0.69681  0.79092  0.30218  1.0000
  C   C4228     1.0  0.49354  0.75620  0.21930  1.0000
  C   C4229     1.0  0.73977  0.73776  0.09754  1.0000
  P   P142      1.0  0.78417  0.73481  0.25791  1.0000
  H   H3374     1.0  0.96261  0.74766  0.25777  1.0000
  H   H3375     1.0  0.70634  0.98030  0.21449  1.0000
  C   C4230     1.0  0.77326  0.98120  0.15363  1.0000
  Fe  Fe280     1.0  0.58779  0.73494  0.31010  1.0000
  C   C4231     1.0  0.98144  0.76302  0.23563  1.0000
  H   H3376     1.0  0.77572  0.88462  0.30923  1.0000
  H   H3377     1.0  0.65400  0.91680  0.39044  1.0000
  C   C4232     1.0  0.74238  0.73833  0.37344  1.0000
  Fe  Fe281     1.0  0.70563  0.80863  0.33638  1.0000
  S   S562      1.0  0.72517  0.81146  0.35620  1.0000
  S   S563      1.0  0.68768  0.78516  0.34426  1.0000
  Fe  Fe282     1.0  0.71135  0.84273  0.35232  1.0000
  S   S564      1.0  0.69869  0.85758  0.37798  1.0000
  C   C4233     1.0  0.68606  0.75206  0.39097  1.0000
  H   H3378     1.0  0.66057  0.87317  0.34278  1.0000
  S   S565      1.0  0.69012  0.83897  0.33489  1.0000
  C   C4234     1.0  0.64453  0.84969  0.38399  1.0000
  H   H3379     1.0  0.71082  0.88769  0.34708  1.0000
  Fe  Fe283     1.0  0.63783  0.95984  0.37504  1.0000
  S   S566      1.0  0.62011  0.94916  0.40346  1.0000
  S   S567      1.0  0.66709  0.94715  0.36002  1.0000
  Fe  Fe284     1.0  0.59545  0.95568  0.38627  1.0000
  S   S568      1.0  0.57530  0.93305  0.39086  1.0000
  H   H3380     1.0  0.59742  0.79134  0.37772  1.0000
  P   P143      1.0  0.62730  0.85320  0.35157  1.0000
  S   S569      1.0  0.61370  0.96498  0.35786  1.0000
  H   H3381     1.0  0.70547  0.76987  0.39483  1.0000
  H   H3382     1.0  0.69876  0.92298  0.34087  1.0000
  Fe  Fe285     1.0  0.50967  0.87944  0.34665  1.0000
  H   H3383     1.0  0.62060  0.81912  0.33885  1.0000
  S   S570      1.0  0.52907  0.90278  0.33755  1.0000
  Fe  Fe286     1.0  0.51039  0.83719  0.36383  1.0000
  S   S571      1.0  0.53164  0.81073  0.37305  1.0000
  S   S572      1.0  0.51731  0.85232  0.33349  1.0000
  H   H3384     1.0  0.66682  0.88176  0.39733  1.0000
  H   H3385     1.0  0.69322  0.74252  0.35596  1.0000
  C   C4235     1.0  0.51851  0.88269  0.42091  1.0000
  C   C4236     1.0  0.53964  0.79533  0.35563  1.0000
  C   C4237     1.0  0.53134  0.79869  0.33890  1.0000
  C   C4238     1.0  0.53734  0.78595  0.32547  1.0000
  C   C4239     1.0  0.55191  0.76993  0.32849  1.0000
  C   C4240     1.0  0.56047  0.76669  0.34506  1.0000
  C   C4241     1.0  0.55427  0.77932  0.35865  1.0000
  H   H3386     1.0  0.51999  0.81088  0.33648  1.0000
  C   C4242     1.0  0.70708  0.74313  0.41505  1.0000
  H   H3387     1.0  0.57150  0.75419  0.34762  1.0000
  H   H3388     1.0  0.56065  0.77657  0.37162  1.0000
  C   C4243     1.0  0.60425  0.97038  0.48640  1.0000
  H   H3389     1.0  0.59972  0.76232  0.36291  1.0000
  H   H3390     1.0  0.50636  0.94673  0.33823  1.0000
  C   C4244     1.0  0.56286  0.92477  0.37554  1.0000
  C   C4245     1.0  0.55362  0.90857  0.38291  1.0000
  C   C4246     1.0  0.54325  0.90170  0.37156  1.0000
  C   C4247     1.0  0.54187  0.91097  0.35262  1.0000
  C   C4248     1.0  0.55113  0.92717  0.34522  1.0000
  C   C4249     1.0  0.56147  0.93406  0.35660  1.0000
  H   H3391     1.0  0.55450  0.90127  0.39754  1.0000
  H   H3392     1.0  0.53641  0.88916  0.37744  1.0000
  H   H3393     1.0  0.55014  0.93456  0.33064  1.0000
  H   H3394     1.0  0.56825  0.94665  0.35083  1.0000
  C   C4250     1.0  0.63867  0.76505  0.39258  1.0000
  C   C4251     1.0  0.61069  0.76320  0.37103  1.0000
  C   C4252     1.0  0.53374  0.97119  0.40149  1.0000
  C   C4253     1.0  0.51471  0.91694  0.43539  1.0000
  H   H3395     1.0  0.62477  0.94891  0.50061  1.0000
  C   C4254     1.0  0.61477  0.91231  0.34760  1.0000
  H   H3396     1.0  0.65311  0.77030  0.34756  1.0000
  C   C4255     1.0  0.65937  0.77256  0.33244  1.0000
  C   C4256     1.0  0.80589  0.77765  0.32531  1.0000
  C   C4257     1.0  0.78784  0.78706  0.33349  1.0000
  H   H3397     1.0  0.53403  0.90057  0.45460  1.0000
  H   H3398     1.0  0.53206  0.94163  0.40184  1.0000
  C   C4258     1.0  0.60248  0.84988  0.36028  1.0000
  C   C4259     1.0  0.81387  0.75922  0.33415  1.0000
  C   C4260     1.0  0.77813  0.77820  0.35091  1.0000
  C   C4261     1.0  0.62332  0.78039  0.39025  1.0000
  C   C4262     1.0  0.56368  0.84539  0.37336  1.0000
  H   H3399     1.0  0.65876  0.84761  0.40834  1.0000
  H   H3400     1.0  0.76437  0.78543  0.35745  1.0000
  C   C4263     1.0  0.68957  0.88235  0.37255  1.0000
  C   C4264     1.0  0.67362  0.89067  0.38483  1.0000
  C   C4265     1.0  0.66640  0.91052  0.38100  1.0000
  C   C4266     1.0  0.67553  0.92222  0.36523  1.0000
  C   C4267     1.0  0.69164  0.91395  0.35307  1.0000
  C   C4268     1.0  0.69841  0.89399  0.35649  1.0000
  C   C4269     1.0  0.80408  0.75030  0.35151  1.0000
  C   C4270     1.0  0.65639  0.84014  0.39749  1.0000
  H   H3401     1.0  0.79150  0.86565  0.33613  1.0000
  H   H3402     1.0  0.55883  0.85933  0.34481  1.0000
  C   C4271     1.0  0.52810  0.88305  0.43599  1.0000
  C   C4272     1.0  0.58885  0.85604  0.34777  1.0000
  C   C4273     1.0  0.50353  0.95868  0.40736  1.0000
  H   H3403     1.0  0.77884  0.75323  0.37349  1.0000
  Fe  Fe287     1.0  0.74538  0.82002  0.32883  1.0000
  C   C4274     1.0  0.61273  0.89288  0.35030  1.0000
  H   H3404     1.0  0.60218  0.92327  0.35016  1.0000
  S   S573      1.0  0.50439  0.86415  0.37723  1.0000
  C   C4275     1.0  0.50706  0.89945  0.41300  1.0000
  C   C4276     1.0  0.80821  0.84416  0.31962  1.0000
  H   H3405     1.0  0.58330  0.80624  0.34114  1.0000
  C   C4277     1.0  0.57722  0.83893  0.38586  1.0000
  C   C4278     1.0  0.79512  0.86112  0.32210  1.0000
  C   C4279     1.0  0.56946  0.85408  0.35437  1.0000
  H   H3406     1.0  0.63750  0.86441  0.38493  1.0000
  C   C4280     1.0  0.66358  0.81196  0.38195  1.0000
  C   C4281     1.0  0.62919  0.87853  0.34793  1.0000
  C   C4282     1.0  0.63313  0.91757  0.34221  1.0000
  H   H3407     1.0  0.53726  0.87015  0.44185  1.0000
  H   H3408     1.0  0.82753  0.75185  0.32748  1.0000
  C   C4283     1.0  0.61090  0.97055  0.51824  1.0000
  H   H3409     1.0  0.68062  0.76247  0.37937  1.0000
  C   C4284     1.0  0.50498  0.91672  0.42023  1.0000
  H   H3410     1.0  0.52022  0.86951  0.41505  1.0000
  H   H3411     1.0  0.61884  0.96391  0.52993  1.0000
  H   H3412     1.0  0.60673  0.83643  0.38941  1.0000
  H   H3413     1.0  0.66370  0.90741  0.33621  1.0000
  S   S574      1.0  0.73316  0.85180  0.32653  1.0000
  C   C4285     1.0  0.70003  0.75633  0.39986  1.0000
  H   H3414     1.0  0.73050  0.75559  0.32887  1.0000
  H   H3415     1.0  0.65051  0.81395  0.35710  1.0000
  H   H3416     1.0  0.64896  0.76599  0.40139  1.0000
  C   C4286     1.0  0.64229  0.84049  0.36918  1.0000
  H   H3417     1.0  0.59907  0.77672  0.32744  1.0000
  C   C4287     1.0  0.78633  0.75997  0.35997  1.0000
  C   C4288     1.0  0.64759  0.88397  0.34350  1.0000
  H   H3418     1.0  0.57266  0.83222  0.40059  1.0000
  H   H3419     1.0  0.67137  0.79754  0.38087  1.0000
  H   H3420     1.0  0.63902  0.75889  0.32403  1.0000
  C   C4289     1.0  0.52623  0.90018  0.44320  1.0000
  C   C4290     1.0  0.49329  0.97732  0.40900  1.0000
  H   H3421     1.0  0.67584  0.81431  0.40638  1.0000
  C   C4291     1.0  0.59655  0.84128  0.37941  1.0000
  C   C4292     1.0  0.73409  0.74518  0.34140  1.0000
  H   H3422     1.0  0.62223  0.79297  0.39690  1.0000
  H   H3423     1.0  0.53951  0.96735  0.60118  1.0000
  C   C4293     1.0  0.67895  0.73458  0.39710  1.0000
  H   H3424     1.0  0.65247  0.97433  0.32323  1.0000
  H   H3425     1.0  0.57752  0.83743  0.31956  1.0000
  C   C4294     1.0  0.60937  0.77951  0.37942  1.0000
  C   C4295     1.0  0.64947  0.90339  0.34002  1.0000
  H   H3426     1.0  0.81456  0.83548  0.33174  1.0000
  C   C4296     1.0  0.52383  0.95578  0.40346  1.0000
  H   H3427     1.0  0.51105  0.95087  0.37015  1.0000
  C   C4297     1.0  0.66605  0.82135  0.39637  1.0000
  C   C4298     1.0  0.65173  0.82143  0.36840  1.0000
  C   C4299     1.0  0.55868  0.96338  0.57438  1.0000
  C   C4300     1.0  0.65140  0.76603  0.31910  1.0000
  C   C4301     1.0  0.73742  0.75164  0.35738  1.0000
  C   C4302     1.0  0.62996  0.82657  0.32718  1.0000
  C   C4303     1.0  0.67599  0.78109  0.32649  1.0000
  H   H3428     1.0  0.60718  0.96407  0.47332  1.0000
  H   H3429     1.0  0.59835  0.88924  0.35471  1.0000
  C   C4304     1.0  0.68595  0.73397  0.34988  1.0000
  H   H3430     1.0  0.54869  0.84364  0.37838  1.0000
  H   H3431     1.0  0.63483  0.93254  0.34029  1.0000
  H   H3432     1.0  0.73644  0.76696  0.35715  1.0000
  C   C4305     1.0  0.49678  0.94138  0.35106  1.0000
  H   H3433     1.0  0.51377  0.93018  0.44088  1.0000
  H   H3434     1.0  0.55482  0.94959  0.57407  1.0000
  C   C4306     1.0  0.57218  0.97123  0.55942  1.0000
  C   C4307     1.0  0.61421  0.96194  0.50172  1.0000
  H   H3435     1.0  0.59327  0.86254  0.33300  1.0000
  H   H3436     1.0  0.71796  0.74643  0.42191  1.0000
  H   H3437     1.0  0.56700  0.90203  0.31581  1.0000
  C   C4308     1.0  0.63536  0.84381  0.32908  1.0000
  H   H3438     1.0  0.50061  0.77629  0.35999  1.0000
  H   H3439     1.0  0.54942  0.96877  0.39851  1.0000
  C   C4309     1.0  0.55007  0.97334  0.58966  1.0000
  H   H3440     1.0  0.57859  0.96331  0.54770  1.0000
  H   H3441     1.0  0.50020  0.89883  0.40103  1.0000
  H   H3442     1.0  0.65275  0.86585  0.31460  1.0000
  H   H3443     1.0  0.70230  0.74083  0.32140  1.0000
  C   C4310     1.0  0.66556  0.97877  0.31449  1.0000
  C   C4311     1.0  0.58803  0.80710  0.32568  1.0000
  C   C4312     1.0  0.49945  0.94360  0.36926  1.0000
  S   S575      1.0  0.77750  0.80941  0.32114  1.0000
  S   S576      1.0  0.61225  0.73548  0.32521  1.0000
  C   C4313     1.0  0.59080  0.97269  0.31737  1.0000
  H   H3444     1.0  0.57616  0.97300  0.32522  1.0000
  C   C4314     1.0  0.64049  0.74885  0.38363  1.0000
  C   C4315     1.0  0.62612  0.74795  0.37313  1.0000
  H   H3445     1.0  0.77725  0.75929  0.31889  1.0000
  P   P144      1.0  0.49085  0.93872  0.40963  1.0000
  C   C4316     1.0  0.59675  0.79044  0.31796  1.0000
  Fe  Fe288     1.0  0.61342  0.98052  0.40762  1.0000
  H   H3446     1.0  0.74559  0.74335  0.38556  1.0000
  H   H3447     1.0  0.64801  0.98141  0.44101  1.0000
  H   H3448     1.0  0.62677  0.73548  0.36650  1.0000
  H   H3449     1.0  0.59440  0.94312  0.31365  1.0000
  C   C4317     1.0  0.64799  0.85274  0.31381  1.0000
  H   H3450     1.0  0.67613  0.98321  0.33915  1.0000
  C   C4318     1.0  0.58489  0.82480  0.31341  1.0000
  H   H3451     1.0  0.50433  0.96623  0.65761  1.0000
  H   H3452     1.0  0.50910  0.87690  0.69366  1.0000
  C   C4319     1.0  0.49452  0.87899  0.69058  1.0000
  H   H3453     1.0  0.49328  0.90939  0.68092  1.0000
  H   H3454     1.0  0.70077  0.97609  0.65876  1.0000
  C   C4320     1.0  0.49154  0.96198  0.66714  1.0000
  H   H3455     1.0  0.49181  0.84898  0.69958  1.0000
  H   H3456     1.0  0.48996  0.93978  0.65168  1.0000
