data_image0
_chemical_formula_structural       C3HCHCHCHC4H3CHCHCH2SH3SC3HFeS2FeC3SCH2FeS2FeS2FeHFeS3FeS2FeS2FeSFeS3HSFeSFeSFeCFeS2CFeS2FeSCFeS2FeSFeHSHFeS2FeCFeS3C2HC3HCH2C6H4C6H4C7H4C6H4C6H5CFeCHSFeCH4C3FeC9H4C2H4C5HC3H2CHCHC5H2CSC4H5CH3C3H2C6PC9HCHCHCSC2H10CHCHCH2C8PC8H3C4HC2H11SHCH2CHCH3CH3C2HC9PC18H20C6SH2CH6CHC3HCSH2PC2HCHPC10HC9H9C2H5C5H2CHPH2CHC8H2C4HCH2CHCHC3HCSC2H2CHCSHFeCHCH4SCHS2HCH2C7H2C2HSC5H4C3SC3H4C5H2C3FeH3C3H6SCPCHC2H2CHCHCH2CHC5FeSCHC2H2CSC5HSHPHC2HC2H2SHC4HCHSC3HC2HCHCHCPCHC2HCHCH4C2HCHFePH4CH2C2PH2CHCH3CHC4HCH2CH2C2H6C3H2SCH2C3SC3PH2C3H3CFeH5CH3CFeHC3HC2HC3H2CH3CHC3HSH2C3H2C5HC5HCH6CPCHCH3CHCH6CH4FeS2FeSHFeSFeS3FeCHFeS2H2FeS4FeS3HCHFeSCSFeS2Fe2SFeS2FeS2FeSFeHS2FeS2FeS2FeSFeS3HC8H4CHCSCH4C3HCHCH2CSC6H4CHC6H4C6H4CSC4HC2HC7H5C4FeC7H4C2HC3H3C2H3CH5CHC2PC4HCPC2HC6HCHC3H4C2HC3PC18H19CHC2H2CHC3HC3HCHC5H4C2H2CHC3HCHC2HC2HCH4C2HC2HCH2CH2C3HCH3C10PC3HC16H3C3H11C6PCHCH4C2HC6H3CHCHC2SH5C2H3CHC3H5C2HCHC3PHC4H2CHC3HCH3SC3HC3H4CHCHPC5HC8HCHCSC2HPH3PCH2CHCHC2HC6PC18HSH4CH12C2SCH6C3PH3C2HC8HCFeH11C2HCH2FeC2H3C3HC2HC2HCHC2HCHC2H7C2H2CPH3CH2C5HCH2CHC2HCHC3H2C3H2CH2CHCH3CHCH2C2H4CHC3HC4SCH2C2H2C3H3C2H2C4HCHC4HCHSCHCHCH2C2H2SHSC2H3C2HC2FeHCHCHC3HCHFeCH7CHCHC3HCHC2HC5HCH2C3H3CHC5HSH3CSHFeSC2HC2HCSC2FeS2FeS2FeSFeHS2FeS2FeS2FeS2CSCFeSFeS3FeCSFeS2HCHCS2FeS2FeS2FeCFeS3FeS2FeHSFeH3S2HPH2CH2FeHC7H4CHPC2HCHC6H3C2H3C2HC6H4C6HCH2CH4FeHCH2C6H4C6H5C7H5C3HSHC5H2C7HCH2CH3P2C6H3C3SC5H3C2HC2H2CFeC3H2C2H2C3HCSHC3H3SH4C3HC2H3CHC2HC2FeC6HC2H6C2H4CHC2HC4HC3HC4HC4H2C2H3CHCH2CH3C3HCHCFeCHCHCHFeHSCH2CHC2HC2H2S2HC6PC13H16C2H2CHC2HCFeC3SCHC10HC2HC4H2C2H5C5H3CH7C3HC5HC3HC3H2C3HC3H5SCHC3HCHC2HC5H3FeH3CHC2H2CFeHCHCHCHC3H5CSFeC4HC4H2SH5C3H2CHC2PHCHC2H2C3HSHC3H4CHC2H4PC2HCHC4H3CH2C3HSCH5CHCH2C3H3FeS2FeC2Fe2S3CH2FeSHFeS2FeHFeS3HFeS2FeS2FeCFeS3HSCFeS2FeHFeSHSCFeCFeSHSFeSHFeS2FeSFeS2CHC3H2C2HC2PH2C6H5C6H4C6HCH4C2HC6H2CHCHCHCH2C6H6CH3CH2CH2SHC7H4C2HSHC3HC2SC3H2CHC2FeC4HCH3CHC2H2C3H2CHC2PH7CH2C6HCHCHCHCPCPHC2HC9PC3HSC13H13CH2CH5C2HC2HCHCH2C3H3CHC3HCHC5H2C5HC5HCH2CH3C3H4SC3SHSCH2C2HC4HCHCHC2H2CH2CHC2H4C3HC4HPCH2SHCPC10SHCSH3C2HSCH2CH3CHC6PC9HC8H19PCHC4FeC10H4CHCHC2PC15H3CH10C14H9SCH5CH5CSCH6C6PC8SCHSC6H3C2PH2C4H2CHCHCH3SCSH2CHCS2C4HC3H2SHCH2C4HC2HC5HCH2C2HC2HCHCHC2H3CH2C2HCPH2CHCH3CH3C3SHCH2C3HCHC5HCH4C3H3CHSCHC9HC2FeC4H2CHC3H2CHC6HCH3CHC2HCFeS2FeS2FeSFeS3FeS2FeS2FeSFeS3FeS2FeS2FeSFeS3FeS2FeS2FeSFeS3C6H4CHC6H4CH2C6H4C6H4C2HC5H3CHCHCH2CH2SC2HCHC6H4CHSC6HPC3HCH2CHPC2HC2HC2H4C3H3CHFeH3PH3CHC3HCHCHCSH2CHC2HC4HC2HC6PCH3C5H4CHC4HC5H2C3HCHC2HCHCH3C3HC2H4C3HCHCHCH2CH2C2HCH3C2H2SFeCHC6PC18H11PH8CHCH2CHPC6HCHC4H4C5HC2HSHPC4HC2H2CH6C3HC3HCH3C5H5C2HC3PC18H13CH6C2HC6PC18H7C2H10CHC2HCH2C3H3C6PHC7H2C2HCH9PHSCHCH2C3H4C2H2CHCHC2H3C4HCH4CHC6HCH2CHCH2CHPH3C2HC2H2C3SC3HCHCH5PHC2HC5HCHCH2C3H2C2HCH2CHC4HC4HC2H2C5HC2H2CH3C2H3CHC2HC3HC2HCH3CSC2HC4H3C3HSC2HCHC4HFeC5H3C2H2C3HCHC2HC2HC2H2C2H2CH2SCPH2C2H2C2HC4HCHCH2CHC2HCHCH3C4HSHCH7C2HCH4CFeCH2S2PHC2HCPHC2HC2H2C3H2C3HC2HC2HFeS2FeCSH2FeCS2CFeS2FeS2FeSFeS3FeS2FeS2FeSFeS3FeHSHC2HSFeS2FeS2FeSFeS2FeS2FeSHFeHFeS3C2HSC2H2CH2CHCH2C3HC7H4C6H4C6H3SC2HC4HCHC6H3C6H4C2HC3HCH5C6H4C6H4C3H2C4PCH2C5HCH2SCH2SCH3C3H2C3H2CHC3HC6PC3HCH2CH8C5PC10HC8H3CH7CH6CHCSHCH2SH2C2HC3H2C2H2C2HCHCHC2HFeC2HCH3CH2C2HC2PC5HC3SHC5HCFeCSC6SHCH5CH2C6HC3HFeHC2HCFeCH6PH2CH3CFeH5SCHCHCPC16H14CFeC4HC2H3C3HCHC3HCH4C4PC3H4C5HCH3CH4FeCH6CH2C4HCHCHC3HCFeHCH2C4H6CSC3H3C3HSC4H2CSHC2HC7H3CHFeH4CHCHCHPH2CHC6HC11HSH3CH2CFeH5C5H2C2HC4HPC4H3SC5PC3HCH3CH5CSCHCS2C3HSH3CHSCSCH2CSH3C5HCH2C2H2C6HCH2CHC2H2CHC2HCH2C2HC2PC3H2C3HC3HCHCHCH3C2H4PC3H2PHC2H7FeHCSCH2PHC3H2C4H2C2HFeC2HC2H3C2HC4HSHCHCHC5HCFeS2FeS3H5CPH3CFeHS3HC5S2FeHCFeS2C5H3CH3CHSCH2C2H3C4HC4H4C4FeH3C2H4CH2C2SH2C3HCSC8PC3HC4HCH5CSHC3HSH2CH3C2FeH2C2HCH3CFe2CSH2PS2CHCSC7HC9SH2CSCHFeH3CH5C5HCSFeC2HSC4PSCFeHFeC7PC3HCH2C11H6CH13C3FeC3PHSCHCH2C3H2C8H4C2H2C4H2SCHCHCHCHCFe2CSCHSCHC2H2C2HC2H3C3HCHCHCHC3H2C2H2CH2CH6C2H2C2H4C2H3C2HCHPC2HC2HC3HSFeSCFeS2FeSFeCSCHC3HCSCPHC3HC2HSHFeS2CHSFeHFeS3C4HCHCHSCSH2C4H7CH4C2HCFeCHC9H4C2HC2HCSH2SCHC4H7C2HC3HSCHPHSCH2C6H8C3H4PC2H2CH3CH2C6H8FeCH3CHCHC5PHFeCHCHC3H3C3SCHCH2CHCH2C3PC13H13C2HC2PC18H2CH4C2H11C3FeHCH2SC5PC2HCHCS2CHC3HC7PC18H8CH12C3H2C2HCHC4SCH5CHS3CSC2HCH5C2FeHC3HC5PC17HCH6C3H6C6H7C5HPC10HC3HCHCH2CH5C4FeCHC3H2C2HPHSC3FeC2HC4H2C3H4CHFeCFeHC2HCH2CFeH2C3H2CSCHCH3CHC2HC2HCHSCHCH5C5HC4H2SH7C3HC2HCHCHCHCHCHCH2CFeS2FeS2FeCFeCS2CHFe2S3FeS2FeS2FeSFeS3FeS2FeS2FeSFeS5FeSCHCSHFeSFeSFeSHFeS2HCFeSCSFeS3FeSFeS2PSC7H3C6H4C6H4C2HC4H4C6H4C6H4C2HCHCHC6H4C6H4C7H4CH3C5SC3H3C2H2C2SPC4HFeCH4CPC9H9CHCHC4SC6HC2H2CH4SHC2H5CSHC2H2C3FeCH2C4H4CHC7PC2H2C11H5CH11C6PC18H19C2HC5H7C6PC18H15C2H2CHCHCH2CPH2CHC9PC15HC2H7CH8C2H3CHFeCH3CS2CHSC2H3CHFeH2C2HCH2C2H5C8PCH2CH2C2FeH7C4HCHCH2CHCH2C2HC2SHC2H3C4H2C4FeHC3HC2SC2HC2H3C2H2C6HC2PHCH2CHCSH2C2HC2HCHC2PC2H2PC5HC2PC5HC3H2CH4CHCH2CSHC2HCH2CHC7HC2H2SC4H2CSCHCHCHSFeC2H2CHC2HCPCSHCHC5HC3SCHC3HCH2C2HC2HCH2CHC3H2CHFeC5HSC3H2CHC2HSH3CHC4H2C2H2C2H4C2HCH2CHC2H2C2HCHCH5CH3SHC2H2CHCHFeC2HCH2CHCH4C2H2SH2CSHFeS2FeS2Fe2S3FeS2FeS2FeSFeS3FeS2FeSHFeSFeS3FeSFeS2FeSFeS3H2C2H2C4HCH3C5SH2SHC2H2C2HCH3CH2C6H2CH4C6HCH2C3PC2H2C6H4C2HCHCHC2HC6H4C3HC2H2CHC6H4C6H13SHCH2C6PC18H13CH5C6PHC2HC4H2CHC5H13CHCH2CHC7H3C2H3CHC4HCHCH2C5SPCHCHCHCH2CH3C3SHC3HC2HC6PC18HC2H2CH4CHC2H6C3H4C7PC18H17SH2C3PC16HCH12C6PC3HCH2CH3C3H5C4SCH5C3H3CH3CSC2SC2H2CH3CHC4H4C2HC2HC7H3C3HC2H3CSH2CHC3SH2PHCHC2HCH3C3H3C2SCHC2H2CHC3H3C2H2CPC2HC3HC4H2C3HC6HCHCH2C5H2C2H2CHCHCH2PC2HC4SC2HC3HC3HC4H2C3HCH3CHC3FeHCH2CH2CH2C2H2C7HC2HCPCHC3H3CPH4CHCHC3HPHC2HC2H2C2HC3HCHC4H3C3HC5HCH2CHCH2CHC3HC3HC9H2CHSCH3FeC2HCH3CHC3H3CH2C3H2C3HC2H4CHCH4C2HCHCHPCH2CHCH2CHC3H2CSHFeCHCSC2HFeSCSFeS2HCFeCHSCHCFeS2FeS2FeSFeS3FeS2FeS2FeSFeS3FeS2H2CFeSCSH4C2SFeS2FeSFeSCSH2C7HCH2CHCH3CHC7H4C2HC8H4C6H4C3HPC4H3C3H3C2HCHC2H4C2H2C6H4C2HCHC6HFeHCH2SC5HC2HSC4HSCHSHC9SHCHC3H3CH8CHC2H4PC3H2C2H3CH2C3HC2HCH3CHC4H4C2H2CH2C6H8C3H3C2FeCFeCH3C2HC3H3C2HCFeC3HC3H4C7HCH3CH2CFeHPH7CHCHCHCHCSH2C3H2C3HC3PH2C3HC2H2C2H2CHCH3C4HCHC2H2C7PC18PH10C3H2C4H6CHC4PC4HC4H2C2H2C4HSCH2C3H6CPH3CH2CHCHPC2HC4HCHC5FeHCH3C3HCH2C2HC3SH4C2SHSCH2C3H5CHCH2C7HCSH2C2HCHCH6CH2C2PCH2CHSHC2HC3HC2HC3HSH3C5HCHCH2CHC2H2CSC2HC2H2C2SH2C3HFeC5H2CH2CHSH2C2FeSCFeS2FeSFeS3PFeS2FeS2FeHFeS3FeS2FeSCFeSFeS3HFeS2FeSHFeSFeS4CHC2FeS2FeSCSCFeS2FeS2FeSFeCS2HCHSHC3H2CHFe2CH2CHC3HC7H6CHCSHC4H3CH4C6H6C2H3CH2C3HC2H2CHC6H8CHSH2C5HCH3C6H4C2PCH3PC8H4C6H4C6H5CH3C3HC3HC7HCH3CH4C3H4PH2CH3C2HCH3C8PC3H3C3H2CHC4HC3H2C3HC2H3CHC2HCHC7HSC5PC3FeCH3CH3FeCH4CHC4H2CHC2H3C4SH2C3SCPCHCH2CHC2PHC3H4C2H3PCHC2HC6HCH4SC2H2C2H4C2H3CH2C2HCHC6H3CSHC2HC4H3PCHC2HC4FeSCH2CH4C5PC21HCH10CFeH3SC2H4CH2C4HCHCSCSC2HC2HCHC3HCHC2H2C2HC3HC2H4C2H6CHCH2C2H3SC2HC2HC2H2C3HFeCPC2H2CHC4HCH2CH2CH2CPSHCH2C6H2CHC2HCH2C3SC3HCHCH3CHC3PHC3HSHC2FeHC2HC4H2C6HSFeSCFeS2FeCFeCS2FeS2HFeC2FeS2FeH2FeHFeS3FeSHFeSCFeSFeS3CFeCSH4SCSHPHFeCSFeS2FeS2Fe2S3HCHCHC9H2C6H4CHCH2CHCH2CHCH2SC7H4C3PH2CHCHC6H5C3H4C6H4C6H4CHC2HCSC3H2CH2C3SCHC2H3C5HC7PSH2C2SH2C8H7CSC3HCHC3H2C2HC2H2C2FeSPHC2FeCHC7SC8HC2HC2HC2H9CSCH2C2H4C2HCSCHCHCH2C2PC16H13C2HCH5CSHCFeCH2C3H3C4H2C2HC3HC6PC11H8C2H3C6PC18H10C2H4SHC4H8CPC10HCHCH4CH3CH5CH2C8PC12H2CPC2H11CH2CHC2PCH6CPHC3H2CHC2SCSH2CHCSH2C2HSHCH2C2H3C4H2C3H4CHSH2C5H6CHC3SC2SCH2C2HCHC2HCH3CH3CHCH4C3SH4CH2CHC2HCHC4H3CH2C2H3C2HCH2CSHCH2CHCH4CH2CHC4HC3HC4FeCH4C2HCHCHCH2CHCH2SHCHCHCH2C3HCHC3HC2HCH3C2H3C3SCHCH3C3FeS2FeS2FeSFeS3FeS2FeS2FeSFeS3CHSFeS2CFe2S2FeS2FeSFeS2FeSCFeS2FeCFeS3FeSC2FeSHFeSHCHFeSCSPHSHC2HC2H3CSCHCFeCH2CHCHC7H4C6H4C6H4C6H4C4HC7H3C2HC6H4C6H8PC2H2C6H4C6H4FeC2H2C2HSC2H2PHC6SHSCH3CHCH5SCHCHC6PC2HC2HC4HC6H3CHC2H4SH8C10H8C2H2CHC5H2C3HC3HPHC2HCHC2H2CPHCH2C3HCH3C2HC2PC16HC4HCH17C6PC18H20C6H6CH2C2H2CH3C3H4CHSH3FeC3H3C2H2C4H4C2HC4HSCH2CH2CH2CHC6PC7HCH2CHCH2CHC2H4SC4FeHC6PC9HC8HCH10CH7C6PC4H2C9HC2H5SHCH7C2HCSC2HSCSC2SHCHC13SH2C2SC2HCHFeCH3PCFeH3CH2CSH4C2HC4HCHCH2C3FeHCFeH2C3HCH3CHC2HCHCH2CHSHC2H2CHC3HCHCH5CHCH3CHCHC3PCH2CH2C2HCHCH2C2HC5HCH2C4SHCPHC2HCHC2H3CSCH3C2HCHCH3CHC2HC2HC2H2C2H2C2H5C4PC4HCHCHC3SCH2SH3C2H2SHCFe2SCFeS2FeS2HCHFeCH2SHFeS2Fe2S3FeS2FeS2FeSFeHS2H2C2HC2HCHC3HC3H4CHCH2C3H4C6H4CH2CHC5H2SHCH2C6H5C2H4SC5H4C2FeHC3H3C2HFeC5HCH2PC14FeH8SH2CHPH4CSC3HC6HC2H2C2HC2HCH2CPHC2HSHC2HC6PC8HCHC7H11S2CH6CHC5PC18H2PH17C6PC14H2C2HCHCH11C2H2C6PC4SC12H5C2H9C3HPHCH3C5HCHCH2CHCHC2H2CHCHC4SCHC2H2SC3SHC2HCHCHC3H2C2SC3HSCH3CHCH2C3H2CH2C2HCFeC3HCH2C11H2CH3CHC5H9C4H2C2HCHC2HCHSC2H2CPHSC2HCH3CHCHC5SC2HCH2CH2C3HFeC2H2C3HC2HCH2C2HCSHC2HC4H5CH3CPCH3CHCH2FeH3FeC6HFeHFeS2C3SCSHCHCHSHCPCHFeS2FeS2CHFeSC2HC4H3C6H3CSHSHC3H2C2H3C2FeCHC3H3C8PC7HC4HCHCHCSC2H2CHCHCH3FeSPCH3C8HC4H2CHCHC2H2C3H4FeH3CHFeHFeCH2SCHC3H2C4H2CSFeH3CHCH2CPC2H2CH3PHS2CFeCPC3H2SHCH2C3FeH3C2SHC3H6CH3C2H2C2HCHC2H3CHCHC2HC2H3C4SCSHCH2CH4CHC4HCSH7C3HC4HCSCH2CH2CSHC4HCHPC3HSH2CHC2H2
_chemical_formula_sum              "C5760 H4608 S768 Fe384 P192"
_cell_length_a       75.7194
_cell_length_b       75.5668
_cell_length_c       75.4949
_cell_angle_alpha    74.6265
_cell_angle_beta     74.6378
_cell_angle_gamma    74.6938

_space_group_name_H-M_alt    "P 1"
_space_group_IT_number       1

loop_
  _space_group_symop_operation_xyz
  'x, y, z'

loop_
  _atom_site_type_symbol
  _atom_site_label
  _atom_site_symmetry_multiplicity
  _atom_site_fract_x
  _atom_site_fract_y
  _atom_site_fract_z
  _atom_site_occupancy
  C   C1        1.0  0.00626  0.07887  0.44647  1.0000
  C   C2        1.0  0.00603  0.01500  0.44475  1.0000
  C   C3        1.0  0.00585  0.10112  0.47109  1.0000
  H   H1        1.0  0.03332  0.06422  0.45264  1.0000
  C   C4        1.0  0.01234  0.02867  0.44932  1.0000
  H   H2        1.0  0.00891  0.10133  0.25553  1.0000
  C   C5        1.0  0.99362  0.00500  0.45827  1.0000
  H   H3        1.0  0.01061  0.01228  0.43067  1.0000
  C   C6        1.0  0.99449  0.10199  0.26304  1.0000
  H   H4        1.0  0.99431  0.12366  0.27679  1.0000
  C   C7        1.0  0.02090  0.08603  0.46835  1.0000
  C   C8        1.0  0.99134  0.10530  0.46120  1.0000
  C   C9        1.0  0.02137  0.07543  0.45542  1.0000
  C   C10       1.0  0.00592  0.03261  0.46728  1.0000
  H   H5        1.0  0.00877  0.98463  0.30426  1.0000
  H   H6        1.0  0.00650  0.07029  0.43698  1.0000
  H   H7        1.0  0.01103  0.04300  0.47084  1.0000
  C   C11       1.0  0.02603  0.99080  0.38354  1.0000
  H   H8        1.0  0.02204  0.03636  0.43889  1.0000
  C   C12       1.0  0.03570  0.99351  0.36484  1.0000
  H   H9        1.0  0.03845  0.00725  0.35755  1.0000
  C   C13       1.0  0.99102  0.09367  0.44953  1.0000
  H   H10       1.0  0.99029  0.08091  0.25105  1.0000
  H   H11       1.0  0.02115  0.00245  0.39069  1.0000
  S   S1        1.0  0.04012  0.08094  0.47948  1.0000
  H   H12       1.0  0.48799  0.01465  0.02842  1.0000
  H   H13       1.0  0.11441  0.98788  0.47867  1.0000
  H   H14       1.0  0.03498  0.17938  0.85968  1.0000
  S   S2        1.0  0.06467  0.07622  0.52068  1.0000
  C   C14       1.0  0.12065  0.99511  0.52219  1.0000
  C   C15       1.0  0.16367  0.00364  0.70932  1.0000
  C   C16       1.0  0.36277  0.08539  0.85926  1.0000
  H   H15       1.0  0.12151  0.02213  0.50360  1.0000
  Fe  Fe1       1.0  0.46099  0.06561  0.89473  1.0000
  S   S3        1.0  0.46470  0.03808  0.88683  1.0000
  S   S4        1.0  0.44422  0.09256  0.88020  1.0000
  Fe  Fe2       1.0  0.45915  0.02637  0.91785  1.0000
  C   C17       1.0  0.17562  0.00652  0.54329  1.0000
  C   C18       1.0  0.48816  0.08062  0.83562  1.0000
  C   C19       1.0  0.16665  0.12577  0.55485  1.0000
  S   S5        1.0  0.45320  0.05424  0.92584  1.0000
  C   C20       1.0  0.41539  0.99197  0.78677  1.0000
  H   H16       1.0  0.11088  0.10187  0.55428  1.0000
  H   H17       1.0  0.08549  0.98623  0.56002  1.0000
  Fe  Fe3       1.0  0.39563  0.11251  0.79235  1.0000
  S   S6        1.0  0.36769  0.12900  0.80456  1.0000
  S   S7        1.0  0.42073  0.09603  0.80485  1.0000
  Fe  Fe4       1.0  0.38339  0.11277  0.75661  1.0000
  S   S8        1.0  0.35442  0.12871  0.76601  1.0000
  S   S9        1.0  0.39341  0.10135  0.73004  1.0000
  Fe  Fe5       1.0  0.36862  0.14632  0.77510  1.0000
  H   H18       1.0  0.45643  0.99778  0.89589  1.0000
  Fe  Fe6       1.0  0.35553  0.11029  0.79452  1.0000
  S   S10       1.0  0.33319  0.09516  0.81346  1.0000
  S   S11       1.0  0.39786  0.13150  0.76364  1.0000
  S   S12       1.0  0.38324  0.09271  0.78428  1.0000
  Fe  Fe7       1.0  0.33826  0.10471  0.62715  1.0000
  S   S13       1.0  0.31790  0.11955  0.64861  1.0000
  S   S14       1.0  0.33682  0.07426  0.63057  1.0000
  Fe  Fe8       1.0  0.35166  0.14072  0.60480  1.0000
  S   S15       1.0  0.33113  0.15822  0.62403  1.0000
  S   S16       1.0  0.37021  0.15559  0.57959  1.0000
  Fe  Fe9       1.0  0.34039  0.13444  0.64690  1.0000
  S   S17       1.0  0.34295  0.14520  0.67101  1.0000
  Fe  Fe10      1.0  0.31067  0.14169  0.62385  1.0000
  S   S18       1.0  0.27979  0.15093  0.62489  1.0000
  S   S19       1.0  0.36208  0.11749  0.62770  1.0000
  S   S20       1.0  0.33008  0.12633  0.60226  1.0000
  H   H19       1.0  0.08584  0.05104  0.56453  1.0000
  S   S21       1.0  0.26464  0.04608  0.75078  1.0000
  Fe  Fe11      1.0  0.28000  0.04792  0.77151  1.0000
  S   S22       1.0  0.28809  0.07580  0.76437  1.0000
  Fe  Fe12      1.0  0.24580  0.03234  0.77569  1.0000
  S   S23       1.0  0.21536  0.04136  0.77428  1.0000
  Fe  Fe13      1.0  0.23721  0.00679  0.61617  1.0000
  C   C21       1.0  0.43251  0.99552  0.91874  1.0000
  Fe  Fe14      1.0  0.24644  0.03678  0.63158  1.0000
  S   S24       1.0  0.22853  0.02838  0.65989  1.0000
  S   S25       1.0  0.25691  0.06354  0.62728  1.0000
  C   C22       1.0  0.13186  0.07594  0.55696  1.0000
  Fe  Fe15      1.0  0.20790  0.02628  0.64466  1.0000
  S   S26       1.0  0.17690  0.03690  0.65263  1.0000
  S   S27       1.0  0.22435  0.03719  0.61640  1.0000
  Fe  Fe16      1.0  0.12815  0.16981  0.79190  1.0000
  S   S28       1.0  0.15750  0.16266  0.79650  1.0000
  C   C23       1.0  0.47401  0.15760  0.58294  1.0000
  Fe  Fe17      1.0  0.13744  0.14642  0.76244  1.0000
  S   S29       1.0  0.16789  0.13781  0.76386  1.0000
  S   S30       1.0  0.12665  0.13234  0.74578  1.0000
  Fe  Fe18      1.0  0.15738  0.13348  0.79497  1.0000
  S   S31       1.0  0.17104  0.10867  0.81431  1.0000
  Fe  Fe19      1.0  0.16563  0.16760  0.76513  1.0000
  H   H20       1.0  0.19575  0.16077  0.60344  1.0000
  S   S32       1.0  0.12706  0.14000  0.79368  1.0000
  H   H21       1.0  0.25079  0.11365  0.48718  1.0000
  Fe  Fe20      1.0  0.13284  0.14131  0.63339  1.0000
  S   S33       1.0  0.12481  0.15205  0.60543  1.0000
  S   S34       1.0  0.16188  0.12499  0.63477  1.0000
  Fe  Fe21      1.0  0.09831  0.16555  0.65326  1.0000
  C   C24       1.0  0.25483  0.99092  0.71262  1.0000
  Fe  Fe22      1.0  0.09569  0.14903  0.62144  1.0000
  S   S35       1.0  0.07600  0.13301  0.61702  1.0000
  S   S36       1.0  0.10453  0.13601  0.64921  1.0000
  S   S37       1.0  0.12747  0.16941  0.64027  1.0000
  C   C25       1.0  0.11520  0.14510  0.72745  1.0000
  C   C26       1.0  0.10700  0.16417  0.72591  1.0000
  H   H22       1.0  0.07521  0.17236  0.84811  1.0000
  C   C27       1.0  0.09605  0.16406  0.69835  1.0000
  C   C28       1.0  0.10439  0.14505  0.69986  1.0000
  C   C29       1.0  0.11369  0.13554  0.71455  1.0000
  H   H23       1.0  0.10828  0.17155  0.73582  1.0000
  C   C30       1.0  0.00518  0.01582  0.51526  1.0000
  H   H24       1.0  0.10333  0.13759  0.68994  1.0000
  H   H25       1.0  0.11983  0.12072  0.71591  1.0000
  C   C31       1.0  0.17241  0.06135  0.64825  1.0000
  C   C32       1.0  0.18715  0.07052  0.64474  1.0000
  C   C33       1.0  0.18369  0.09010  0.64098  1.0000
  C   C34       1.0  0.16554  0.10054  0.64037  1.0000
  C   C35       1.0  0.15078  0.09143  0.64377  1.0000
  C   C36       1.0  0.15418  0.07177  0.64785  1.0000
  H   H26       1.0  0.20125  0.06256  0.64495  1.0000
  H   H27       1.0  0.19515  0.09715  0.63826  1.0000
  H   H28       1.0  0.13679  0.09960  0.64351  1.0000
  H   H29       1.0  0.14277  0.06466  0.65059  1.0000
  C   C37       1.0  0.20338  0.06011  0.78543  1.0000
  C   C38       1.0  0.18947  0.07382  0.77765  1.0000
  C   C39       1.0  0.17940  0.08869  0.78651  1.0000
  C   C40       1.0  0.18320  0.08988  0.80326  1.0000
  C   C41       1.0  0.19699  0.07604  0.81117  1.0000
  C   C42       1.0  0.20724  0.06130  0.80214  1.0000
  H   H30       1.0  0.18651  0.07297  0.76471  1.0000
  H   H31       1.0  0.16846  0.09900  0.78056  1.0000
  H   H32       1.0  0.19993  0.07687  0.82416  1.0000
  H   H33       1.0  0.21784  0.05064  0.80834  1.0000
  C   C43       1.0  0.16262  0.05374  0.59809  1.0000
  C   C44       1.0  0.31461  0.07093  0.63002  1.0000
  C   C45       1.0  0.31138  0.05274  0.63299  1.0000
  C   C46       1.0  0.29373  0.05006  0.63248  1.0000
  C   C47       1.0  0.27926  0.06559  0.62887  1.0000
  C   C48       1.0  0.28256  0.08364  0.62606  1.0000
  C   C49       1.0  0.30001  0.08634  0.62670  1.0000
  H   H34       1.0  0.32254  0.04072  0.63569  1.0000
  H   H35       1.0  0.29138  0.03604  0.63478  1.0000
  H   H36       1.0  0.27150  0.09569  0.62341  1.0000
  H   H37       1.0  0.30215  0.10042  0.62453  1.0000
  C   C50       1.0  0.31952  0.09015  0.80063  1.0000
  C   C51       1.0  0.31154  0.07423  0.80740  1.0000
  C   C52       1.0  0.30189  0.06943  0.79637  1.0000
  C   C53       1.0  0.29963  0.08104  0.77895  1.0000
  C   C54       1.0  0.30668  0.09744  0.77275  1.0000
  C   C55       1.0  0.31687  0.10180  0.78339  1.0000
  H   H38       1.0  0.31330  0.06531  0.82086  1.0000
  H   H39       1.0  0.29621  0.05685  0.80133  1.0000
  H   H40       1.0  0.30442  0.10671  0.75956  1.0000
  H   H41       1.0  0.32236  0.11438  0.77833  1.0000
  C   C56       1.0  0.38043  0.11399  0.71277  1.0000
  C   C57       1.0  0.38190  0.10680  0.69696  1.0000
  C   C58       1.0  0.37056  0.11625  0.68385  1.0000
  C   C59       1.0  0.35803  0.13311  0.68637  1.0000
  C   C60       1.0  0.35714  0.14065  0.70171  1.0000
  C   C61       1.0  0.36830  0.13113  0.71485  1.0000
  H   H42       1.0  0.39153  0.09380  0.69502  1.0000
  H   H43       1.0  0.37126  0.11038  0.67202  1.0000
  H   H44       1.0  0.34758  0.15375  0.70363  1.0000
  H   H45       1.0  0.36753  0.13714  0.72658  1.0000
  H   H46       1.0  0.28369  0.02042  0.58492  1.0000
  C   C62       1.0  0.99241  0.99142  0.65165  1.0000
  Fe  Fe23      1.0  0.27835  0.00845  0.79284  1.0000
  C   C63       1.0  0.02091  0.02391  0.51110  1.0000
  H   H47       1.0  0.07961  0.06958  0.61531  1.0000
  S   S38       1.0  0.26263  0.00333  0.77382  1.0000
  Fe  Fe24      1.0  0.03813  0.08163  0.50996  1.0000
  C   C64       1.0  0.23287  0.11438  0.53346  1.0000
  H   H48       1.0  0.34272  0.02320  0.77111  1.0000
  H   H49       1.0  0.33680  0.16870  0.80294  1.0000
  H   H50       1.0  0.42486  0.02989  0.88970  1.0000
  H   H51       1.0  0.48050  0.07370  0.73288  1.0000
  C   C65       1.0  0.34599  0.00912  0.72922  1.0000
  C   C66       1.0  0.38488  0.16805  0.58382  1.0000
  C   C67       1.0  0.38761  0.16596  0.60193  1.0000
  Fe  Fe25      1.0  0.48403  0.04845  0.92578  1.0000
  C   C68       1.0  0.13019  0.11985  0.56891  1.0000
  C   C69       1.0  0.28184  0.00327  0.71128  1.0000
  C   C70       1.0  0.11042  0.98505  0.53810  1.0000
  C   C71       1.0  0.43507  0.09291  0.86081  1.0000
  C   C72       1.0  0.42651  0.11017  0.85090  1.0000
  C   C73       1.0  0.42074  0.11119  0.83432  1.0000
  C   C74       1.0  0.42347  0.09492  0.82760  1.0000
  C   C75       1.0  0.43128  0.07757  0.83793  1.0000
  C   C76       1.0  0.43696  0.07655  0.85451  1.0000
  H   H52       1.0  0.42495  0.12288  0.85570  1.0000
  H   H53       1.0  0.41500  0.12466  0.82630  1.0000
  H   H54       1.0  0.43358  0.06494  0.83274  1.0000
  H   H55       1.0  0.44335  0.06319  0.86201  1.0000
  C   C77       1.0  0.42277  0.12549  0.58549  1.0000
  C   C78       1.0  0.02098  0.98867  0.53496  1.0000
  H   H56       1.0  0.17973  0.03279  0.61562  1.0000
  H   H57       1.0  0.99203  0.16762  0.91154  1.0000
  H   H58       1.0  0.33243  0.00732  0.72867  1.0000
  H   H59       1.0  0.48820  0.08853  0.84567  1.0000
  C   C79       1.0  0.99301  0.02314  0.48071  1.0000
  C   C80       1.0  0.13341  0.13810  0.56328  1.0000
  C   C81       1.0  0.08387  0.16281  0.85740  1.0000
  C   C82       1.0  0.22058  0.17760  0.80398  1.0000
  C   C83       1.0  0.14516  0.10433  0.56736  1.0000
  H   H60       1.0  0.17545  0.09602  0.55940  1.0000
  C   C84       1.0  0.01985  0.13740  0.64564  1.0000
  C   C85       1.0  0.38087  0.01382  0.73093  1.0000
  C   C86       1.0  0.47540  0.08750  0.82376  1.0000
  H   H61       1.0  0.13872  0.00846  0.73069  1.0000
  H   H62       1.0  0.00095  0.15024  0.71585  1.0000
  C   C87       1.0  0.10767  0.13857  0.88030  1.0000
  H   H63       1.0  0.41615  0.09283  0.56576  1.0000
  C   C88       1.0  0.41371  0.11638  0.57781  1.0000
  H   H64       1.0  0.10534  0.06694  0.58763  1.0000
  C   C89       1.0  0.48616  0.05899  0.81147  1.0000
  C   C90       1.0  0.07252  0.12890  0.59621  1.0000
  C   C91       1.0  0.06201  0.11553  0.59774  1.0000
  C   C92       1.0  0.05881  0.11184  0.58162  1.0000
  C   C93       1.0  0.07755  0.03325  0.61162  1.0000
  H   H65       1.0  0.05635  0.10794  0.61150  1.0000
  H   H66       1.0  0.05077  0.10148  0.58300  1.0000
  C   C94       1.0  0.36210  0.99566  0.72462  1.0000
  S   S39       1.0  0.29996  0.02043  0.76916  1.0000
  C   C95       1.0  0.15098  0.01367  0.72219  1.0000
  C   C96       1.0  0.07894  0.16181  0.87690  1.0000
  C   C97       1.0  0.00309  0.03801  0.57184  1.0000
  C   C98       1.0  0.00403  0.01895  0.57360  1.0000
  H   H67       1.0  0.00561  0.10980  0.48049  1.0000
  H   H68       1.0  0.16930  0.10974  0.60110  1.0000
  H   H69       1.0  0.01585  0.04287  0.56961  1.0000
  H   H70       1.0  0.01758  0.00956  0.57208  1.0000
  H   H71       1.0  0.44590  0.08496  0.73918  1.0000
  C   C99       1.0  0.22255  0.10064  0.57856  1.0000
  H   H72       1.0  0.42733  0.07819  0.77149  1.0000
  H   H73       1.0  0.48522  0.98605  0.85121  1.0000
  H   H74       1.0  0.25997  0.99898  0.73589  1.0000
  C   C100      1.0  0.39957  0.04200  0.87909  1.0000
  C   C101      1.0  0.01167  0.14110  0.91439  1.0000
  C   C102      1.0  0.44355  0.99267  0.90126  1.0000
  H   H75       1.0  0.15901  0.14513  0.71458  1.0000
  H   H76       1.0  0.33381  0.01794  0.80524  1.0000
  C   C103      1.0  0.21793  0.12721  0.78365  1.0000
  C   C104      1.0  0.22866  0.10917  0.78820  1.0000
  C   C105      1.0  0.24706  0.10678  0.78997  1.0000
  C   C106      1.0  0.25459  0.12242  0.78783  1.0000
  C   C107      1.0  0.24371  0.14066  0.78386  1.0000
  C   C108      1.0  0.22565  0.14289  0.78081  1.0000
  P   P1        1.0  0.25337  0.16105  0.78092  1.0000
  C   C109      1.0  0.23980  0.17680  0.79644  1.0000
  C   C110      1.0  0.27632  0.15402  0.78654  1.0000
  C   C111      1.0  0.27834  0.14372  0.80459  1.0000
  C   C112      1.0  0.29576  0.13899  0.80957  1.0000
  C   C113      1.0  0.31114  0.14503  0.79678  1.0000
  C   C114      1.0  0.30919  0.15558  0.77890  1.0000
  C   C115      1.0  0.29192  0.15989  0.77367  1.0000
  C   C116      1.0  0.47321  0.10378  0.62258  1.0000
  C   C117      1.0  0.45778  0.00490  0.76312  1.0000
  H   H77       1.0  0.10672  0.99004  0.58035  1.0000
  C   C118      1.0  0.25770  0.17455  0.72385  1.0000
  H   H78       1.0  0.37416  0.99608  0.77440  1.0000
  C   C119      1.0  0.25517  0.17368  0.75682  1.0000
  H   H79       1.0  0.21435  0.18033  0.65356  1.0000
  C   C120      1.0  0.03639  0.01458  0.51913  1.0000
  S   S40       1.0  0.08429  0.17596  0.68001  1.0000
  C   C121      1.0  0.47071  0.05627  0.78023  1.0000
  C   C122      1.0  0.25549  0.16476  0.74257  1.0000
  H   H80       1.0  0.20368  0.12903  0.78215  1.0000
  H   H81       1.0  0.22286  0.09702  0.78998  1.0000
  H   H82       1.0  0.25557  0.09276  0.79290  1.0000
  H   H83       1.0  0.26900  0.12003  0.78900  1.0000
  H   H84       1.0  0.21749  0.15669  0.77611  1.0000
  H   H85       1.0  0.26643  0.13925  0.81478  1.0000
  H   H86       1.0  0.29744  0.13054  0.82330  1.0000
  H   H87       1.0  0.32461  0.14136  0.80071  1.0000
  H   H88       1.0  0.32112  0.16046  0.76911  1.0000
  H   H89       1.0  0.29084  0.16800  0.75973  1.0000
  C   C123      1.0  0.27751  0.99586  0.68339  1.0000
  H   H90       1.0  0.30199  0.02874  0.88720  1.0000
  C   C124      1.0  0.47354  0.11410  0.60408  1.0000
  H   H91       1.0  0.21317  0.16866  0.80117  1.0000
  C   C125      1.0  0.03954  0.16224  0.89776  1.0000
  H   H92       1.0  0.13137  0.17495  0.82937  1.0000
  H   H93       1.0  0.02211  0.12926  0.65931  1.0000
  C   C126      1.0  0.44234  0.07272  0.76871  1.0000
  C   C127      1.0  0.12238  0.08079  0.59615  1.0000
  C   C128      1.0  0.16040  0.04787  0.77348  1.0000
  C   C129      1.0  0.14897  0.06479  0.77741  1.0000
  C   C130      1.0  0.14504  0.07993  0.76270  1.0000
  C   C131      1.0  0.15256  0.07821  0.74406  1.0000
  C   C132      1.0  0.16410  0.06125  0.73997  1.0000
  C   C133      1.0  0.16786  0.04605  0.75485  1.0000
  P   P2        1.0  0.17417  0.05885  0.71592  1.0000
  C   C134      1.0  0.17002  0.03729  0.71322  1.0000
  C   C135      1.0  0.16200  0.07824  0.70075  1.0000
  C   C136      1.0  0.14389  0.07834  0.69919  1.0000
  C   C137      1.0  0.13353  0.09428  0.68932  1.0000
  C   C138      1.0  0.14112  0.11024  0.68112  1.0000
  C   C139      1.0  0.15909  0.11023  0.68255  1.0000
  C   C140      1.0  0.16957  0.09425  0.69213  1.0000
  C   C141      1.0  0.18261  0.02715  0.70025  1.0000
  H   H94       1.0  0.25797  0.16762  0.71292  1.0000
  H   H95       1.0  0.39449  0.01530  0.73164  1.0000
  H   H96       1.0  0.04830  0.99014  0.53762  1.0000
  C   C142      1.0  0.15410  0.03044  0.72413  1.0000
  C   C143      1.0  0.19915  0.05806  0.71022  1.0000
  C   C144      1.0  0.20935  0.05317  0.72450  1.0000
  C   C145      1.0  0.22883  0.05073  0.72005  1.0000
  H   H97       1.0  0.18081  0.12807  0.54973  1.0000
  C   C146      1.0  0.22839  0.05854  0.68700  1.0000
  C   C147      1.0  0.20885  0.06101  0.69138  1.0000
  H   H98       1.0  0.16401  0.03636  0.78488  1.0000
  H   H99       1.0  0.14364  0.06638  0.79184  1.0000
  H   H100      1.0  0.13642  0.09316  0.76576  1.0000
  H   H101      1.0  0.14936  0.09024  0.73298  1.0000
  H   H102      1.0  0.17697  0.03293  0.75207  1.0000
  H   H103      1.0  0.13764  0.06626  0.70580  1.0000
  H   H104      1.0  0.11961  0.09433  0.68805  1.0000
  H   H105      1.0  0.13330  0.12258  0.67331  1.0000
  H   H106      1.0  0.16494  0.12259  0.67593  1.0000
  H   H107      1.0  0.18346  0.09457  0.69292  1.0000
  H   H108      1.0  0.19482  0.03211  0.69142  1.0000
  S   S41       1.0  0.21935  0.99600  0.64382  1.0000
  H   H109      1.0  0.27752  0.09274  0.50054  1.0000
  C   C148      1.0  0.48122  0.06024  0.76179  1.0000
  H   H110      1.0  0.14408  0.03806  0.73412  1.0000
  H   H111      1.0  0.20250  0.05082  0.73915  1.0000
  C   C149      1.0  0.26497  0.99803  0.72131  1.0000
  H   H112      1.0  0.48321  0.99131  0.96934  1.0000
  C   C150      1.0  0.09312  0.08336  0.62780  1.0000
  H   H113      1.0  0.20139  0.06452  0.68007  1.0000
  H   H114      1.0  0.23651  0.04634  0.73125  1.0000
  H   H115      1.0  0.06645  0.03395  0.62403  1.0000
  C   C151      1.0  0.11708  0.08884  0.54958  1.0000
  H   H116      1.0  0.32577  0.17908  0.73002  1.0000
  H   H117      1.0  0.10434  0.15271  0.83442  1.0000
  H   H118      1.0  0.33787  0.06169  0.84557  1.0000
  C   C152      1.0  0.34217  0.11579  0.85171  1.0000
  C   C153      1.0  0.47435  0.07674  0.81174  1.0000
  H   H119      1.0  0.99362  0.99129  0.53013  1.0000
  C   C154      1.0  0.19388  0.16082  0.61814  1.0000
  C   C155      1.0  0.10047  0.15164  0.84951  1.0000
  C   C156      1.0  0.14504  0.00057  0.56016  1.0000
  C   C157      1.0  0.30299  0.06252  0.71655  1.0000
  C   C158      1.0  0.31224  0.05542  0.70046  1.0000
  C   C159      1.0  0.30903  0.06576  0.68287  1.0000
  C   C160      1.0  0.29611  0.08289  0.68145  1.0000
  C   C161      1.0  0.28598  0.08956  0.69772  1.0000
  C   C162      1.0  0.29013  0.07964  0.71514  1.0000
  P   P3        1.0  0.26839  0.11107  0.69627  1.0000
  C   C163      1.0  0.25729  0.11406  0.67693  1.0000
  C   C164      1.0  0.24940  0.10990  0.71660  1.0000
  C   C165      1.0  0.23846  0.12651  0.72203  1.0000
  C   C166      1.0  0.22328  0.12580  0.73735  1.0000
  C   C167      1.0  0.21899  0.10851  0.74736  1.0000
  C   C168      1.0  0.22975  0.09194  0.74199  1.0000
  C   C169      1.0  0.24470  0.09265  0.72646  1.0000
  C   C170      1.0  0.25462  0.09817  0.67245  1.0000
  C   C171      1.0  0.24571  0.10012  0.65785  1.0000
  C   C172      1.0  0.23917  0.11788  0.64773  1.0000
  C   C173      1.0  0.24103  0.13378  0.65256  1.0000
  C   C174      1.0  0.24983  0.13196  0.66728  1.0000
  C   C175      1.0  0.27982  0.12938  0.69589  1.0000
  C   C176      1.0  0.28484  0.14242  0.67933  1.0000
  C   C177      1.0  0.29419  0.15606  0.67942  1.0000
  C   C178      1.0  0.29904  0.15649  0.69589  1.0000
  C   C179      1.0  0.29449  0.14331  0.71234  1.0000
  C   C180      1.0  0.28481  0.12988  0.71239  1.0000
  H   H120      1.0  0.30556  0.05478  0.73022  1.0000
  H   H121      1.0  0.32191  0.04196  0.70160  1.0000
  H   H122      1.0  0.31646  0.06050  0.67029  1.0000
  H   H123      1.0  0.29385  0.09069  0.66768  1.0000
  H   H124      1.0  0.28310  0.08495  0.72772  1.0000
  H   H125      1.0  0.24153  0.13999  0.71432  1.0000
  H   H126      1.0  0.21481  0.13866  0.74149  1.0000
  H   H127      1.0  0.20721  0.10792  0.75920  1.0000
  H   H128      1.0  0.22637  0.07855  0.74976  1.0000
  H   H129      1.0  0.25243  0.07974  0.72210  1.0000
  H   H130      1.0  0.25953  0.08420  0.68013  1.0000
  H   H131      1.0  0.24426  0.08783  0.65402  1.0000
  H   H132      1.0  0.23264  0.11926  0.63617  1.0000
  H   H133      1.0  0.23544  0.14750  0.64504  1.0000
  H   H134      1.0  0.25049  0.14450  0.67118  1.0000
  H   H135      1.0  0.28220  0.14176  0.66615  1.0000
  H   H136      1.0  0.29841  0.16580  0.66648  1.0000
  H   H137      1.0  0.30687  0.16667  0.69573  1.0000
  H   H138      1.0  0.29859  0.14339  0.72502  1.0000
  H   H139      1.0  0.28153  0.11964  0.72524  1.0000
  C   C181      1.0  0.44294  0.01015  0.82307  1.0000
  C   C182      1.0  0.43992  0.00963  0.84225  1.0000
  C   C183      1.0  0.45007  0.01876  0.84860  1.0000
  C   C184      1.0  0.16625  0.98833  0.63400  1.0000
  C   C185      1.0  0.46607  0.02937  0.81645  1.0000
  C   C186      1.0  0.45603  0.01986  0.81021  1.0000
  S   S42       1.0  0.43961  0.00655  0.93267  1.0000
  H   H140      1.0  0.33410  0.99855  0.69434  1.0000
  H   H141      1.0  0.14033  0.02848  0.64754  1.0000
  C   C187      1.0  0.15990  0.00262  0.64409  1.0000
  H   H142      1.0  0.15122  0.05610  0.60992  1.0000
  H   H143      1.0  0.46558  0.10076  0.82463  1.0000
  H   H144      1.0  0.46541  0.09555  0.58191  1.0000
  H   H145      1.0  0.43519  0.00286  0.81829  1.0000
  H   H146      1.0  0.42980  0.00207  0.85222  1.0000
  H   H147      1.0  0.99582  0.17628  0.64474  1.0000
  C   C188      1.0  0.23393  0.11837  0.51407  1.0000
  H   H148      1.0  0.45820  0.02016  0.79540  1.0000
  C   C189      1.0  0.04444  0.14261  0.90310  1.0000
  C   C190      1.0  0.26111  0.98977  0.69365  1.0000
  C   C191      1.0  0.00889  0.99006  0.63765  1.0000
  H   H149      1.0  0.44290  0.06022  0.79767  1.0000
  C   C192      1.0  0.40358  0.04416  0.90920  1.0000
  S   S43       1.0  0.23883  0.99762  0.58911  1.0000
  H   H150      1.0  0.33454  0.08975  0.85496  1.0000
  H   H151      1.0  0.99581  0.13296  0.69220  1.0000
  P   P4        1.0  0.48191  0.04317  0.79959  1.0000
  C   C193      1.0  0.10924  0.01993  0.59680  1.0000
  C   C194      1.0  0.09487  0.02110  0.61290  1.0000
  H   H152      1.0  0.17598  0.06737  0.55053  1.0000
  C   C195      1.0  0.36474  0.02749  0.73542  1.0000
  H   H153      1.0  0.11130  0.06491  0.51983  1.0000
  P   P5        1.0  0.36613  0.04784  0.74285  1.0000
  C   C196      1.0  0.35760  0.04517  0.76801  1.0000
  C   C197      1.0  0.39031  0.05020  0.73642  1.0000
  C   C198      1.0  0.40163  0.04462  0.74983  1.0000
  C   C199      1.0  0.42005  0.04724  0.74471  1.0000
  C   C200      1.0  0.42759  0.05472  0.72605  1.0000
  C   C201      1.0  0.41672  0.05947  0.71248  1.0000
  C   C202      1.0  0.39817  0.05719  0.71763  1.0000
  C   C203      1.0  0.36216  0.05615  0.77784  1.0000
  C   C204      1.0  0.35741  0.05267  0.79748  1.0000
  C   C205      1.0  0.34754  0.03861  0.80743  1.0000
  H   H154      1.0  0.43967  0.15376  0.56351  1.0000
  C   C206      1.0  0.34716  0.03147  0.77812  1.0000
  C   C207      1.0  0.35268  0.06852  0.73014  1.0000
  C   C208      1.0  0.35005  0.06874  0.71231  1.0000
  C   C209      1.0  0.34001  0.08480  0.70227  1.0000
  C   C210      1.0  0.33266  0.10083  0.70983  1.0000
  C   C211      1.0  0.33551  0.10089  0.72735  1.0000
  C   C212      1.0  0.34541  0.08481  0.73752  1.0000
  C   C213      1.0  0.02284  0.17178  0.67305  1.0000
  C   C214      1.0  0.11243  0.13962  0.86091  1.0000
  H   H155      1.0  0.42830  0.04395  0.75531  1.0000
  H   H156      1.0  0.02117  0.03757  0.50181  1.0000
  H   H157      1.0  0.39204  0.98764  0.72174  1.0000
  H   H158      1.0  0.44170  0.05716  0.72214  1.0000
  H   H159      1.0  0.42240  0.06560  0.69808  1.0000
  H   H160      1.0  0.38983  0.06132  0.70701  1.0000
  H   H161      1.0  0.36961  0.06725  0.77031  1.0000
  H   H162      1.0  0.36090  0.06123  0.80500  1.0000
  H   H163      1.0  0.34350  0.03621  0.82264  1.0000
  C   C215      1.0  0.02051  0.17116  0.90078  1.0000
  C   C216      1.0  0.09345  0.99412  0.54784  1.0000
  H   H164      1.0  0.35587  0.05663  0.70596  1.0000
  H   H165      1.0  0.33804  0.08497  0.68852  1.0000
  H   H166      1.0  0.32528  0.11338  0.70181  1.0000
  H   H167      1.0  0.33036  0.11355  0.73291  1.0000
  H   H168      1.0  0.34750  0.08533  0.75097  1.0000
  C   C217      1.0  0.16348  0.10748  0.56034  1.0000
  C   C218      1.0  0.46308  0.02856  0.83583  1.0000
  C   C219      1.0  0.99501  0.10470  0.60323  1.0000
  C   C220      1.0  0.34161  0.03978  0.89058  1.0000
  C   C221      1.0  0.13880  0.05878  0.55104  1.0000
  H   H169      1.0  0.37202  0.16884  0.65151  1.0000
  H   H170      1.0  0.08151  0.08510  0.63963  1.0000
  C   C222      1.0  0.23840  0.05323  0.70133  1.0000
  H   H171      1.0  0.41522  0.13827  0.59015  1.0000
  P   P6        1.0  0.14048  0.08084  0.57503  1.0000
  H   H172      1.0  0.13712  0.04180  0.53284  1.0000
  H   H173      1.0  0.06088  0.05337  0.59312  1.0000
  C   C223      1.0  0.09703  0.17354  0.71161  1.0000
  H   H174      1.0  0.32267  0.02289  0.90958  1.0000
  C   C224      1.0  0.19298  0.04706  0.56837  1.0000
  C   C225      1.0  0.00340  0.14502  0.62006  1.0000
  C   C226      1.0  0.03129  0.15001  0.63539  1.0000
  C   C227      1.0  0.39473  0.17951  0.56870  1.0000
  C   C228      1.0  0.31403  0.03522  0.88327  1.0000
  C   C229      1.0  0.04136  0.16534  0.67538  1.0000
  C   C230      1.0  0.45120  0.06259  0.78352  1.0000
  C   C231      1.0  0.18414  0.10719  0.59484  1.0000
  H   H175      1.0  0.35619  0.99179  0.81922  1.0000
  H   H176      1.0  0.03792  0.16980  0.60959  1.0000
  C   C232      1.0  0.00806  0.16616  0.68746  1.0000
  C   C233      1.0  0.01213  0.15443  0.70437  1.0000
  C   C234      1.0  0.03066  0.14807  0.70666  1.0000
  C   C235      1.0  0.04527  0.15345  0.69213  1.0000
  H   H177      1.0  0.99005  0.04878  0.52977  1.0000
  C   C236      1.0  0.02866  0.16039  0.61767  1.0000
  H   H178      1.0  0.44931  0.07969  0.56834  1.0000
  H   H179      1.0  0.09157  0.03828  0.52115  1.0000
  C   C237      1.0  0.00666  0.16062  0.90909  1.0000
  H   H180      1.0  0.45006  0.15940  0.61776  1.0000
  C   C238      1.0  0.34055  0.98407  0.69343  1.0000
  H   H181      1.0  0.39012  0.08671  0.86226  1.0000
  C   C239      1.0  0.18829  0.16084  0.65644  1.0000
  C   C240      1.0  0.25276  0.18196  0.61795  1.0000
  C   C241      1.0  0.20602  0.17011  0.70149  1.0000
  H   H182      1.0  0.47053  0.03559  0.84129  1.0000
  C   C242      1.0  0.45738  0.17365  0.55189  1.0000
  S   S44       1.0  0.99014  0.98804  0.57823  1.0000
  C   C243      1.0  0.28796  0.00236  0.69225  1.0000
  C   C244      1.0  0.47230  0.07038  0.74700  1.0000
  H   H183      1.0  0.03374  0.13905  0.71973  1.0000
  H   H184      1.0  0.05965  0.14864  0.69392  1.0000
  C   C245      1.0  0.17834  0.01045  0.55928  1.0000
  H   H185      1.0  0.42109  0.99761  0.79526  1.0000
  C   C246      1.0  0.19410  0.08893  0.59408  1.0000
  S   S45       1.0  0.25967  0.03639  0.79677  1.0000
  H   H186      1.0  0.18653  0.00689  0.53065  1.0000
  Fe  Fe26      1.0  0.28263  0.01760  0.75046  1.0000
  C   C247      1.0  0.40055  0.17475  0.60475  1.0000
  H   H187      1.0  0.18709  0.07727  0.60020  1.0000
  C   C248      1.0  0.13164  0.05499  0.53745  1.0000
  H   H188      1.0  0.22053  0.07136  0.58572  1.0000
  H   H189      1.0  0.25358  0.05067  0.69796  1.0000
  H   H190      1.0  0.35069  0.03654  0.90040  1.0000
  H   H191      1.0  0.35335  0.13998  0.84915  1.0000
  S   S46       1.0  0.26120  0.00723  0.62881  1.0000
  C   C249      1.0  0.12347  0.08931  0.61016  1.0000
  H   H192      1.0  0.38002  0.05990  0.92562  1.0000
  S   S47       1.0  0.13628  0.17687  0.76031  1.0000
  S   S48       1.0  0.18927  0.18216  0.74928  1.0000
  H   H193      1.0  0.22031  0.12060  0.54233  1.0000
  C   C250      1.0  0.37310  0.11420  0.85603  1.0000
  H   H194      1.0  0.02045  0.13529  0.58122  1.0000
  H   H195      1.0  0.44288  0.01018  0.76670  1.0000
  C   C251      1.0  0.18647  0.13875  0.69664  1.0000
  C   C252      1.0  0.20314  0.12523  0.69439  1.0000
  C   C253      1.0  0.20523  0.10797  0.70703  1.0000
  C   C254      1.0  0.19085  0.10430  0.72252  1.0000
  C   C255      1.0  0.17430  0.11775  0.72509  1.0000
  C   C256      1.0  0.17196  0.13489  0.71215  1.0000
  C   C257      1.0  0.38881  0.99110  0.77512  1.0000
  H   H196      1.0  0.09693  0.01226  0.62636  1.0000
  H   H197      1.0  0.16129  0.99068  0.70776  1.0000
  C   C258      1.0  0.15705  0.98813  0.62031  1.0000
  C   C259      1.0  0.31834  0.04621  0.86528  1.0000
  H   H198      1.0  0.04256  0.15141  0.64095  1.0000
  S   S49       1.0  0.28666  0.98390  0.81574  1.0000
  C   C260      1.0  0.45115  0.15862  0.56531  1.0000
  C   C261      1.0  0.03054  0.13210  0.91137  1.0000
  C   C262      1.0  0.19711  0.14392  0.63112  1.0000
  C   C263      1.0  0.19414  0.14386  0.65024  1.0000
  C   C264      1.0  0.34729  0.02500  0.73455  1.0000
  H   H199      1.0  0.21458  0.12812  0.68292  1.0000
  H   H200      1.0  0.21805  0.09751  0.70489  1.0000
  H   H201      1.0  0.19255  0.09109  0.73259  1.0000
  H   H202      1.0  0.16339  0.11492  0.73733  1.0000
  C   C265      1.0  0.99120  0.14953  0.58473  1.0000
  C   C266      1.0  0.46543  0.98557  0.76713  1.0000
  C   C267      1.0  0.00543  0.99797  0.52698  1.0000
  S   S50       1.0  0.29633  0.00939  0.72255  1.0000
  C   C268      1.0  0.19399  0.03720  0.58665  1.0000
  C   C269      1.0  0.47202  0.18050  0.55387  1.0000
  C   C270      1.0  0.39132  0.06105  0.82957  1.0000
  H   H203      1.0  0.99738  0.12496  0.64619  1.0000
  H   H204      1.0  0.20120  0.13076  0.62645  1.0000
  H   H205      1.0  0.19618  0.13053  0.65998  1.0000
  H   H206      1.0  0.43069  0.16652  0.64776  1.0000
  C   C271      1.0  0.31328  0.00787  0.84025  1.0000
  C   C272      1.0  0.09206  0.07464  0.61407  1.0000
  C   C273      1.0  0.99974  0.16266  0.54563  1.0000
  C   C274      1.0  0.45286  0.07666  0.75048  1.0000
  C   C275      1.0  0.27702  0.03505  0.58099  1.0000
  H   H207      1.0  0.24494  0.10695  0.60171  1.0000
  H   H208      1.0  0.40603  0.14855  0.66585  1.0000
  C   C276      1.0  0.27191  0.17411  0.61398  1.0000
  C   C277      1.0  0.32268  0.99236  0.85162  1.0000
  C   C278      1.0  0.42326  0.09987  0.57166  1.0000
  Fe  Fe27      1.0  0.11770  0.18023  0.61334  1.0000
  H   H209      1.0  0.99135  0.11972  0.55765  1.0000
  H   H210      1.0  0.38018  0.15710  0.61369  1.0000
  H   H211      1.0  0.00309  0.16766  0.53052  1.0000
  C   C279      1.0  0.41066  0.03784  0.89241  1.0000
  C   C280      1.0  0.32571  0.03194  0.89587  1.0000
  C   C281      1.0  0.21321  0.08564  0.58593  1.0000
  H   H212      1.0  0.29307  0.04499  0.59457  1.0000
  H   H213      1.0  0.14995  0.16937  0.66819  1.0000
  H   H214      1.0  0.44788  0.01828  0.86347  1.0000
  H   H215      1.0  0.31461  0.02185  0.83994  1.0000
  H   H216      1.0  0.40998  0.06176  0.80263  1.0000
  H   H217      1.0  0.25993  0.12855  0.60966  1.0000
  S   S51       1.0  0.06154  0.11841  0.54299  1.0000
  C   C282      1.0  0.16142  0.06371  0.57971  1.0000
  P   P7        1.0  0.45268  0.12997  0.59765  1.0000
  C   C283      1.0  0.38122  0.05264  0.88253  1.0000
  H   H218      1.0  0.20651  0.02693  0.58937  1.0000
  C   C284      1.0  0.44192  0.09249  0.57314  1.0000
  C   C285      1.0  0.08851  0.04298  0.57812  1.0000
  H   H219      1.0  0.00067  0.03471  0.61167  1.0000
  H   H220      1.0  0.24306  0.17367  0.62714  1.0000
  C   C286      1.0  0.48018  0.17263  0.56949  1.0000
  H   H221      1.0  0.39923  0.12216  0.57667  1.0000
  C   C287      1.0  0.44144  0.11815  0.58719  1.0000
  H   H222      1.0  0.36636  0.99058  0.67564  1.0000
  C   C288      1.0  0.38974  0.02503  0.82768  1.0000
  H   H223      1.0  0.16706  0.01284  0.58771  1.0000
  H   H224      1.0  0.35427  0.17956  0.54910  1.0000
  C   C289      1.0  0.10883  0.09060  0.62588  1.0000
  H   H225      1.0  0.29511  0.01747  0.82035  1.0000
  C   C290      1.0  0.34594  0.05101  0.87257  1.0000
  C   C291      1.0  0.33438  0.05381  0.85983  1.0000
  C   C292      1.0  0.17947  0.01040  0.69836  1.0000
  C   C293      1.0  0.32966  0.18173  0.79543  1.0000
  C   C294      1.0  0.99496  0.08552  0.60827  1.0000
  Fe  Fe28      1.0  0.24183  0.99905  0.65656  1.0000
  S   S52       1.0  0.35955  0.17767  0.76546  1.0000
  C   C295      1.0  0.17883  0.04049  0.60146  1.0000
  H   H226      1.0  0.40750  0.99064  0.93932  1.0000
  C   C296      1.0  0.13536  0.01688  0.62645  1.0000
  C   C297      1.0  0.28232  0.04886  0.58638  1.0000
  H   H227      1.0  0.25422  0.15025  0.74580  1.0000
  H   H228      1.0  0.09827  0.09484  0.53074  1.0000
  C   C298      1.0  0.07612  0.13532  0.56227  1.0000
  S   S53       1.0  0.08757  0.17855  0.62668  1.0000
  C   C299      1.0  0.37954  0.99803  0.72542  1.0000
  C   C300      1.0  0.15163  0.14107  0.55633  1.0000
  C   C301      1.0  0.25821  0.11223  0.57215  1.0000
  C   C302      1.0  0.40065  0.03561  0.81291  1.0000
  C   C303      1.0  0.07948  0.13885  0.57838  1.0000
  H   H229      1.0  0.27587  0.08567  0.53469  1.0000
  S   S54       1.0  0.33715  0.99596  0.86458  1.0000
  H   H230      1.0  0.24206  0.98640  0.72057  1.0000
  P   P8        1.0  0.36725  0.05997  0.86480  1.0000
  H   H231      1.0  0.38382  0.12117  0.85624  1.0000
  C   C304      1.0  0.35590  0.12479  0.85216  1.0000
  C   C305      1.0  0.15890  0.00181  0.54369  1.0000
  H   H232      1.0  0.19149  0.01370  0.55910  1.0000
  C   C306      1.0  0.24791  0.10250  0.54115  1.0000
  C   C307      1.0  0.99845  0.02269  0.62297  1.0000
  H   H233      1.0  0.03443  0.11696  0.91551  1.0000
  H   H234      1.0  0.27737  0.07800  0.58671  1.0000
  S   S55       1.0  0.03843  0.07308  0.56348  1.0000
  H   H235      1.0  0.11610  0.02949  0.56658  1.0000
  C   C308      1.0  0.26277  0.12671  0.59534  1.0000
  C   C309      1.0  0.25430  0.11463  0.59073  1.0000
  C   C310      1.0  0.38020  0.05063  0.84435  1.0000
  C   C311      1.0  0.01362  0.15087  0.55487  1.0000
  H   H236      1.0  0.16717  0.00282  0.65460  1.0000
  C   C312      1.0  0.17668  0.06008  0.56486  1.0000
  H   H237      1.0  0.23585  0.06001  0.67247  1.0000
  S   S56       1.0  0.02231  0.10301  0.52758  1.0000
  C   C313      1.0  0.27545  0.13614  0.58160  1.0000
  C   C314      1.0  0.19335  0.12215  0.58804  1.0000
  C   C315      1.0  0.27328  0.06767  0.58191  1.0000
  H   H238      1.0  0.28221  0.14519  0.58541  1.0000
  C   C316      1.0  0.10975  0.08484  0.53625  1.0000
  C   C317      1.0  0.00593  0.13492  0.63805  1.0000
  H   H239      1.0  0.18928  0.00282  0.68819  1.0000
  C   C318      1.0  0.37961  0.03246  0.84340  1.0000
  H   H240      1.0  0.33467  0.03530  0.73818  1.0000
  C   C319      1.0  0.27959  0.13366  0.56314  1.0000
  H   H241      1.0  0.08729  0.14940  0.57702  1.0000
  C   C320      1.0  0.14122  0.00213  0.61675  1.0000
  P   P9        1.0  0.24680  0.09702  0.56617  1.0000
  C   C321      1.0  0.41607  0.98846  0.92580  1.0000
  H   H242      1.0  0.18558  0.13620  0.58932  1.0000
  C   C322      1.0  0.27099  0.12179  0.55839  1.0000
  C   C323      1.0  0.25874  0.07278  0.57207  1.0000
  H   H243      1.0  0.28958  0.14087  0.55258  1.0000
  C   C324      1.0  0.11370  0.01429  0.51596  1.0000
  H   H244      1.0  0.14954  0.04813  0.55698  1.0000
  C   C325      1.0  0.21248  0.11893  0.57990  1.0000
  H   H245      1.0  0.45070  0.18015  0.54004  1.0000
  H   H246      1.0  0.11599  0.11788  0.57477  1.0000
  H   H247      1.0  0.12176  0.14995  0.56466  1.0000
  H   H248      1.0  0.38897  0.01113  0.82705  1.0000
  C   C326      1.0  0.03639  0.99705  0.53115  1.0000
  C   C327      1.0  0.00941  0.14432  0.57432  1.0000
  H   H249      1.0  0.00241  0.11014  0.58934  1.0000
  C   C328      1.0  0.42863  0.15530  0.64258  1.0000
  H   H250      1.0  0.15685  0.99879  0.53125  1.0000
  Fe  Fe29      1.0  0.01408  0.07834  0.54985  1.0000
  P   P10       1.0  0.05737  0.17602  0.88732  1.0000
  H   H251      1.0  0.27446  0.12007  0.54402  1.0000
  H   H252      1.0  0.00208  0.07662  0.59825  1.0000
  H   H253      1.0  0.13239  0.99673  0.55991  1.0000
  H   H254      1.0  0.05277  0.16975  0.66430  1.0000
  C   C329      1.0  0.34551  0.09619  0.85536  1.0000
  H   H255      1.0  0.40839  0.03008  0.80062  1.0000
  H   H256      1.0  0.04827  0.02115  0.51630  1.0000
  C   C330      1.0  0.14461  0.01700  0.64019  1.0000
  C   C331      1.0  0.06580  0.12180  0.56377  1.0000
  P   P11       1.0  0.18499  0.16153  0.68094  1.0000
  H   H257      1.0  0.32897  0.12398  0.84827  1.0000
  H   H258      1.0  0.40284  0.17271  0.61870  1.0000
  C   C332      1.0  0.01217  0.00610  0.62377  1.0000
  H   H259      1.0  0.02507  0.00573  0.61322  1.0000
  C   C333      1.0  0.01464  0.15810  0.61009  1.0000
  H   H260      1.0  0.11706  0.12935  0.88909  1.0000
  H   H261      1.0  0.10927  0.09789  0.63626  1.0000
  H   H262      1.0  0.28240  0.99508  0.66874  1.0000
  C   C334      1.0  0.34215  0.02828  0.79769  1.0000
  H   H263      1.0  0.25870  0.02926  0.56676  1.0000
  C   C335      1.0  0.10580  0.03079  0.57936  1.0000
  C   C336      1.0  0.11707  0.06798  0.53013  1.0000
  C   C337      1.0  0.20349  0.17110  0.68345  1.0000
  C   C338      1.0  0.21552  0.17950  0.66768  1.0000
  H   H264      1.0  0.30087  0.00660  0.68432  1.0000
  C   C339      1.0  0.26290  0.04005  0.57077  1.0000
  H   H265      1.0  0.12548  0.13130  0.85463  1.0000
  H   H266      1.0  0.40553  0.03719  0.86608  1.0000
  C   C340      1.0  0.38537  0.05479  0.91269  1.0000
  H   H267      1.0  0.40108  0.12334  0.65359  1.0000
  H   H268      1.0  0.21938  0.13072  0.57454  1.0000
  C   C341      1.0  0.25396  0.05887  0.56611  1.0000
  C   C342      1.0  0.40156  0.05350  0.81398  1.0000
  H   H269      1.0  0.48051  0.15170  0.59497  1.0000
  H   H270      1.0  0.22228  0.12754  0.50822  1.0000
  H   H271      1.0  0.02771  0.14680  0.54694  1.0000
  H   H272      1.0  0.13537  0.09539  0.60870  1.0000
  H   H273      1.0  0.30946  0.04847  0.85542  1.0000
  H   H274      1.0  0.39209  0.07504  0.82997  1.0000
  C   C343      1.0  0.37426  0.05913  0.89937  1.0000
  C   C344      1.0  0.24999  0.11056  0.50221  1.0000
  C   C345      1.0  0.14770  0.00423  0.57648  1.0000
  H   H275      1.0  0.12403  0.02853  0.62319  1.0000
  H   H276      1.0  0.05894  0.13532  0.90096  1.0000
  S   S57       1.0  0.02782  0.05781  0.53125  1.0000
  C   C346      1.0  0.41195  0.13101  0.64582  1.0000
  H   H277      1.0  0.15408  0.15524  0.55235  1.0000
  H   H278      1.0  0.42103  0.11519  0.62419  1.0000
  C   C347      1.0  0.43711  0.13672  0.61860  1.0000
  C   C348      1.0  0.45966  0.15023  0.58079  1.0000
  C   C349      1.0  0.42319  0.12660  0.62897  1.0000
  S   S58       1.0  0.06600  0.02426  0.55531  1.0000
  C   C350      1.0  0.26404  0.09477  0.52911  1.0000
  C   C351      1.0  0.43968  0.15117  0.62553  1.0000
  C   C352      1.0  0.09677  0.02345  0.52588  1.0000
  P   P12       1.0  0.13020  0.00187  0.59830  1.0000
  H   H279      1.0  0.46048  0.10514  0.63328  1.0000
  H   H280      1.0  0.38790  0.00971  0.79264  1.0000
  C   C353      1.0  0.39661  0.99877  0.78540  1.0000
  C   C354      1.0  0.37659  0.09461  0.85946  1.0000
  C   C355      1.0  0.10666  0.07330  0.59831  1.0000
  H   H281      1.0  0.36033  0.06780  0.90203  1.0000
  H   H282      1.0  0.46357  0.03263  0.75151  1.0000
  H   H283      1.0  0.39623  0.03858  0.76428  1.0000
  C   C356      1.0  0.41474  0.14526  0.65271  1.0000
  Fe  Fe30      1.0  0.05280  0.05396  0.54333  1.0000
  H   H284      1.0  0.08147  0.14319  0.54853  1.0000
  H   H285      1.0  0.46358  0.08194  0.80353  1.0000
  H   H286      1.0  0.02029  0.18124  0.66006  1.0000
  H   H287      1.0  0.24307  0.06250  0.55815  1.0000
  H   H288      1.0  0.41230  0.04095  0.91943  1.0000
  C   C357      1.0  0.09097  0.14955  0.88829  1.0000
  H   H289      1.0  0.20479  0.04438  0.55693  1.0000
  H   H290      1.0  0.37125  0.02403  0.85477  1.0000
  H   H291      1.0  0.08752  0.14859  0.90334  1.0000
  C   C358      1.0  0.26504  0.09878  0.50973  1.0000
  Fe  Fe31      1.0  0.04815  0.09592  0.53995  1.0000
  H   H292      1.0  0.19715  0.16350  0.71392  1.0000
  C   C359      1.0  0.30226  0.00541  0.82912  1.0000
  C   C360      1.0  0.08673  0.01335  0.54193  1.0000
  C   C361      1.0  0.45101  0.10158  0.58087  1.0000
  H   H293      1.0  0.05504  0.17908  0.72369  1.0000
  C   C362      1.0  0.16442  0.00957  0.57569  1.0000
  C   C363      1.0  0.07439  0.04419  0.59423  1.0000
  H   H294      1.0  0.22078  0.17835  0.71769  1.0000
  C   C364      1.0  0.30031  0.98741  0.82958  1.0000
  C   C365      1.0  0.46948  0.01772  0.75446  1.0000
  C   C366      1.0  0.21960  0.17830  0.70371  1.0000
  H   H295      1.0  0.00092  0.13295  0.92092  1.0000
  H   H296      1.0  0.23038  0.99015  0.55700  1.0000
  C   C367      1.0  0.36855  0.18331  0.65307  1.0000
  H   H297      1.0  0.32301  0.18062  0.54393  1.0000
  H   H298      1.0  0.39275  0.18114  0.55464  1.0000
  H   H299      1.0  0.01292  0.16637  0.59634  1.0000
  C   C368      1.0  0.16255  0.17687  0.68709  1.0000
  H   H300      1.0  0.48787  0.00719  0.87008  1.0000
  C   C369      1.0  0.18482  0.17777  0.64328  1.0000
  C   C370      1.0  0.14808  0.17807  0.67814  1.0000
  C   C371      1.0  0.18772  0.17773  0.62423  1.0000
  H   H301      1.0  0.29914  0.17882  0.59837  1.0000
  S   S59       1.0  0.14216  0.98383  0.51016  1.0000
  H   H302      1.0  0.03849  0.32077  0.05294  1.0000
  H   H303      1.0  0.00526  0.37845  0.12832  1.0000
  C   C372      1.0  0.00852  0.34760  0.02501  1.0000
  C   C373      1.0  0.01203  0.27788  0.03042  1.0000
  C   C374      1.0  0.26858  0.26913  0.98403  1.0000
  H   H304      1.0  0.48708  0.30740  0.27359  1.0000
  H   H305      1.0  0.02014  0.23033  0.04437  1.0000
  C   C375      1.0  0.02207  0.24406  0.03613  1.0000
  C   C376      1.0  0.01122  0.33577  0.01266  1.0000
  C   C377      1.0  0.06222  0.31266  0.98332  1.0000
  C   C378      1.0  0.01827  0.34218  0.03955  1.0000
  C   C379      1.0  0.03654  0.24569  0.02022  1.0000
  H   H306      1.0  0.99574  0.25211  0.99017  1.0000
  C   C380      1.0  0.24949  0.26894  0.98875  1.0000
  C   C381      1.0  0.03109  0.32504  0.04152  1.0000
  C   C382      1.0  0.14261  0.37860  0.98357  1.0000
  C   C383      1.0  0.99390  0.30070  0.99112  1.0000
  C   C384      1.0  0.00894  0.30990  0.98610  1.0000
  H   H307      1.0  0.99812  0.36061  0.02391  1.0000
  C   C385      1.0  0.03868  0.26340  0.00927  1.0000
  H   H308      1.0  0.99851  0.25892  0.05347  1.0000
  H   H309      1.0  0.04590  0.23318  0.01614  1.0000
  H   H310      1.0  0.01547  0.35107  0.04955  1.0000
  H   H311      1.0  0.05947  0.32019  0.99444  1.0000
  H   H312      1.0  0.24350  0.26137  0.00242  1.0000
  H   H313      1.0  0.48871  0.28133  0.30156  1.0000
  C   C386      1.0  0.00991  0.26017  0.04129  1.0000
  P   P13       1.0  0.02738  0.30258  0.99924  1.0000
  C   C387      1.0  0.02396  0.31844  0.01464  1.0000
  H   H314      1.0  0.00224  0.29019  0.03448  1.0000
  C   C388      1.0  0.03399  0.31323  0.02908  1.0000
  H   H315      1.0  0.00287  0.34005  0.00207  1.0000
  H   H316      1.0  0.27740  0.26172  0.99404  1.0000
  H   H317      1.0  0.14804  0.36637  0.99341  1.0000
  C   C389      1.0  0.02617  0.27963  0.01407  1.0000
  H   H318      1.0  0.04379  0.29987  0.03093  1.0000
  C   C390      1.0  0.04934  0.30273  0.98232  1.0000
  H   H319      1.0  0.99882  0.26527  0.08526  1.0000
  H   H320      1.0  0.00139  0.29092  0.09868  1.0000
  H   H321      1.0  0.99326  0.28851  0.00247  1.0000
  H   H322      1.0  0.18588  0.33342  0.98898  1.0000
  H   H323      1.0  0.40726  0.38146  0.45770  1.0000
  H   H324      1.0  0.04983  0.26420  0.99690  1.0000
  C   C391      1.0  0.99010  0.28344  0.10503  1.0000
  H   H325      1.0  0.38494  0.35786  0.47797  1.0000
  H   H326      1.0  0.15785  0.32997  0.98004  1.0000
  H   H327      1.0  0.42892  0.33691  0.52140  1.0000
  H   H328      1.0  0.36072  0.29021  0.49388  1.0000
  Fe  Fe32      1.0  0.05726  0.26874  0.87459  1.0000
  S   S60       1.0  0.05895  0.28609  0.89369  1.0000
  S   S61       1.0  0.03081  0.27582  0.86375  1.0000
  Fe  Fe33      1.0  0.09283  0.24110  0.88159  1.0000
  S   S62       1.0  0.09765  0.25598  0.90145  1.0000
  H   H329      1.0  0.00926  0.23097  0.87487  1.0000
  Fe  Fe34      1.0  0.06673  0.25874  0.91323  1.0000
  S   S63       1.0  0.05483  0.25583  0.94435  1.0000
  Fe  Fe35      1.0  0.08951  0.28202  0.88035  1.0000
  S   S64       1.0  0.10390  0.30651  0.86981  1.0000
  S   S65       1.0  0.06266  0.24155  0.89523  1.0000
  S   S66       1.0  0.08717  0.26700  0.85927  1.0000
  Fe  Fe36      1.0  0.19298  0.37025  0.90764  1.0000
  C   C392      1.0  0.40989  0.36037  0.50848  1.0000
  H   H330      1.0  0.07018  0.33659  0.87681  1.0000
  Fe  Fe37      1.0  0.21034  0.34464  0.87907  1.0000
  S   S67       1.0  0.18320  0.34805  0.87077  1.0000
  S   S68       1.0  0.23643  0.32573  0.86637  1.0000
  H   H331      1.0  0.17481  0.22687  0.82515  1.0000
  H   H332      1.0  0.02566  0.19869  0.77972  1.0000
  Fe  Fe38      1.0  0.17025  0.34509  0.90143  1.0000
  S   S69       1.0  0.15081  0.32551  0.91783  1.0000
  S   S70       1.0  0.20825  0.37520  0.87738  1.0000
  S   S71       1.0  0.19772  0.33920  0.90988  1.0000
  S   S72       1.0  0.45959  0.26281  0.53979  1.0000
  Fe  Fe39      1.0  0.34450  0.35809  0.57025  1.0000
  S   S73       1.0  0.33366  0.34948  0.60120  1.0000
  S   S74       1.0  0.37500  0.35027  0.55682  1.0000
  S   S75       1.0  0.02656  0.28233  0.77976  1.0000
  H   H333      1.0  0.21757  0.32028  0.97263  1.0000
  C   C393      1.0  0.28310  0.27124  0.60012  1.0000
  H   H334      1.0  0.02522  0.22568  0.68903  1.0000
  Fe  Fe40      1.0  0.30800  0.34721  0.59307  1.0000
  S   S76       1.0  0.29708  0.32157  0.61021  1.0000
  C   C394      1.0  0.01304  0.27746  0.81756  1.0000
  S   S77       1.0  0.32015  0.35317  0.56204  1.0000
  Fe  Fe41      1.0  0.43183  0.25552  0.54293  1.0000
  S   S78       1.0  0.42563  0.24939  0.57428  1.0000
  S   S79       1.0  0.40809  0.27368  0.52944  1.0000
  Fe  Fe42      1.0  0.43935  0.21970  0.57215  1.0000
  Fe  Fe43      1.0  0.45424  0.25426  0.57124  1.0000
  S   S80       1.0  0.44384  0.22535  0.54064  1.0000
  Fe  Fe44      1.0  0.24244  0.28354  0.78260  1.0000
  S   S81       1.0  0.23641  0.25734  0.80317  1.0000
  S   S82       1.0  0.23349  0.31288  0.78781  1.0000
  Fe  Fe45      1.0  0.25758  0.26405  0.74998  1.0000
  S   S83       1.0  0.25327  0.23586  0.76763  1.0000
  S   S84       1.0  0.26755  0.27028  0.71857  1.0000
  Fe  Fe46      1.0  0.22556  0.25167  0.78081  1.0000
  S   S85       1.0  0.19792  0.24250  0.78916  1.0000
  Fe  Fe47      1.0  0.26459  0.24342  0.78855  1.0000
  H   H335      1.0  0.47644  0.32573  0.54493  1.0000
  S   S86       1.0  0.22892  0.27924  0.76147  1.0000
  S   S87       1.0  0.27160  0.27033  0.76969  1.0000
  Fe  Fe48      1.0  0.22781  0.24682  0.61358  1.0000
  S   S88       1.0  0.20383  0.27024  0.60670  1.0000
  S   S89       1.0  0.25018  0.23568  0.59060  1.0000
  Fe  Fe49      1.0  0.21690  0.24763  0.65500  1.0000
  S   S90       1.0  0.19225  0.27128  0.65137  1.0000
  S   S91       1.0  0.22144  0.23453  0.68415  1.0000
  Fe  Fe50      1.0  0.18682  0.25529  0.63278  1.0000
  S   S92       1.0  0.15719  0.25099  0.63834  1.0000
  Fe  Fe51      1.0  0.21173  0.28370  0.62588  1.0000
  S   S93       1.0  0.21391  0.31419  0.61769  1.0000
  S   S94       1.0  0.21026  0.23071  0.63827  1.0000
  S   S95       1.0  0.23687  0.26114  0.63104  1.0000
  H   H336      1.0  0.01738  0.29335  0.90345  1.0000
  C   C395      1.0  0.01397  0.27689  0.83594  1.0000
  C   C396      1.0  0.35946  0.22049  0.65733  1.0000
  C   C397      1.0  0.15163  0.23579  0.62739  1.0000
  C   C398      1.0  0.16311  0.23057  0.61093  1.0000
  C   C399      1.0  0.15693  0.22048  0.60130  1.0000
  C   C400      1.0  0.13961  0.21503  0.60838  1.0000
  C   C401      1.0  0.12868  0.21937  0.62537  1.0000
  C   C402      1.0  0.13455  0.22992  0.63468  1.0000
  H   H337      1.0  0.17630  0.23504  0.60517  1.0000
  H   H338      1.0  0.27132  0.29577  0.93984  1.0000
  H   H339      1.0  0.11533  0.21521  0.63100  1.0000
  H   H340      1.0  0.12567  0.23376  0.64747  1.0000
  C   C403      1.0  0.25844  0.21176  0.59857  1.0000
  H   H341      1.0  0.25827  0.21635  0.66533  1.0000
  C   C404      1.0  0.29734  0.22237  0.72382  1.0000
  S   S96       1.0  0.45654  0.27277  0.58928  1.0000
  C   C405      1.0  0.09011  0.33413  0.81212  1.0000
  H   H342      1.0  0.22337  0.27808  0.97968  1.0000
  H   H343      1.0  0.28704  0.21230  0.58468  1.0000
  H   H344      1.0  0.18836  0.32520  0.58946  1.0000
  H   H345      1.0  0.23123  0.20668  0.61348  1.0000
  C   C406      1.0  0.19616  0.22521  0.77832  1.0000
  C   C407      1.0  0.00222  0.32312  0.84958  1.0000
  C   C408      1.0  0.99837  0.29099  0.93048  1.0000
  H   H346      1.0  0.31623  0.27329  0.53885  1.0000
  C   C409      1.0  0.21010  0.21955  0.76337  1.0000
  H   H347      1.0  0.19279  0.34943  0.65598  1.0000
  C   C410      1.0  0.17819  0.31646  0.59254  1.0000
  H   H348      1.0  0.22248  0.22544  0.75852  1.0000
  H   H349      1.0  0.14940  0.25287  0.75638  1.0000
  C   C411      1.0  0.12362  0.19269  0.84950  1.0000
  S   S97       1.0  0.11305  0.21464  0.87560  1.0000
  C   C412      1.0  0.25425  0.26140  0.70850  1.0000
  C   C413      1.0  0.24062  0.25173  0.72014  1.0000
  C   C414      1.0  0.23073  0.24350  0.71245  1.0000
  C   C415      1.0  0.23386  0.24553  0.69301  1.0000
  C   C416      1.0  0.24706  0.25575  0.68119  1.0000
  C   C417      1.0  0.25742  0.26353  0.68897  1.0000
  H   H350      1.0  0.23786  0.25031  0.73514  1.0000
  H   H351      1.0  0.22060  0.23554  0.72159  1.0000
  H   H352      1.0  0.24963  0.25727  0.66615  1.0000
  H   H353      1.0  0.26791  0.27111  0.67989  1.0000
  C   C418      1.0  0.15333  0.29237  0.60097  1.0000
  H   H354      1.0  0.05602  0.29711  0.74605  1.0000
  C   C419      1.0  0.23669  0.31701  0.61616  1.0000
  C   C420      1.0  0.24776  0.30486  0.62840  1.0000
  C   C421      1.0  0.26603  0.30685  0.62683  1.0000
  C   C422      1.0  0.27341  0.32102  0.61301  1.0000
  C   C423      1.0  0.26221  0.33359  0.60109  1.0000
  C   C424      1.0  0.24388  0.33153  0.60265  1.0000
  H   H355      1.0  0.24221  0.29396  0.63923  1.0000
  H   H356      1.0  0.27456  0.29717  0.63621  1.0000
  H   H357      1.0  0.26786  0.34451  0.59032  1.0000
  H   H358      1.0  0.23546  0.34088  0.59304  1.0000
  C   C425      1.0  0.38318  0.32826  0.55053  1.0000
  C   C426      1.0  0.40087  0.31783  0.55329  1.0000
  C   C427      1.0  0.40821  0.30068  0.54754  1.0000
  C   C428      1.0  0.39813  0.29416  0.53844  1.0000
  C   C429      1.0  0.38031  0.30448  0.53585  1.0000
  C   C430      1.0  0.37272  0.32139  0.54213  1.0000
  H   H359      1.0  0.40899  0.32303  0.55983  1.0000
  H   H360      1.0  0.42193  0.29280  0.54965  1.0000
  H   H361      1.0  0.37244  0.29946  0.52887  1.0000
  H   H362      1.0  0.35906  0.32937  0.53995  1.0000
  C   C431      1.0  0.09193  0.34133  0.75923  1.0000
  S   S98       1.0  0.42685  0.19660  0.59401  1.0000
  C   C432      1.0  0.07881  0.35209  0.80940  1.0000
  C   C433      1.0  0.30160  0.22740  0.70419  1.0000
  C   C434      1.0  0.23432  0.33826  0.92891  1.0000
  C   C435      1.0  0.04579  0.27791  0.71883  1.0000
  H   H363      1.0  0.08728  0.27133  0.57955  1.0000
  C   C436      1.0  0.27753  0.20377  0.59387  1.0000
  C   C437      1.0  0.99369  0.33623  0.83582  1.0000
  H   H364      1.0  0.16549  0.21697  0.58830  1.0000
  C   C438      1.0  0.08280  0.30363  0.95510  1.0000
  C   C439      1.0  0.23536  0.32167  0.84481  1.0000
  C   C440      1.0  0.24802  0.30680  0.83749  1.0000
  C   C441      1.0  0.24736  0.30366  0.82012  1.0000
  C   C442      1.0  0.23441  0.31578  0.80984  1.0000
  C   C443      1.0  0.22216  0.33090  0.81694  1.0000
  C   C444      1.0  0.22229  0.33353  0.83456  1.0000
  H   H365      1.0  0.25828  0.29766  0.84529  1.0000
  H   H366      1.0  0.25707  0.29215  0.81451  1.0000
  H   H367      1.0  0.21232  0.34049  0.80893  1.0000
  H   H368      1.0  0.21274  0.34526  0.83980  1.0000
  H   H369      1.0  0.48154  0.22976  0.49374  1.0000
  C   C445      1.0  0.26499  0.28842  0.95343  1.0000
  C   C446      1.0  0.30500  0.21459  0.65882  1.0000
  C   C447      1.0  0.46642  0.30192  0.69150  1.0000
  C   C448      1.0  0.17698  0.26688  0.56226  1.0000
  Fe  Fe52      1.0  0.47134  0.23204  0.54027  1.0000
  C   C449      1.0  0.28710  0.25182  0.60176  1.0000
  C   C450      1.0  0.11641  0.31166  0.88373  1.0000
  C   C451      1.0  0.12406  0.32777  0.87709  1.0000
  C   C452      1.0  0.13465  0.33209  0.88748  1.0000
  C   C453      1.0  0.13750  0.32037  0.90466  1.0000
  C   C454      1.0  0.12955  0.30442  0.91150  1.0000
  C   C455      1.0  0.11906  0.30002  0.90103  1.0000
  H   H370      1.0  0.12188  0.33689  0.86379  1.0000
  H   H371      1.0  0.14051  0.34454  0.88224  1.0000
  H   H372      1.0  0.13174  0.29531  0.92479  1.0000
  H   H373      1.0  0.11317  0.28759  0.90625  1.0000
  C   C456      1.0  0.02893  0.27836  0.80313  1.0000
  C   C457      1.0  0.04832  0.22737  0.85207  1.0000
  H   H374      1.0  0.16530  0.19885  0.78003  1.0000
  C   C458      1.0  0.03094  0.27636  0.84029  1.0000
  C   C459      1.0  0.04721  0.27619  0.82610  1.0000
  C   C460      1.0  0.04620  0.27721  0.80744  1.0000
  H   H375      1.0  0.06039  0.27578  0.82939  1.0000
  H   H376      1.0  0.05856  0.27786  0.79633  1.0000
  H   H377      1.0  0.38741  0.25022  0.58884  1.0000
  C   C461      1.0  0.03191  0.25176  0.95184  1.0000
  C   C462      1.0  0.41044  0.18620  0.58968  1.0000
  H   H378      1.0  0.15289  0.35204  0.52337  1.0000
  H   H379      1.0  0.24132  0.19374  0.68965  1.0000
  H   H380      1.0  0.48426  0.34137  0.58148  1.0000
  C   C463      1.0  0.19393  0.36027  0.62653  1.0000
  H   H381      1.0  0.23871  0.21202  0.85694  1.0000
  H   H382      1.0  0.38755  0.28282  0.73056  1.0000
  H   H383      1.0  0.06277  0.21461  0.87456  1.0000
  H   H384      1.0  0.34368  0.20969  0.59377  1.0000
  H   H385      1.0  0.09671  0.24620  0.71709  1.0000
  C   C464      1.0  0.16973  0.23607  0.69880  1.0000
  H   H386      1.0  0.41311  0.34160  0.72534  1.0000
  C   C465      1.0  0.29570  0.28195  0.58806  1.0000
  C   C466      1.0  0.01229  0.35800  0.83534  1.0000
  P   P14       1.0  0.02223  0.23440  0.75244  1.0000
  C   C467      1.0  0.02902  0.22084  0.73427  1.0000
  C   C468      1.0  0.02551  0.25771  0.74024  1.0000
  C   C469      1.0  0.04330  0.26033  0.72983  1.0000
  C   C470      1.0  0.17391  0.31440  0.95887  1.0000
  H   H387      1.0  0.36532  0.26015  0.56776  1.0000
  C   C471      1.0  0.47314  0.33179  0.69060  1.0000
  P   P15       1.0  0.03849  0.35041  0.85769  1.0000
  C   C472      1.0  0.02365  0.22903  0.71693  1.0000
  C   C473      1.0  0.46313  0.37331  0.63724  1.0000
  H   H388      1.0  0.40241  0.32495  0.48354  1.0000
  C   C474      1.0  0.03595  0.22450  0.77043  1.0000
  C   C475      1.0  0.03466  0.20665  0.78178  1.0000
  C   C476      1.0  0.03429  0.37442  0.86000  1.0000
  C   C477      1.0  0.05623  0.20922  0.79914  1.0000
  C   C478      1.0  0.25972  0.34961  0.72477  1.0000
  C   C479      1.0  0.19184  0.19868  0.76054  1.0000
  H   H389      1.0  0.18352  0.22390  0.55212  1.0000
  C   C480      1.0  0.31211  0.27332  0.57724  1.0000
  H   H390      1.0  0.05518  0.24872  0.73019  1.0000
  C   C481      1.0  0.12249  0.29526  0.55959  1.0000
  C   C482      1.0  0.31482  0.22385  0.55383  1.0000
  C   C483      1.0  0.05949  0.34444  0.84055  1.0000
  H   H391      1.0  0.01521  0.24313  0.71457  1.0000
  H   H392      1.0  0.06512  0.23547  0.79157  1.0000
  H   H393      1.0  0.00112  0.24007  0.78974  1.0000
  H   H394      1.0  0.13453  0.18477  0.85702  1.0000
  C   C484      1.0  0.41271  0.29194  0.72897  1.0000
  C   C485      1.0  0.16325  0.30502  0.54168  1.0000
  H   H395      1.0  0.44549  0.26257  0.66194  1.0000
  C   C486      1.0  0.09854  0.32192  0.76199  1.0000
  C   C487      1.0  0.13009  0.32616  0.75877  1.0000
  C   C488      1.0  0.11753  0.31434  0.76183  1.0000
  P   P16       1.0  0.15366  0.31578  0.76207  1.0000
  C   C489      1.0  0.16406  0.29644  0.75016  1.0000
  C   C490      1.0  0.16986  0.33134  0.75302  1.0000
  C   C491      1.0  0.16889  0.34488  0.73631  1.0000
  C   C492      1.0  0.18203  0.35640  0.72925  1.0000
  C   C493      1.0  0.19641  0.35415  0.73859  1.0000
  C   C494      1.0  0.19780  0.34024  0.75485  1.0000
  C   C495      1.0  0.18463  0.32885  0.76199  1.0000
  C   C496      1.0  0.18031  0.28370  0.75454  1.0000
  C   C497      1.0  0.18900  0.26940  0.74460  1.0000
  C   C498      1.0  0.18178  0.26784  0.73001  1.0000
  C   C499      1.0  0.16600  0.28081  0.72511  1.0000
  C   C500      1.0  0.15721  0.29513  0.73506  1.0000
  C   C501      1.0  0.15048  0.30990  0.78731  1.0000
  C   C502      1.0  0.15369  0.29124  0.79714  1.0000
  C   C503      1.0  0.14898  0.28703  0.81673  1.0000
  C   C504      1.0  0.14104  0.30136  0.82670  1.0000
  C   C505      1.0  0.13795  0.32002  0.81703  1.0000
  C   C506      1.0  0.14280  0.32432  0.79742  1.0000
  H   H396      1.0  0.08884  0.31274  0.76474  1.0000
  H   H397      1.0  0.12228  0.29921  0.76474  1.0000
  H   H398      1.0  0.15810  0.34644  0.72872  1.0000
  H   H399      1.0  0.18112  0.36695  0.71647  1.0000
  H   H400      1.0  0.20658  0.36304  0.73322  1.0000
  H   H401      1.0  0.20912  0.33815  0.76197  1.0000
  H   H402      1.0  0.18617  0.31787  0.77437  1.0000
  H   H403      1.0  0.18638  0.28478  0.76559  1.0000
  H   H404      1.0  0.20145  0.25954  0.74817  1.0000
  H   H405      1.0  0.18859  0.25672  0.72233  1.0000
  H   H406      1.0  0.16079  0.27979  0.71344  1.0000
  H   H407      1.0  0.14533  0.30533  0.73069  1.0000
  H   H408      1.0  0.15957  0.27987  0.78984  1.0000
  H   H409      1.0  0.15129  0.27261  0.82416  1.0000
  H   H410      1.0  0.13732  0.29801  0.84191  1.0000
  H   H411      1.0  0.13167  0.33117  0.82476  1.0000
  H   H412      1.0  0.14006  0.33890  0.79019  1.0000
  H   H413      1.0  0.22319  0.34143  0.94067  1.0000
  H   H414      1.0  0.06863  0.20958  0.94177  1.0000
  C   C507      1.0  0.03041  0.29292  0.71782  1.0000
  H   H415      1.0  0.23342  0.25956  0.95018  1.0000
  C   C508      1.0  0.06346  0.35721  0.82350  1.0000
  C   C509      1.0  0.04030  0.20267  0.73663  1.0000
  H   H416      1.0  0.99897  0.30929  0.85449  1.0000
  H   H417      1.0  0.09050  0.18545  0.89296  1.0000
  C   C510      1.0  0.27309  0.21360  0.65907  1.0000
  H   H418      1.0  0.08759  0.23063  0.85034  1.0000
  C   C511      1.0  0.00345  0.25062  0.97618  1.0000
  C   C512      1.0  0.08639  0.22085  0.72953  1.0000
  C   C513      1.0  0.98888  0.19028  0.64679  1.0000
  H   H419      1.0  0.24035  0.37397  0.62462  1.0000
  C   C514      1.0  0.24376  0.25719  0.84722  1.0000
  C   C515      1.0  0.23811  0.27850  0.97584  1.0000
  C   C516      1.0  0.03766  0.22498  0.84069  1.0000
  H   H420      1.0  0.43944  0.38136  0.60350  1.0000
  C   C517      1.0  0.06112  0.18560  0.90531  1.0000
  H   H421      1.0  0.15470  0.25527  0.67851  1.0000
  C   C518      1.0  0.03353  0.38020  0.77470  1.0000
  C   C519      1.0  0.42462  0.30422  0.71890  1.0000
  C   C520      1.0  0.25740  0.37258  0.65278  1.0000
  C   C521      1.0  0.03196  0.36254  0.77317  1.0000
  C   C522      1.0  0.18017  0.21742  0.78444  1.0000
  H   H422      1.0  0.47941  0.29121  0.55409  1.0000
  H   H423      1.0  0.41584  0.28206  0.74164  1.0000
  H   H424      1.0  0.99837  0.24118  0.93640  1.0000
  H   H425      1.0  0.04752  0.24903  0.76635  1.0000
  C   C523      1.0  0.28939  0.35531  0.64602  1.0000
  C   C524      1.0  0.39734  0.36646  0.49624  1.0000
  H   H426      1.0  0.29465  0.38280  0.79017  1.0000
  H   H427      1.0  0.30420  0.35525  0.64076  1.0000
  C   C525      1.0  0.99143  0.28768  0.90215  1.0000
  H   H428      1.0  0.33514  0.36215  0.66131  1.0000
  C   C526      1.0  0.09299  0.20473  0.76003  1.0000
  C   C527      1.0  0.35330  0.23530  0.57869  1.0000
  C   C528      1.0  0.33107  0.27164  0.53271  1.0000
  H   H429      1.0  0.06427  0.20327  0.81006  1.0000
  C   C529      1.0  0.04234  0.32287  0.91906  1.0000
  H   H430      1.0  0.29268  0.29699  0.58704  1.0000
  C   C530      1.0  0.99878  0.35362  0.82864  1.0000
  C   C531      1.0  0.31250  0.19143  0.80439  1.0000
  H   H431      1.0  0.17922  0.28418  0.52530  1.0000
  C   C532      1.0  0.19183  0.30694  0.94954  1.0000
  C   C533      1.0  0.22256  0.37827  0.68971  1.0000
  H   H432      1.0  0.11168  0.25061  0.59647  1.0000
  C   C534      1.0  0.03851  0.19283  0.85786  1.0000
  H   H433      1.0  0.19315  0.30004  0.93829  1.0000
  H   H434      1.0  0.02082  0.33268  0.96678  1.0000
  H   H435      1.0  0.99329  0.25095  0.89775  1.0000
  H   H436      1.0  0.30642  0.22808  0.59249  1.0000
  C   C535      1.0  0.36544  0.24685  0.57773  1.0000
  C   C536      1.0  0.08505  0.20588  0.74497  1.0000
  H   H437      1.0  0.05448  0.37097  0.82092  1.0000
  C   C537      1.0  0.05754  0.33380  0.88688  1.0000
  C   C538      1.0  0.02338  0.24727  0.93977  1.0000
  H   H438      1.0  0.04506  0.19597  0.74951  1.0000
  C   C539      1.0  0.15428  0.24922  0.69332  1.0000
  H   H439      1.0  0.23609  0.36731  0.91867  1.0000
  H   H440      1.0  0.23541  0.35024  0.76950  1.0000
  C   C540      1.0  0.31573  0.25395  0.57810  1.0000
  H   H441      1.0  0.15967  0.25305  0.55395  1.0000
  H   H442      1.0  0.18308  0.31366  0.56406  1.0000
  C   C541      1.0  0.31125  0.21581  0.77625  1.0000
  C   C542      1.0  0.17316  0.25203  0.55695  1.0000
  C   C543      1.0  0.32858  0.20626  0.76741  1.0000
  H   H443      1.0  0.38921  0.21934  0.64936  1.0000
  C   C544      1.0  0.22081  0.31967  0.67030  1.0000
  H   H444      1.0  0.27732  0.24351  0.61114  1.0000
  H   H445      1.0  0.10898  0.21698  0.77127  1.0000
  H   H446      1.0  0.12025  0.19203  0.67423  1.0000
  C   C545      1.0  0.36577  0.21321  0.60448  1.0000
  C   C546      1.0  0.15160  0.37930  0.84123  1.0000
  C   C547      1.0  0.04040  0.33791  0.88125  1.0000
  C   C548      1.0  0.44460  0.32671  0.65264  1.0000
  C   C549      1.0  0.14234  0.24682  0.85887  1.0000
  C   C550      1.0  0.33221  0.22294  0.55772  1.0000
  C   C551      1.0  0.43388  0.33838  0.66505  1.0000
  C   C552      1.0  0.17979  0.24485  0.84040  1.0000
  C   C553      1.0  0.17230  0.25493  0.85484  1.0000
  C   C554      1.0  0.15327  0.25650  0.86350  1.0000
  P   P17       1.0  0.18644  0.26724  0.86102  1.0000
  C   C555      1.0  0.18048  0.26688  0.88587  1.0000
  C   C556      1.0  0.21082  0.25572  0.85649  1.0000
  C   C557      1.0  0.22488  0.26622  0.85082  1.0000
  H   H447      1.0  0.03336  0.23652  0.82958  1.0000
  C   C558      1.0  0.01019  0.27291  0.73932  1.0000
  C   C559      1.0  0.11457  0.26320  0.58627  1.0000
  C   C560      1.0  0.21594  0.23606  0.85935  1.0000
  C   C561      1.0  0.18392  0.28103  0.89256  1.0000
  C   C562      1.0  0.17900  0.28101  0.91173  1.0000
  C   C563      1.0  0.17104  0.26665  0.92446  1.0000
  C   C564      1.0  0.16823  0.25211  0.91800  1.0000
  C   C565      1.0  0.17307  0.25212  0.89878  1.0000
  C   C566      1.0  0.18240  0.29073  0.84703  1.0000
  C   C567      1.0  0.16970  0.30543  0.85468  1.0000
  C   C568      1.0  0.16692  0.32362  0.84377  1.0000
  C   C569      1.0  0.17599  0.32714  0.82493  1.0000
  C   C570      1.0  0.18785  0.31239  0.81698  1.0000
  C   C571      1.0  0.19119  0.29428  0.82797  1.0000
  C   C572      1.0  0.46796  0.37665  0.58780  1.0000
  C   C573      1.0  0.37836  0.22439  0.60294  1.0000
  H   H448      1.0  0.19401  0.24465  0.83244  1.0000
  H   H449      1.0  0.14684  0.26517  0.87384  1.0000
  H   H450      1.0  0.22129  0.28137  0.84896  1.0000
  C   C574      1.0  0.16903  0.22758  0.71774  1.0000
  C   C575      1.0  0.27659  0.37232  0.64685  1.0000
  C   C576      1.0  0.39489  0.35360  0.48709  1.0000
  H   H451      1.0  0.20537  0.22761  0.86434  1.0000
  H   H452      1.0  0.19014  0.29229  0.88297  1.0000
  H   H453      1.0  0.18104  0.29240  0.91661  1.0000
  H   H454      1.0  0.16696  0.26689  0.93929  1.0000
  H   H455      1.0  0.16211  0.24092  0.92786  1.0000
  H   H456      1.0  0.17089  0.24067  0.89405  1.0000
  H   H457      1.0  0.16183  0.30295  0.86900  1.0000
  H   H458      1.0  0.15762  0.33498  0.84991  1.0000
  H   H459      1.0  0.17367  0.34126  0.81649  1.0000
  H   H460      1.0  0.19486  0.31507  0.80240  1.0000
  H   H461      1.0  0.20063  0.28308  0.82159  1.0000
  C   C577      1.0  0.22695  0.27866  0.89878  1.0000
  C   C578      1.0  0.22871  0.25951  0.90665  1.0000
  C   C579      1.0  0.23091  0.25275  0.92524  1.0000
  C   C580      1.0  0.23162  0.26510  0.93587  1.0000
  C   C581      1.0  0.23012  0.28434  0.92794  1.0000
  C   C582      1.0  0.22723  0.29103  0.90950  1.0000
  P   P18       1.0  0.23098  0.30055  0.94145  1.0000
  C   C583      1.0  0.20776  0.30911  0.95423  1.0000
  H   H462      1.0  0.21734  0.29126  0.67494  1.0000
  C   C584      1.0  0.48484  0.29308  0.69299  1.0000
  H   H463      1.0  0.00462  0.38087  0.86000  1.0000
  H   H464      1.0  0.20096  0.36791  0.78632  1.0000
  H   H465      1.0  0.27019  0.27797  0.60815  1.0000
  H   H466      1.0  0.02848  0.25672  0.97944  1.0000
  C   C585      1.0  0.14972  0.38005  0.96429  1.0000
  C   C586      1.0  0.15860  0.33721  0.52387  1.0000
  H   H467      1.0  0.29454  0.24088  0.69731  1.0000
  C   C587      1.0  0.24092  0.31988  0.92579  1.0000
  C   C588      1.0  0.25520  0.31671  0.91001  1.0000
  C   C589      1.0  0.26232  0.33165  0.89737  1.0000
  C   C590      1.0  0.25549  0.34987  0.90049  1.0000
  C   C591      1.0  0.24159  0.35314  0.91631  1.0000
  C   C592      1.0  0.09505  0.21267  0.83044  1.0000
  H   H468      1.0  0.22534  0.28403  0.88435  1.0000
  H   H469      1.0  0.22832  0.24997  0.89834  1.0000
  H   H470      1.0  0.23218  0.23790  0.93136  1.0000
  C   C593      1.0  0.04690  0.23492  0.77418  1.0000
  H   H471      1.0  0.22546  0.30582  0.90323  1.0000
  C   C594      1.0  0.31892  0.19252  0.72278  1.0000
  H   H472      1.0  0.30369  0.23619  0.55489  1.0000
  C   C595      1.0  0.20834  0.24866  0.56430  1.0000
  C   C596      1.0  0.99494  0.24620  0.96404  1.0000
  S   S99       1.0  0.13105  0.20423  0.59518  1.0000
  H   H473      1.0  0.07192  0.32266  0.90981  1.0000
  H   H474      1.0  0.41477  0.19759  0.55993  1.0000
  H   H475      1.0  0.27277  0.32914  0.88486  1.0000
  H   H476      1.0  0.44472  0.36987  0.67434  1.0000
  H   H477      1.0  0.26341  0.18864  0.79546  1.0000
  C   C597      1.0  0.11113  0.20826  0.85560  1.0000
  C   C598      1.0  0.17618  0.31193  0.50811  1.0000
  H   H478      1.0  0.12775  0.24783  0.86580  1.0000
  H   H479      1.0  0.29781  0.20913  0.54661  1.0000
  H   H480      1.0  0.01350  0.34483  0.77369  1.0000
  C   C599      1.0  0.30589  0.20491  0.73310  1.0000
  H   H481      1.0  0.21133  0.21236  0.82805  1.0000
  C   C600      1.0  0.40474  0.33497  0.49018  1.0000
  C   C601      1.0  0.10421  0.35313  0.75666  1.0000
  C   C602      1.0  0.04865  0.38080  0.86344  1.0000
  H   H482      1.0  0.16872  0.36825  0.78506  1.0000
  H   H483      1.0  0.33356  0.18773  0.69554  1.0000
  H   H484      1.0  0.09060  0.18826  0.71041  1.0000
  H   H485      1.0  0.00139  0.27706  0.84682  1.0000
  H   H486      1.0  0.24530  0.21080  0.81548  1.0000
  C   C603      1.0  0.30347  0.24316  0.59095  1.0000
  C   C604      1.0  0.25977  0.19317  0.71922  1.0000
  H   H487      1.0  0.29115  0.27894  0.96270  1.0000
  C   C605      1.0  0.46030  0.32133  0.69062  1.0000
  H   H488      1.0  0.00819  0.29262  0.93780  1.0000
  C   C606      1.0  0.00499  0.24436  0.94591  1.0000
  C   C607      1.0  0.09711  0.21848  0.84581  1.0000
  C   C608      1.0  0.40444  0.31756  0.69645  1.0000
  P   P19       1.0  0.22604  0.35629  0.66404  1.0000
  H   H489      1.0  0.16169  0.31318  0.95472  1.0000
  C   C609      1.0  0.10742  0.19700  0.82442  1.0000
  C   C610      1.0  0.23839  0.20146  0.81238  1.0000
  C   C611      1.0  0.24576  0.28839  0.95810  1.0000
  C   C612      1.0  0.33701  0.28331  0.51552  1.0000
  H   H490      1.0  0.03222  0.18937  0.92065  1.0000
  H   H491      1.0  0.36175  0.36231  0.51886  1.0000
  C   C613      1.0  0.17340  0.29893  0.52513  1.0000
  H   H492      1.0  0.40084  0.32752  0.68405  1.0000
  C   C614      1.0  0.02417  0.33485  0.89481  1.0000
  C   C615      1.0  0.17793  0.20435  0.77548  1.0000
  C   C616      1.0  0.22936  0.18728  0.66997  1.0000
  H   H493      1.0  0.01069  0.33858  0.89091  1.0000
  C   C617      1.0  0.01561  0.32750  0.85644  1.0000
  H   H494      1.0  0.45515  0.31468  0.65701  1.0000
  H   H495      1.0  0.07313  0.28631  0.94271  1.0000
  H   H496      1.0  0.03225  0.30655  0.70923  1.0000
  S   S100      1.0  0.48637  0.33903  0.63704  1.0000
  C   C618      1.0  0.20422  0.23371  0.55966  1.0000
  C   C619      1.0  0.42075  0.31691  0.70237  1.0000
  C   C620      1.0  0.04508  0.19890  0.79581  1.0000
  H   H497      1.0  0.38010  0.30569  0.70183  1.0000
  C   C621      1.0  0.39675  0.29238  0.72275  1.0000
  C   C622      1.0  0.15645  0.29900  0.61527  1.0000
  C   C623      1.0  0.16886  0.31103  0.61107  1.0000
  H   H498      1.0  0.14974  0.29419  0.62973  1.0000
  H   H499      1.0  0.17180  0.31561  0.62224  1.0000
  H   H500      1.0  0.35548  0.38186  0.59868  1.0000
  H   H501      1.0  0.17104  0.34112  0.49428  1.0000
  C   C624      1.0  0.41813  0.35393  0.71673  1.0000
  H   H502      1.0  0.32184  0.28181  0.56816  1.0000
  C   C625      1.0  0.10337  0.23384  0.74449  1.0000
  H   H503      1.0  0.32685  0.29404  0.50871  1.0000
  P   P20       1.0  0.11626  0.25123  0.74322  1.0000
  C   C626      1.0  0.10172  0.27408  0.73690  1.0000
  C   C627      1.0  0.12008  0.25110  0.76593  1.0000
  C   C628      1.0  0.10493  0.25139  0.78144  1.0000
  C   C629      1.0  0.10738  0.25221  0.79890  1.0000
  C   C630      1.0  0.12499  0.25270  0.80106  1.0000
  H   H504      1.0  0.01262  0.32491  0.92396  1.0000
  C   C631      1.0  0.13757  0.25231  0.76809  1.0000
  C   C632      1.0  0.10978  0.28946  0.72664  1.0000
  C   C633      1.0  0.09846  0.30737  0.72289  1.0000
  C   C634      1.0  0.07908  0.31012  0.72972  1.0000
  C   C635      1.0  0.07100  0.29495  0.74030  1.0000
  C   C636      1.0  0.08224  0.27700  0.74383  1.0000
  C   C637      1.0  0.13757  0.24605  0.72597  1.0000
  C   C638      1.0  0.13824  0.25416  0.70682  1.0000
  H   H505      1.0  0.00059  0.30182  0.72675  1.0000
  C   C639      1.0  0.02929  0.21922  0.70238  1.0000
  H   H506      1.0  0.35635  0.23477  0.65916  1.0000
  C   C640      1.0  0.15290  0.23223  0.73124  1.0000
  S   S101      1.0  0.99009  0.32329  0.75516  1.0000
  C   C641      1.0  0.25089  0.35576  0.65795  1.0000
  C   C642      1.0  0.17175  0.32392  0.97309  1.0000
  H   H507      1.0  0.09571  0.30396  0.94457  1.0000
  P   P21       1.0  0.33652  0.24270  0.56381  1.0000
  H   H508      1.0  0.09120  0.25098  0.78007  1.0000
  H   H509      1.0  0.09567  0.25228  0.81085  1.0000
  H   H510      1.0  0.12695  0.25297  0.81469  1.0000
  P   P22       1.0  0.43627  0.33262  0.68923  1.0000
  C   C643      1.0  0.31491  0.21517  0.69367  1.0000
  H   H511      1.0  0.12479  0.28765  0.72177  1.0000
  H   H512      1.0  0.10473  0.31923  0.71503  1.0000
  C   C644      1.0  0.14207  0.37411  0.83046  1.0000
  H   H513      1.0  0.07569  0.26553  0.75236  1.0000
  C   C645      1.0  0.42057  0.35406  0.65871  1.0000
  H   H514      1.0  0.36663  0.36919  0.64712  1.0000
  C   C646      1.0  0.00364  0.29113  0.91126  1.0000
  C   C647      1.0  0.99151  0.23841  0.78219  1.0000
  H   H515      1.0  0.15239  0.22474  0.74571  1.0000
  C   C648      1.0  0.43180  0.26716  0.63903  1.0000
  C   C649      1.0  0.43463  0.27154  0.65478  1.0000
  C   C650      1.0  0.42376  0.28768  0.66098  1.0000
  C   C651      1.0  0.41014  0.29956  0.65134  1.0000
  C   C652      1.0  0.40711  0.29514  0.63560  1.0000
  C   C653      1.0  0.41807  0.27885  0.62951  1.0000
  P   P23       1.0  0.39139  0.31150  0.62157  1.0000
  C   C654      1.0  0.37870  0.29913  0.61339  1.0000
  C   C655      1.0  0.37391  0.32682  0.63540  1.0000
  C   C656      1.0  0.37764  0.34352  0.63697  1.0000
  C   C657      1.0  0.36380  0.35604  0.64652  1.0000
  C   C658      1.0  0.34606  0.35204  0.65457  1.0000
  C   C659      1.0  0.34231  0.33526  0.65349  1.0000
  C   C660      1.0  0.35617  0.32266  0.64400  1.0000
  C   C661      1.0  0.37499  0.28158  0.62375  1.0000
  C   C662      1.0  0.36328  0.27318  0.61854  1.0000
  C   C663      1.0  0.35507  0.28227  0.60309  1.0000
  C   C664      1.0  0.35874  0.29965  0.59271  1.0000
  C   C665      1.0  0.37044  0.30806  0.59789  1.0000
  C   C666      1.0  0.40507  0.32544  0.60209  1.0000
  C   C667      1.0  0.42443  0.31896  0.59618  1.0000
  C   C668      1.0  0.43506  0.33006  0.58166  1.0000
  C   C669      1.0  0.42649  0.34776  0.57285  1.0000
  C   C670      1.0  0.40725  0.35428  0.57850  1.0000
  C   C671      1.0  0.39656  0.34319  0.59302  1.0000
  H   H516      1.0  0.44064  0.25501  0.63375  1.0000
  S   S102      1.0  0.46775  0.22400  0.57185  1.0000
  H   H517      1.0  0.28734  0.23203  0.73186  1.0000
  H   H518      1.0  0.40234  0.31234  0.65593  1.0000
  H   H519      1.0  0.41663  0.27560  0.61686  1.0000
  H   H520      1.0  0.39104  0.34717  0.63027  1.0000
  C   C672      1.0  0.35279  0.37210  0.50993  1.0000
  H   H521      1.0  0.32852  0.33220  0.65966  1.0000
  H   H522      1.0  0.35279  0.30995  0.64303  1.0000
  H   H523      1.0  0.38070  0.27461  0.63613  1.0000
  H   H524      1.0  0.36032  0.25973  0.62659  1.0000
  H   H525      1.0  0.34575  0.27594  0.59922  1.0000
  H   H526      1.0  0.35229  0.30681  0.58079  1.0000
  H   H527      1.0  0.37261  0.32177  0.59008  1.0000
  H   H528      1.0  0.43151  0.30533  0.60260  1.0000
  H   H529      1.0  0.44992  0.32471  0.57719  1.0000
  H   H530      1.0  0.43465  0.35628  0.56146  1.0000
  H   H531      1.0  0.40039  0.36769  0.57126  1.0000
  H   H532      1.0  0.38160  0.34841  0.59691  1.0000
  C   C673      1.0  0.14207  0.20013  0.70443  1.0000
  C   C674      1.0  0.12818  0.20197  0.69465  1.0000
  S   S103      1.0  0.10379  0.18949  0.80583  1.0000
  C   C675      1.0  0.31148  0.20859  0.54896  1.0000
  H   H533      1.0  0.27294  0.38194  0.82127  1.0000
  H   H534      1.0  0.13958  0.20839  0.71490  1.0000
  H   H535      1.0  0.11502  0.21179  0.69733  1.0000
  H   H536      1.0  0.99987  0.27750  0.81452  1.0000
  H   H537      1.0  0.18411  0.30717  0.49539  1.0000
  H   H538      1.0  0.46825  0.28970  0.61275  1.0000
  C   C676      1.0  0.20547  0.31838  0.96880  1.0000
  C   C677      1.0  0.26386  0.33871  0.65716  1.0000
  C   C678      1.0  0.28582  0.21765  0.66711  1.0000
  P   P24       1.0  0.32091  0.22181  0.66828  1.0000
  H   H539      1.0  0.26076  0.36150  0.89053  1.0000
  H   H540      1.0  0.05241  0.24060  0.84978  1.0000
  H   H541      1.0  0.09231  0.19286  0.77180  1.0000
  C   C679      1.0  0.47826  0.26912  0.59538  1.0000
  C   C680      1.0  0.10481  0.29091  0.56341  1.0000
  H   H542      1.0  0.04309  0.31686  0.93359  1.0000
  C   C681      1.0  0.31864  0.24686  0.65991  1.0000
  C   C682      1.0  0.32259  0.25776  0.67027  1.0000
  C   C683      1.0  0.32205  0.27692  0.66307  1.0000
  C   C684      1.0  0.31769  0.28528  0.64545  1.0000
  C   C685      1.0  0.31366  0.27455  0.63513  1.0000
  C   C686      1.0  0.31418  0.25542  0.64226  1.0000
  C   C687      1.0  0.21405  0.37450  0.67707  1.0000
  C   C688      1.0  0.48019  0.27972  0.60719  1.0000
  H   H543      1.0  0.02267  0.31683  0.86648  1.0000
  C   C689      1.0  0.15926  0.18772  0.70062  1.0000
  Fe  Fe53      1.0  0.17999  0.37840  0.87102  1.0000
  H   H544      1.0  0.04451  0.18491  0.80417  1.0000
  H   H545      1.0  0.41196  0.36324  0.66797  1.0000
  H   H546      1.0  0.04442  0.35185  0.77056  1.0000
  H   H547      1.0  0.32634  0.25142  0.68379  1.0000
  H   H548      1.0  0.32500  0.28528  0.67115  1.0000
  H   H549      1.0  0.31750  0.30005  0.63968  1.0000
  H   H550      1.0  0.31016  0.28111  0.62153  1.0000
  H   H551      1.0  0.31125  0.24739  0.63384  1.0000
  H   H552      1.0  0.26332  0.23083  0.84571  1.0000
  H   H553      1.0  0.04528  0.19377  0.69347  1.0000
  H   H554      1.0  0.22195  0.24733  0.56726  1.0000
  C   C690      1.0  0.05852  0.32617  0.90571  1.0000
  C   C691      1.0  0.04891  0.19960  0.93287  1.0000
  H   H555      1.0  0.21463  0.22078  0.55912  1.0000
  C   C692      1.0  0.41978  0.34174  0.51145  1.0000
  H   H556      1.0  0.99632  0.27134  0.74715  1.0000
  H   H557      1.0  0.42431  0.31443  0.50525  1.0000
  Fe  Fe54      1.0  0.99719  0.29904  0.77871  1.0000
  C   C693      1.0  0.25131  0.34300  0.74338  1.0000
  C   C694      1.0  0.21929  0.20228  0.81953  1.0000
  H   H558      1.0  0.09876  0.36810  0.75527  1.0000
  H   H559      1.0  0.13686  0.36127  0.83553  1.0000
  H   H560      1.0  0.23628  0.37026  0.69175  1.0000
  C   C695      1.0  0.39258  0.30524  0.70655  1.0000
  C   C696      1.0  0.04603  0.19295  0.72198  1.0000
  C   C697      1.0  0.02517  0.32729  0.91362  1.0000
  H   H561      1.0  0.08385  0.22030  0.82322  1.0000
  C   C698      1.0  0.23740  0.37084  0.82425  1.0000
  C   C699      1.0  0.25055  0.36352  0.80972  1.0000
  H   H562      1.0  0.30325  0.19827  0.62143  1.0000
  C   C700      1.0  0.18673  0.23549  0.55574  1.0000
  C   C701      1.0  0.13115  0.19088  0.68158  1.0000
  H   H563      1.0  0.25206  0.32805  0.74877  1.0000
  C   C702      1.0  0.42940  0.35367  0.69868  1.0000
  H   H564      1.0  0.01670  0.37120  0.82897  1.0000
  C   C703      1.0  0.12190  0.18719  0.83378  1.0000
  C   C704      1.0  0.25725  0.19235  0.75201  1.0000
  H   H565      1.0  0.28057  0.22358  0.67956  1.0000
  C   C705      1.0  0.34420  0.25796  0.54181  1.0000
  H   H566      1.0  0.38391  0.26534  0.50928  1.0000
  C   C706      1.0  0.37798  0.24132  0.58977  1.0000
  C   C707      1.0  0.10232  0.21854  0.75974  1.0000
  H   H567      1.0  0.23930  0.36574  0.83862  1.0000
  H   H568      1.0  0.26264  0.35277  0.81288  1.0000
  H   H569      1.0  0.47689  0.19211  0.54343  1.0000
  H   H570      1.0  0.45492  0.36826  0.63071  1.0000
  H   H571      1.0  0.14258  0.25845  0.59006  1.0000
  H   H572      1.0  0.37364  0.24461  0.53938  1.0000
  H   H573      1.0  0.10200  0.33022  0.80120  1.0000
  C   C708      1.0  0.15579  0.32425  0.54091  1.0000
  C   C709      1.0  0.23152  0.38260  0.78737  1.0000
  H   H574      1.0  0.40812  0.37032  0.63538  1.0000
  H   H575      1.0  0.25925  0.32557  0.66050  1.0000
  C   C710      1.0  0.32563  0.19256  0.54743  1.0000
  P   P25       1.0  0.15963  0.28839  0.56376  1.0000
  H   H576      1.0  0.05960  0.27987  0.71099  1.0000
  H   H577      1.0  0.30845  0.38055  0.50297  1.0000
  H   H578      1.0  0.45086  0.32190  0.62456  1.0000
  C   C711      1.0  0.34323  0.19193  0.55044  1.0000
  H   H579      1.0  0.14780  0.32920  0.55351  1.0000
  H   H580      1.0  0.15344  0.37059  0.85472  1.0000
  C   C712      1.0  0.36324  0.25545  0.53299  1.0000
  C   C713      1.0  0.22037  0.37433  0.60914  1.0000
  C   C714      1.0  0.12317  0.34561  0.75673  1.0000
  C   C715      1.0  0.32272  0.38213  0.50087  1.0000
  C   C716      1.0  0.33471  0.36950  0.51188  1.0000
  H   H581      1.0  0.99057  0.19860  0.70601  1.0000
  C   C717      1.0  0.99789  0.23515  0.76385  1.0000
  H   H582      1.0  0.12523  0.30763  0.54909  1.0000
  H   H583      1.0  0.16076  0.36901  0.95915  1.0000
  C   C718      1.0  0.13637  0.28358  0.56912  1.0000
  H   H584      1.0  0.43682  0.30383  0.72405  1.0000
  C   C719      1.0  0.20056  0.35651  0.64303  1.0000
  C   C720      1.0  0.13216  0.26761  0.58255  1.0000
  H   H585      1.0  0.03083  0.24622  0.92565  1.0000
  C   C721      1.0  0.07046  0.32617  0.84287  1.0000
  H   H586      1.0  0.30639  0.18573  0.81877  1.0000
  C   C722      1.0  0.36912  0.26708  0.51576  1.0000
  C   C723      1.0  0.37817  0.21175  0.65190  1.0000
  C   C724      1.0  0.02195  0.25329  0.97008  1.0000
  H   H587      1.0  0.13214  0.35494  0.75595  1.0000
  H   H588      1.0  0.14415  0.28258  0.60481  1.0000
  C   C725      1.0  0.21611  0.29886  0.70086  1.0000
  C   C726      1.0  0.22169  0.33395  0.67855  1.0000
  C   C727      1.0  0.02034  0.34520  0.84976  1.0000
  H   H589      1.0  0.14176  0.22802  0.84206  1.0000
  H   H590      1.0  0.32564  0.20641  0.63471  1.0000
  C   C728      1.0  0.08160  0.19708  0.91763  1.0000
  H   H591      1.0  0.98916  0.23252  0.73970  1.0000
  H   H592      1.0  0.26103  0.21645  0.72978  1.0000
  C   C729      1.0  0.09552  0.23481  0.72927  1.0000
  H   H593      1.0  0.16946  0.22139  0.79618  1.0000
  C   C730      1.0  0.28303  0.33853  0.65131  1.0000
  H   H594      1.0  0.29288  0.32539  0.65015  1.0000
  H   H595      1.0  0.30428  0.22900  0.76881  1.0000
  H   H596      1.0  0.19896  0.37157  0.59671  1.0000
  C   C731      1.0  0.10088  0.27485  0.57670  1.0000
  H   H597      1.0  0.22166  0.34064  0.70478  1.0000
  C   C732      1.0  0.05687  0.22733  0.78857  1.0000
  H   H598      1.0  0.06715  0.31575  0.85549  1.0000
  H   H599      1.0  0.25826  0.36385  0.78024  1.0000
  C   C733      1.0  0.16886  0.23496  0.83601  1.0000
  C   C734      1.0  0.35324  0.21863  0.59244  1.0000
  H   H600      1.0  0.09419  0.29990  0.55596  1.0000
  H   H601      1.0  0.18213  0.23216  0.68834  1.0000
  H   H602      1.0  0.07034  0.32405  0.72717  1.0000
  H   H603      1.0  0.01638  0.18630  0.89688  1.0000
  C   C735      1.0  0.34508  0.21073  0.66056  1.0000
  H   H604      1.0  0.25731  0.19936  0.76268  1.0000
  C   C736      1.0  0.16259  0.29780  0.58226  1.0000
  C   C737      1.0  0.17514  0.30984  0.57820  1.0000
  C   C738      1.0  0.07007  0.29374  0.95402  1.0000
  H   H605      1.0  0.36034  0.20630  0.55773  1.0000
  C   C739      1.0  0.25866  0.36888  0.71788  1.0000
  C   C740      1.0  0.35605  0.28110  0.50711  1.0000
  C   C741      1.0  0.08591  0.32115  0.82883  1.0000
  C   C742      1.0  0.19488  0.26527  0.56533  1.0000
  S   S104      1.0  0.28211  0.22069  0.80662  1.0000
  C   C743      1.0  0.24604  0.20076  0.61035  1.0000
  H   H606      1.0  0.15377  0.25292  0.78729  1.0000
  H   H607      1.0  0.41161  0.36970  0.51626  1.0000
  C   C744      1.0  0.42907  0.34648  0.62790  1.0000
  C   C745      1.0  0.14004  0.25277  0.78564  1.0000
  H   H608      1.0  0.19850  0.27674  0.56866  1.0000
  H   H609      1.0  0.09463  0.30719  0.83099  1.0000
  C   C746      1.0  0.05407  0.21259  0.86630  1.0000
  C   C747      1.0  0.21735  0.36139  0.64268  1.0000
  C   C748      1.0  0.27940  0.20642  0.64274  1.0000
  H   H610      1.0  0.21861  0.20212  0.74279  1.0000
  H   H611      1.0  0.22833  0.38076  0.59590  1.0000
  H   H612      1.0  0.46917  0.34681  0.68932  1.0000
  C   C749      1.0  0.00933  0.32539  0.97091  1.0000
  C   C750      1.0  0.24198  0.35560  0.75515  1.0000
  H   H613      1.0  0.36600  0.20010  0.61471  1.0000
  H   H614      1.0  0.25461  0.26529  0.84246  1.0000
  C   C751      1.0  0.24871  0.23771  0.84921  1.0000
  C   C752      1.0  0.21789  0.30226  0.68143  1.0000
  C   C753      1.0  0.04614  0.19115  0.91969  1.0000
  C   C754      1.0  0.04053  0.20122  0.70489  1.0000
  H   H615      1.0  0.09525  0.19986  0.91646  1.0000
  C   C755      1.0  0.15021  0.23576  0.84540  1.0000
  H   H616      1.0  0.32988  0.35782  0.52210  1.0000
  C   C756      1.0  0.20789  0.20636  0.75445  1.0000
  C   C757      1.0  0.03270  0.20770  0.84364  1.0000
  C   C758      1.0  0.99803  0.37217  0.77804  1.0000
  C   C759      1.0  0.41827  0.35810  0.64020  1.0000
  H   H617      1.0  0.99567  0.28788  0.88725  1.0000
  C   C760      1.0  0.44222  0.33077  0.63413  1.0000
  H   H618      1.0  0.99260  0.36349  0.81750  1.0000
  S   S105      1.0  0.16450  0.37583  0.90112  1.0000
  C   C761      1.0  0.01261  0.29033  0.72787  1.0000
  H   H619      1.0  0.33485  0.21211  0.75313  1.0000
  C   C762      1.0  0.01438  0.35850  0.77493  1.0000
  H   H620      1.0  0.18500  0.19084  0.61423  1.0000
  C   C763      1.0  0.23481  0.22713  0.85541  1.0000
  H   H621      1.0  0.07718  0.34727  0.75965  1.0000
  H   H622      1.0  0.08184  0.36200  0.79627  1.0000
  C   C764      1.0  0.25951  0.20203  0.73332  1.0000
  C   C765      1.0  0.38271  0.19321  0.64971  1.0000
  H   H623      1.0  0.12626  0.26395  0.70217  1.0000
  H   H624      1.0  0.38865  0.21981  0.61170  1.0000
  S   S106      1.0  0.29308  0.37695  0.59396  1.0000
  H   H625      1.0  0.42620  0.29117  0.67302  1.0000
  S   S107      1.0  0.19497  0.37913  0.93345  1.0000
  C   C766      1.0  0.99465  0.33188  0.96127  1.0000
  C   C767      1.0  0.33777  0.18916  0.77693  1.0000
  H   H626      1.0  0.18145  0.35570  0.62673  1.0000
  H   H627      1.0  0.18094  0.21710  0.72187  1.0000
  H   H628      1.0  0.26704  0.33976  0.71574  1.0000
  C   C768      1.0  0.24107  0.37492  0.74847  1.0000
  C   C769      1.0  0.34659  0.20709  0.55546  1.0000
  H   H629      1.0  0.21418  0.28526  0.70940  1.0000
  C   C770      1.0  0.31113  0.20800  0.64200  1.0000
  C   C771      1.0  0.30327  0.20849  0.79483  1.0000
  Fe  Fe55      1.0  0.31961  0.37958  0.60000  1.0000
  H   H630      1.0  0.42735  0.34978  0.61352  1.0000
  C   C772      1.0  0.24779  0.36957  0.79128  1.0000
  H   H631      1.0  0.22246  0.32188  0.65525  1.0000
  C   C773      1.0  0.21739  0.31280  0.70918  1.0000
  H   H632      1.0  0.08054  0.22148  0.71768  1.0000
  C   C774      1.0  0.43582  0.36989  0.68812  1.0000
  C   C775      1.0  0.04906  0.19529  0.86947  1.0000
  C   C776      1.0  0.22719  0.37036  0.62556  1.0000
  H   H633      1.0  0.39721  0.18658  0.64535  1.0000
  C   C777      1.0  0.06663  0.20256  0.93185  1.0000
  H   H634      1.0  0.26053  0.30274  0.90715  1.0000
  Fe  Fe56      1.0  0.30767  0.38347  0.56349  1.0000
  C   C778      1.0  0.22029  0.33025  0.69807  1.0000
  H   H635      1.0  0.99484  0.34404  0.94979  1.0000
  H   H636      1.0  0.02456  0.20580  0.83472  1.0000
  H   H637      1.0  0.21649  0.30989  0.72422  1.0000
  H   H638      1.0  0.40434  0.37050  0.73772  1.0000
  H   H639      1.0  0.99326  0.20246  0.61710  1.0000
  H   H640      1.0  0.04351  0.28588  0.96622  1.0000
  H   H641      1.0  0.07832  0.19485  0.74512  1.0000
  C   C779      1.0  0.47955  0.36158  0.64223  1.0000
  H   H642      1.0  0.26153  0.20081  0.70477  1.0000
  C   C780      1.0  0.24914  0.38153  0.72960  1.0000
  H   H643      1.0  0.03724  0.20422  0.94370  1.0000
  C   C781      1.0  0.27632  0.27884  0.96637  1.0000
  C   C782      1.0  0.21041  0.19032  0.81540  1.0000
  C   C783      1.0  0.32340  0.19759  0.70316  1.0000
  H   H644      1.0  0.26952  0.20328  0.63651  1.0000
  C   C784      1.0  0.41716  0.32903  0.50238  1.0000
  H   H645      1.0  0.17997  0.19108  0.64773  1.0000
  C   C785      1.0  0.41314  0.37030  0.72386  1.0000
  C   C786      1.0  0.34982  0.19202  0.65851  1.0000
  H   H646      1.0  0.45702  0.29360  0.69090  1.0000
  C   C787      1.0  0.20382  0.36917  0.60959  1.0000
  C   C788      1.0  0.16882  0.33106  0.50747  1.0000
  C   C789      1.0  0.29840  0.20364  0.63421  1.0000
  C   C790      1.0  0.23121  0.18690  0.68796  1.0000
  C   C791      1.0  0.48004  0.38005  0.57018  1.0000
  H   H647      1.0  0.08877  0.32081  0.97049  1.0000
  C   C792      1.0  0.07885  0.18880  0.90432  1.0000
  H   H648      1.0  0.06265  0.37214  0.86265  1.0000
  H   H649      1.0  0.19552  0.19109  0.82077  1.0000
  C   C793      1.0  0.05332  0.29344  0.96744  1.0000
  C   C794      1.0  0.17608  0.37858  0.77519  1.0000
  C   C795      1.0  0.44863  0.38344  0.58975  1.0000
  H   H650      1.0  0.18907  0.38218  0.66550  1.0000
  H   H651      1.0  0.16982  0.18683  0.70820  1.0000
  H   H652      1.0  0.26518  0.37398  0.70342  1.0000
  C   C796      1.0  0.40727  0.18878  0.57165  1.0000
  H   H653      1.0  0.99581  0.23350  0.84735  1.0000
  C   C797      1.0  0.19432  0.37854  0.77595  1.0000
  C   C798      1.0  0.99630  0.24083  0.87292  1.0000
  C   C799      1.0  0.07887  0.31310  0.96973  1.0000
  C   C800      1.0  0.18753  0.32584  0.97812  1.0000
  C   C801      1.0  0.24862  0.18880  0.80094  1.0000
  H   H654      1.0  0.30248  0.20104  0.74831  1.0000
  S   S108      1.0  0.12797  0.37833  0.79954  1.0000
  H   H655      1.0  0.47360  0.36889  0.60008  1.0000
  H   H656      1.0  0.23831  0.19408  0.65777  1.0000
  H   H657      1.0  0.33903  0.18410  0.66132  1.0000
  C   C802      1.0  0.28433  0.18492  0.60168  1.0000
  S   S109      1.0  0.06718  0.49315  0.11896  1.0000
  H   H658      1.0  0.01097  0.47468  0.11133  1.0000
  Fe  Fe57      1.0  0.03929  0.48550  0.12409  1.0000
  S   S110      1.0  0.01255  0.50743  0.12295  1.0000
  C   C803      1.0  0.44643  0.54030  0.26640  1.0000
  C   C804      1.0  0.12351  0.45378  0.07007  1.0000
  H   H659      1.0  0.29749  0.57158  0.42532  1.0000
  C   C805      1.0  0.32346  0.57592  0.35942  1.0000
  C   C806      1.0  0.13335  0.47533  0.12712  1.0000
  H   H660      1.0  0.00277  0.47157  0.08291  1.0000
  C   C807      1.0  0.43795  0.57872  0.26586  1.0000
  S   S111      1.0  0.18810  0.48794  0.00880  1.0000
  C   C808      1.0  0.11132  0.57930  0.32459  1.0000
  C   C809      1.0  0.14810  0.52530  0.01985  1.0000
  Fe  Fe58      1.0  0.30342  0.49580  0.42868  1.0000
  S   S112      1.0  0.32277  0.46735  0.43221  1.0000
  S   S113      1.0  0.27342  0.50240  0.42546  1.0000
  Fe  Fe59      1.0  0.33244  0.51588  0.42991  1.0000
  S   S114      1.0  0.35453  0.48969  0.43328  1.0000
  S   S115      1.0  0.33764  0.54447  0.42652  1.0000
  Fe  Fe60      1.0  0.34422  0.48239  0.41158  1.0000
  S   S116      1.0  0.36243  0.47129  0.38655  1.0000
  Fe  Fe61      1.0  0.33152  0.47680  0.45386  1.0000
  H   H661      1.0  0.26774  0.56204  0.37724  1.0000
  S   S117      1.0  0.32422  0.50995  0.40624  1.0000
  S   S118      1.0  0.31024  0.50386  0.45234  1.0000
  Fe  Fe62      1.0  0.45900  0.47931  0.32997  1.0000
  S   S119      1.0  0.45592  0.50576  0.30806  1.0000
  S   S120      1.0  0.44695  0.47945  0.36063  1.0000
  Fe  Fe63      1.0  0.44980  0.48846  0.29121  1.0000
  S   S121      1.0  0.42175  0.50038  0.28222  1.0000
  S   S122      1.0  0.45135  0.46233  0.31412  1.0000
  Fe  Fe64      1.0  0.33563  0.54132  0.20409  1.0000
  S   S123      1.0  0.35990  0.52758  0.18423  1.0000
  S   S124      1.0  0.31480  0.52518  0.22448  1.0000
  C   C810      1.0  0.28185  0.52631  0.98159  1.0000
  S   S125      1.0  0.37238  0.56821  0.17022  1.0000
  C   C811      1.0  0.04107  0.49433  0.05203  1.0000
  Fe  Fe65      1.0  0.35299  0.55432  0.16304  1.0000
  S   S126      1.0  0.35027  0.56019  0.13266  1.0000
  Fe  Fe66      1.0  0.37671  0.54277  0.19357  1.0000
  S   S127      1.0  0.40602  0.53087  0.19943  1.0000
  S   S128      1.0  0.32772  0.56685  0.18235  1.0000
  S   S129      1.0  0.35278  0.55461  0.21488  1.0000
  Fe  Fe67      1.0  0.25505  0.56381  0.04830  1.0000
  C   C812      1.0  0.00969  0.39172  0.12348  1.0000
  S   S130      1.0  0.24496  0.55858  0.02457  1.0000
  Fe  Fe68      1.0  0.27695  0.55473  0.07981  1.0000
  S   S131      1.0  0.48014  0.48020  0.27681  1.0000
  S   S132      1.0  0.29838  0.53388  0.09531  1.0000
  H   H662      1.0  0.18353  0.58158  0.14010  1.0000
  C   C813      1.0  0.32442  0.56101  0.32007  1.0000
  H   H663      1.0  0.04525  0.51472  0.00562  1.0000
  C   C814      1.0  0.39236  0.52865  0.40932  1.0000
  S   S133      1.0  0.25071  0.54703  0.07786  1.0000
  S   S134      1.0  0.28285  0.56910  0.04921  1.0000
  Fe  Fe69      1.0  0.12395  0.53888  0.20199  1.0000
  S   S135      1.0  0.14510  0.55388  0.18108  1.0000
  S   S136      1.0  0.09903  0.53634  0.19191  1.0000
  Fe  Fe70      1.0  0.14309  0.53505  0.23431  1.0000
  S   S137      1.0  0.16554  0.54980  0.21603  1.0000
  S   S138      1.0  0.14237  0.52128  0.26494  1.0000
  Fe  Fe71      1.0  0.14264  0.57003  0.20298  1.0000
  C   C815      1.0  0.10453  0.55049  0.12914  1.0000
  Fe  Fe72      1.0  0.16655  0.53272  0.19564  1.0000
  S   S139      1.0  0.19522  0.52020  0.18065  1.0000
  S   S140      1.0  0.11963  0.55681  0.22311  1.0000
  S   S141      1.0  0.14566  0.51612  0.21473  1.0000
  Fe  Fe73      1.0  0.24000  0.54357  0.33089  1.0000
  S   S142      1.0  0.24433  0.57250  0.31647  1.0000
  S   S143      1.0  0.26563  0.52437  0.34043  1.0000
  Fe  Fe74      1.0  0.20195  0.55120  0.32050  1.0000
  H   H664      1.0  0.14920  0.56630  0.09815  1.0000
  S   S144      1.0  0.17659  0.53874  0.32529  1.0000
  Fe  Fe75      1.0  0.23331  0.56836  0.29361  1.0000
  H   H665      1.0  0.14285  0.50151  0.99350  1.0000
  H   H666      1.0  0.44463  0.50492  0.40851  1.0000
  H   H667      1.0  0.12368  0.39230  0.00511  1.0000
  S   S145      1.0  0.23106  0.53854  0.30685  1.0000
  S   S146      1.0  0.21061  0.55370  0.34602  1.0000
  H   H668      1.0  0.17294  0.45392  0.10834  1.0000
  P   P26       1.0  0.35140  0.49049  0.31941  1.0000
  H   H669      1.0  0.41735  0.52324  0.33101  1.0000
  H   H670      1.0  0.38630  0.50665  0.43322  1.0000
  C   C816      1.0  0.37959  0.44239  0.30104  1.0000
  H   H671      1.0  0.22963  0.48271  0.06132  1.0000
  H   H672      1.0  0.10405  0.51877  0.31150  1.0000
  Fe  Fe76      1.0  0.18553  0.45955  0.00699  1.0000
  H   H673      1.0  0.27116  0.53013  0.99343  1.0000
  C   C817      1.0  0.02890  0.41248  0.12533  1.0000
  C   C818      1.0  0.15310  0.52659  0.28051  1.0000
  C   C819      1.0  0.16464  0.53973  0.27501  1.0000
  C   C820      1.0  0.17215  0.54374  0.28848  1.0000
  C   C821      1.0  0.16816  0.53448  0.30740  1.0000
  C   C822      1.0  0.15678  0.52130  0.31267  1.0000
  C   C823      1.0  0.14955  0.51722  0.29932  1.0000
  H   H674      1.0  0.16757  0.54690  0.26048  1.0000
  H   H675      1.0  0.18077  0.55409  0.28433  1.0000
  H   H676      1.0  0.15363  0.51406  0.32720  1.0000
  H   H677      1.0  0.14087  0.50689  0.30368  1.0000
  C   C824      1.0  0.00725  0.40577  0.04572  1.0000
  H   H678      1.0  0.05037  0.42048  0.05195  1.0000
  P   P27       1.0  0.44306  0.53826  0.37737  1.0000
  C   C825      1.0  0.24049  0.49239  0.09658  1.0000
  C   C826      1.0  0.28794  0.55101  0.44914  1.0000
  H   H679      1.0  0.37960  0.53806  0.34754  1.0000
  C   C827      1.0  0.08152  0.42331  0.08404  1.0000
  H   H680      1.0  0.01868  0.38853  0.00596  1.0000
  C   C828      1.0  0.20688  0.56319  0.12647  1.0000
  C   C829      1.0  0.21921  0.54569  0.12878  1.0000
  C   C830      1.0  0.21639  0.53255  0.14585  1.0000
  C   C831      1.0  0.20155  0.53719  0.16061  1.0000
  C   C832      1.0  0.19070  0.55535  0.15883  1.0000
  C   C833      1.0  0.19289  0.56806  0.14164  1.0000
  H   H681      1.0  0.23030  0.54191  0.11721  1.0000
  H   H682      1.0  0.22522  0.51869  0.14730  1.0000
  H   H683      1.0  0.18034  0.55957  0.17062  1.0000
  C   C834      1.0  0.27400  0.54073  0.45815  1.0000
  C   C835      1.0  0.20755  0.56402  0.24548  1.0000
  H   H684      1.0  0.35102  0.45706  0.30765  1.0000
  H   H685      1.0  0.08979  0.42432  0.09330  1.0000
  H   H686      1.0  0.47270  0.52952  0.39853  1.0000
  C   C836      1.0  0.37304  0.51608  0.31655  1.0000
  C   C837      1.0  0.48242  0.57016  0.45100  1.0000
  H   H687      1.0  0.40229  0.54882  0.38529  1.0000
  C   C838      1.0  0.31072  0.54140  0.10802  1.0000
  C   C839      1.0  0.30842  0.56037  0.10822  1.0000
  C   C840      1.0  0.31954  0.56589  0.11727  1.0000
  C   C841      1.0  0.33307  0.55258  0.12616  1.0000
  C   C842      1.0  0.33484  0.53358  0.12657  1.0000
  C   C843      1.0  0.32371  0.52803  0.11758  1.0000
  H   H688      1.0  0.29860  0.57085  0.10084  1.0000
  H   H689      1.0  0.30289  0.53566  0.98899  1.0000
  H   H690      1.0  0.34545  0.52320  0.13302  1.0000
  H   H691      1.0  0.32562  0.51335  0.11751  1.0000
  C   C844      1.0  0.29498  0.53990  0.23499  1.0000
  C   C845      1.0  0.28967  0.55855  0.22597  1.0000
  C   C846      1.0  0.27459  0.57059  0.23495  1.0000
  C   C847      1.0  0.26483  0.56411  0.25301  1.0000
  C   C848      1.0  0.26992  0.54536  0.26200  1.0000
  C   C849      1.0  0.28489  0.53321  0.25291  1.0000
  H   H692      1.0  0.29718  0.56379  0.21211  1.0000
  C   C850      1.0  0.10596  0.56487  0.29404  1.0000
  H   H693      1.0  0.26256  0.54027  0.27602  1.0000
  H   H694      1.0  0.28903  0.51879  0.26000  1.0000
  C   C851      1.0  0.45760  0.54788  0.27321  1.0000
  H   H695      1.0  0.15558  0.52800  0.00535  1.0000
  H   H696      1.0  0.13334  0.57089  0.01821  1.0000
  H   H697      1.0  0.02615  0.43916  0.10591  1.0000
  H   H698      1.0  0.25935  0.50229  0.07109  1.0000
  Fe  Fe77      1.0  0.05531  0.44405  0.12812  1.0000
  H   H699      1.0  0.12359  0.46322  0.10965  1.0000
  C   C852      1.0  0.09511  0.56603  0.06426  1.0000
  H   H700      1.0  0.03441  0.45895  0.02621  1.0000
  H   H701      1.0  0.29645  0.57851  0.47195  1.0000
  C   C853      1.0  0.41786  0.50863  0.25902  1.0000
  C   C854      1.0  0.43253  0.50825  0.24324  1.0000
  C   C855      1.0  0.42870  0.51521  0.22507  1.0000
  C   C856      1.0  0.41022  0.52255  0.22253  1.0000
  C   C857      1.0  0.39560  0.52313  0.23835  1.0000
  C   C858      1.0  0.39942  0.51617  0.25647  1.0000
  H   H702      1.0  0.44680  0.50254  0.24499  1.0000
  H   H703      1.0  0.44010  0.51477  0.21291  1.0000
  H   H704      1.0  0.38135  0.52883  0.23662  1.0000
  H   H705      1.0  0.38801  0.51658  0.26856  1.0000
  C   C859      1.0  0.27106  0.50860  0.40187  1.0000
  C   C860      1.0  0.25330  0.51601  0.39749  1.0000
  C   C861      1.0  0.25134  0.52093  0.37866  1.0000
  C   C862      1.0  0.26720  0.51878  0.36419  1.0000
  C   C863      1.0  0.28489  0.51149  0.36860  1.0000
  C   C864      1.0  0.28678  0.50615  0.38735  1.0000
  H   H706      1.0  0.24105  0.51776  0.40867  1.0000
  H   H707      1.0  0.23759  0.52620  0.37539  1.0000
  H   H708      1.0  0.29719  0.50972  0.35750  1.0000
  H   H709      1.0  0.30039  0.49969  0.39052  1.0000
  H   H710      1.0  0.14807  0.43136  0.06864  1.0000
  C   C865      1.0  0.25364  0.56974  0.38151  1.0000
  C   C866      1.0  0.38544  0.47502  0.37939  1.0000
  C   C867      1.0  0.39471  0.47516  0.36068  1.0000
  C   C868      1.0  0.41338  0.47719  0.35468  1.0000
  C   C869      1.0  0.42308  0.47847  0.36753  1.0000
  C   C870      1.0  0.41373  0.47865  0.38621  1.0000
  C   C871      1.0  0.39488  0.47708  0.39211  1.0000
  H   H711      1.0  0.38744  0.47360  0.35084  1.0000
  H   H712      1.0  0.42029  0.47746  0.34019  1.0000
  H   H713      1.0  0.42118  0.47969  0.39616  1.0000
  H   H714      1.0  0.38790  0.47680  0.40660  1.0000
  H   H715      1.0  0.40645  0.56471  0.22135  1.0000
  C   C872      1.0  0.13944  0.48411  0.09318  1.0000
  C   C873      1.0  0.22047  0.44247  0.09635  1.0000
  C   C874      1.0  0.22682  0.56337  0.18850  1.0000
  H   H716      1.0  0.35280  0.46506  0.35547  1.0000
  S   S147      1.0  0.04620  0.41608  0.13522  1.0000
  H   H717      1.0  0.19042  0.53125  0.05015  1.0000
  C   C875      1.0  0.18148  0.53847  0.06099  1.0000
  C   C876      1.0  0.34556  0.52965  0.46142  1.0000
  C   C877      1.0  0.34537  0.54492  0.44617  1.0000
  C   C878      1.0  0.35103  0.56084  0.44675  1.0000
  C   C879      1.0  0.35716  0.56142  0.46246  1.0000
  H   H718      1.0  0.34098  0.51735  0.46114  1.0000
  H   H719      1.0  0.37336  0.43003  0.47894  1.0000
  C   C880      1.0  0.38818  0.48607  0.47879  1.0000
  C   C881      1.0  0.24178  0.53671  0.02304  1.0000
  C   C882      1.0  0.22938  0.53650  0.01218  1.0000
  C   C883      1.0  0.22856  0.51963  0.00812  1.0000
  C   C884      1.0  0.24046  0.50288  0.01456  1.0000
  C   C885      1.0  0.25248  0.50299  0.02587  1.0000
  C   C886      1.0  0.25298  0.51980  0.03030  1.0000
  H   H720      1.0  0.22072  0.54954  0.00645  1.0000
  C   C887      1.0  0.09648  0.57737  0.35758  1.0000
  H   H721      1.0  0.26289  0.51991  0.03827  1.0000
  H   H722      1.0  0.10929  0.55785  0.13693  1.0000
  C   C888      1.0  0.26649  0.47115  0.22370  1.0000
  H   H723      1.0  0.03376  0.49702  0.06576  1.0000
  H   H724      1.0  0.16782  0.47723  0.05511  1.0000
  H   H725      1.0  0.11454  0.56365  0.37725  1.0000
  P   P28       1.0  0.07339  0.44877  0.03098  1.0000
  P   P29       1.0  0.16134  0.50980  0.07164  1.0000
  C   C889      1.0  0.09366  0.48708  0.16991  1.0000
  C   C890      1.0  0.10966  0.48594  0.17664  1.0000
  C   C891      1.0  0.11159  0.50087  0.18341  1.0000
  C   C892      1.0  0.09734  0.51700  0.18379  1.0000
  C   C893      1.0  0.08130  0.51808  0.17718  1.0000
  C   C894      1.0  0.07952  0.50328  0.17011  1.0000
  H   H726      1.0  0.12056  0.47336  0.17675  1.0000
  H   H727      1.0  0.12393  0.49982  0.18858  1.0000
  H   H728      1.0  0.07017  0.53042  0.17762  1.0000
  C   C895      1.0  0.11353  0.56592  0.06486  1.0000
  C   C896      1.0  0.00144  0.50463  0.10647  1.0000
  C   C897      1.0  0.19176  0.46478  0.11765  1.0000
  S   S148      1.0  0.20804  0.57904  0.10473  1.0000
  C   C898      1.0  0.38992  0.40431  0.47079  1.0000
  C   C899      1.0  0.99937  0.48517  0.08658  1.0000
  C   C900      1.0  0.00441  0.48697  0.10243  1.0000
  C   C901      1.0  0.35315  0.50814  0.34715  1.0000
  C   C902      1.0  0.14087  0.44437  0.06114  1.0000
  H   H729      1.0  0.38030  0.44988  0.44732  1.0000
  H   H730      1.0  0.40080  0.43577  0.42082  1.0000
  H   H731      1.0  0.13815  0.48189  0.08000  1.0000
  C   C903      1.0  0.10263  0.53242  0.30212  1.0000
  C   C904      1.0  0.07073  0.42674  0.00778  1.0000
  H   H732      1.0  0.11187  0.54493  0.31942  1.0000
  C   C905      1.0  0.15820  0.55850  0.08777  1.0000
  C   C906      1.0  0.22124  0.46423  0.18424  1.0000
  H   H733      1.0  0.42091  0.56577  0.18804  1.0000
  H   H734      1.0  0.02844  0.38481  0.14263  1.0000
  C   C907      1.0  0.36997  0.47139  0.31254  1.0000
  Fe  Fe78      1.0  0.48211  0.45565  0.30145  1.0000
  C   C908      1.0  0.08231  0.43509  0.06625  1.0000
  C   C909      1.0  0.19683  0.51651  0.11968  1.0000
  C   C910      1.0  0.05866  0.48649  0.01667  1.0000
  H   H735      1.0  0.31954  0.40716  0.47924  1.0000
  H   H736      1.0  0.41986  0.49145  0.43262  1.0000
  C   C911      1.0  0.05259  0.47679  0.05055  1.0000
  C   C912      1.0  0.07161  0.43383  0.05419  1.0000
  H   H737      1.0  0.14450  0.49000  0.14098  1.0000
  H   H738      1.0  0.46363  0.51205  0.35217  1.0000
  C   C913      1.0  0.14906  0.45194  0.04262  1.0000
  C   C914      1.0  0.12304  0.45721  0.99442  1.0000
  C   C915      1.0  0.34397  0.57556  0.07064  1.0000
  H   H739      1.0  0.28185  0.50622  0.08765  1.0000
  C   C916      1.0  0.38265  0.42373  0.46763  1.0000
  S   S149      1.0  0.21618  0.44968  0.99560  1.0000
  H   H740      1.0  0.39248  0.48891  0.46365  1.0000
  C   C917      1.0  0.35430  0.57846  0.08207  1.0000
  C   C918      1.0  0.38883  0.47095  0.31175  1.0000
  C   C919      1.0  0.01749  0.39516  0.03234  1.0000
  H   H741      1.0  0.03502  0.42353  0.99004  1.0000
  H   H742      1.0  0.24808  0.53493  0.45689  1.0000
  H   H743      1.0  0.18052  0.47295  0.12617  1.0000
  S   S150      1.0  0.24674  0.57999  0.26404  1.0000
  H   H744      1.0  0.14173  0.53744  0.09521  1.0000
  H   H745      1.0  0.19839  0.43433  0.08924  1.0000
  H   H746      1.0  0.35050  0.57281  0.43510  1.0000
  H   H747      1.0  0.35321  0.51111  0.25104  1.0000
  C   C920      1.0  0.36546  0.45694  0.30723  1.0000
  C   C921      1.0  0.21840  0.47465  0.16656  1.0000
  C   C922      1.0  0.33862  0.46780  0.35343  1.0000
  H   H748      1.0  0.35591  0.52043  0.36867  1.0000
  C   C923      1.0  0.06982  0.41040  0.09002  1.0000
  C   C924      1.0  0.21476  0.46744  0.05216  1.0000
  H   H749      1.0  0.09402  0.52319  0.28166  1.0000
  H   H750      1.0  0.07637  0.56883  0.04591  1.0000
  H   H751      1.0  0.42515  0.51803  0.36174  1.0000
  C   C925      1.0  0.39803  0.42703  0.43480  1.0000
  H   H752      1.0  0.01405  0.55489  0.08762  1.0000
  C   C926      1.0  0.25645  0.55701  0.43389  1.0000
  C   C927      1.0  0.37998  0.52783  0.32331  1.0000
  H   H753      1.0  0.18105  0.48431  0.15783  1.0000
  C   C928      1.0  0.11363  0.56814  0.36259  1.0000
  C   C929      1.0  0.30182  0.56357  0.38702  1.0000
  Fe  Fe79      1.0  0.23631  0.57457  0.08570  1.0000
  C   C930      1.0  0.00817  0.55980  0.14662  1.0000
  C   C931      1.0  0.01858  0.54796  0.13431  1.0000
  C   C932      1.0  0.03742  0.53992  0.13440  1.0000
  C   C933      1.0  0.04622  0.54402  0.14646  1.0000
  C   C934      1.0  0.05858  0.40955  0.07841  1.0000
  C   C935      1.0  0.09052  0.56848  0.04678  1.0000
  H   H754      1.0  0.39062  0.53514  0.31408  1.0000
  C   C936      1.0  0.38680  0.57736  0.25374  1.0000
  C   C937      1.0  0.43555  0.54359  0.35537  1.0000
  H   H755      1.0  0.24731  0.48729  0.14070  1.0000
  H   H756      1.0  0.01797  0.44790  0.00860  1.0000
  H   H757      1.0  0.09126  0.44521  0.06186  1.0000
  H   H758      1.0  0.17275  0.51987  0.03095  1.0000
  H   H759      1.0  0.22025  0.47143  0.19522  1.0000
  H   H760      1.0  0.36039  0.57421  0.46285  1.0000
  C   C938      1.0  0.11130  0.43069  0.02603  1.0000
  C   C939      1.0  0.24975  0.49023  0.12556  1.0000
  H   H761      1.0  0.12100  0.51518  0.07159  1.0000
  H   H762      1.0  0.01209  0.54482  0.12466  1.0000
  H   H763      1.0  0.04512  0.53041  0.12514  1.0000
  H   H764      1.0  0.21534  0.57080  0.18153  1.0000
  C   C940      1.0  0.42319  0.57555  0.19505  1.0000
  H   H765      1.0  0.12148  0.52904  0.01263  1.0000
  C   C941      1.0  0.99113  0.52023  0.09602  1.0000
  C   C942      1.0  0.39832  0.44221  0.30006  1.0000
  H   H766      1.0  0.46975  0.53892  0.27842  1.0000
  C   C943      1.0  0.22662  0.43549  0.17338  1.0000
  C   C944      1.0  0.26585  0.49687  0.11521  1.0000
  C   C945      1.0  0.40291  0.45647  0.30542  1.0000
  C   C946      1.0  0.10036  0.56721  0.27710  1.0000
  H   H767      1.0  0.23159  0.43383  0.08805  1.0000
  C   C947      1.0  0.01088  0.39696  0.01620  1.0000
  C   C948      1.0  0.12957  0.56433  0.34866  1.0000
  C   C949      1.0  0.42531  0.52804  0.39527  1.0000
  H   H768      1.0  0.06085  0.53778  0.14646  1.0000
  C   C950      1.0  0.28984  0.58136  0.38614  1.0000
  C   C951      1.0  0.03274  0.44206  0.00820  1.0000
  C   C952      1.0  0.12725  0.56767  0.04830  1.0000
  C   C953      1.0  0.42645  0.57112  0.25929  1.0000
  H   H769      1.0  0.21927  0.51971  0.99938  1.0000
  C   C954      1.0  0.12881  0.51791  0.05726  1.0000
  C   C955      1.0  0.38341  0.56243  0.26899  1.0000
  C   C956      1.0  0.36672  0.55607  0.27299  1.0000
  C   C957      1.0  0.35339  0.56462  0.26193  1.0000
  H   H770      1.0  0.35135  0.41153  0.47502  1.0000
  H   H771      1.0  0.98890  0.41049  0.00099  1.0000
  C   C958      1.0  0.06135  0.44097  0.01773  1.0000
  C   C959      1.0  0.30203  0.47420  0.34846  1.0000
  H   H772      1.0  0.12734  0.46670  0.14008  1.0000
  H   H773      1.0  0.38494  0.58052  0.46790  1.0000
  H   H774      1.0  0.24586  0.57545  0.15318  1.0000
  C   C960      1.0  0.04231  0.42824  0.99789  1.0000
  H   H775      1.0  0.37602  0.43138  0.29682  1.0000
  C   C961      1.0  0.03617  0.55635  0.15832  1.0000
  H   H776      1.0  0.06870  0.40981  0.98977  1.0000
  H   H777      1.0  0.42293  0.54585  0.25346  1.0000
  C   C962      1.0  0.12841  0.56980  0.32976  1.0000
  H   H778      1.0  0.36421  0.54429  0.28442  1.0000
  H   H779      1.0  0.34071  0.55943  0.26481  1.0000
  H   H780      1.0  0.09953  0.58058  0.26718  1.0000
  C   C963      1.0  0.44566  0.55911  0.38308  1.0000
  C   C964      1.0  0.31552  0.48207  0.33417  1.0000
  C   C965      1.0  0.35265  0.50226  0.28078  1.0000
  H   H781      1.0  0.29449  0.47647  0.21395  1.0000
  C   C966      1.0  0.43294  0.56696  0.39769  1.0000
  H   H782      1.0  0.12763  0.46746  0.98211  1.0000
  C   C967      1.0  0.18562  0.55483  0.06273  1.0000
  Fe  Fe80      1.0  0.48614  0.49559  0.29570  1.0000
  C   C968      1.0  0.37376  0.52950  0.34207  1.0000
  H   H783      1.0  0.04892  0.40008  0.08350  1.0000
  C   C969      1.0  0.16691  0.51297  0.15054  1.0000
  H   H784      1.0  0.04309  0.55963  0.16756  1.0000
  C   C970      1.0  0.34575  0.51315  0.26501  1.0000
  H   H785      1.0  0.26183  0.49010  0.03077  1.0000
  Fe  Fe81      1.0  0.34740  0.57885  0.19097  1.0000
  H   H786      1.0  0.37771  0.53508  0.40953  1.0000
  S   S151      1.0  0.17103  0.44051  0.03171  1.0000
  C   C971      1.0  0.15777  0.52065  0.03441  1.0000
  H   H787      1.0  0.30051  0.54815  0.45463  1.0000
  H   H788      1.0  0.32882  0.45188  0.38089  1.0000
  C   C972      1.0  0.26944  0.50090  0.09560  1.0000
  H   H789      1.0  0.22738  0.43657  0.20143  1.0000
  C   C973      1.0  0.12218  0.47776  0.04165  1.0000
  C   C974      1.0  0.12886  0.39318  0.99014  1.0000
  H   H790      1.0  0.36583  0.56753  0.08635  1.0000
  C   C975      1.0  0.42632  0.54964  0.32027  1.0000
  C   C976      1.0  0.47729  0.52117  0.38785  1.0000
  H   H791      1.0  0.11740  0.56437  0.07806  1.0000
  H   H792      1.0  0.19790  0.55975  0.05368  1.0000
  S   S152      1.0  0.04906  0.46677  0.10335  1.0000
  S   S153      1.0  0.09167  0.46769  0.16205  1.0000
  H   H793      1.0  0.14578  0.47435  0.01855  1.0000
  C   C977      1.0  0.20908  0.49258  0.31372  1.0000
  C   C978      1.0  0.22395  0.47852  0.31920  1.0000
  C   C979      1.0  0.23775  0.47017  0.30572  1.0000
  C   C980      1.0  0.23684  0.47606  0.28671  1.0000
  C   C981      1.0  0.22211  0.49047  0.28108  1.0000
  C   C982      1.0  0.20812  0.49844  0.29477  1.0000
  P   P30       1.0  0.22128  0.49929  0.25651  1.0000
  C   C983      1.0  0.21582  0.52464  0.25209  1.0000
  C   C984      1.0  0.24433  0.49214  0.24270  1.0000
  C   C985      1.0  0.20621  0.53527  0.23790  1.0000
  C   C986      1.0  0.20225  0.55488  0.23454  1.0000
  C   C987      1.0  0.01725  0.56439  0.15828  1.0000
  C   C988      1.0  0.21674  0.55352  0.25984  1.0000
  C   C989      1.0  0.22122  0.53398  0.26290  1.0000
  C   C990      1.0  0.20359  0.49123  0.25044  1.0000
  C   C991      1.0  0.18889  0.48492  0.26444  1.0000
  C   C992      1.0  0.17475  0.47958  0.25961  1.0000
  C   C993      1.0  0.17511  0.48055  0.24081  1.0000
  C   C994      1.0  0.18959  0.48690  0.22676  1.0000
  C   C995      1.0  0.20378  0.49224  0.23151  1.0000
  H   H794      1.0  0.19838  0.49919  0.32411  1.0000
  H   H795      1.0  0.24930  0.45930  0.30999  1.0000
  H   H796      1.0  0.24778  0.46955  0.27650  1.0000
  H   H797      1.0  0.19662  0.50940  0.29068  1.0000
  H   H798      1.0  0.26961  0.45937  0.21695  1.0000
  H   H799      1.0  0.23797  0.46881  0.23567  1.0000
  H   H800      1.0  0.20176  0.52861  0.22932  1.0000
  H   H801      1.0  0.19494  0.56296  0.22353  1.0000
  H   H802      1.0  0.31819  0.58058  0.11673  1.0000
  H   H803      1.0  0.06912  0.40137  0.10388  1.0000
  H   H804      1.0  0.22882  0.52621  0.27380  1.0000
  H   H805      1.0  0.18788  0.48457  0.27906  1.0000
  H   H806      1.0  0.16306  0.47547  0.27042  1.0000
  H   H807      1.0  0.16380  0.47696  0.23710  1.0000
  H   H808      1.0  0.18942  0.48832  0.21214  1.0000
  H   H809      1.0  0.21454  0.49772  0.22035  1.0000
  C   C996      1.0  0.22482  0.45355  0.10613  1.0000
  C   C997      1.0  0.43889  0.55962  0.34154  1.0000
  H   H810      1.0  0.29610  0.45797  0.37669  1.0000
  H   H811      1.0  0.28774  0.47700  0.34665  1.0000
  C   C998      1.0  0.36035  0.51966  0.35396  1.0000
  H   H812      1.0  0.06439  0.48360  0.00280  1.0000
  C   C999      1.0  0.15136  0.49921  0.11080  1.0000
  C   C1000     1.0  0.33380  0.47948  0.33684  1.0000
  H   H813      1.0  0.31139  0.49026  0.32130  1.0000
  C   C1001     1.0  0.18229  0.53197  0.12259  1.0000
  Fe  Fe82      1.0  0.21436  0.58242  0.32939  1.0000
  C   C1002     1.0  0.14828  0.51655  0.05321  1.0000
  C   C1003     1.0  0.39723  0.51256  0.42273  1.0000
  C   C1004     1.0  0.13593  0.50883  0.98200  1.0000
  S   S154      1.0  0.26191  0.58096  0.09012  1.0000
  C   C1005     1.0  0.14312  0.48844  0.12758  1.0000
  H   H814      1.0  0.24258  0.55902  0.36393  1.0000
  C   C1006     1.0  0.43013  0.51180  0.40871  1.0000
  C   C1007     1.0  0.06087  0.55169  0.08281  1.0000
  C   C1008     1.0  0.04144  0.55881  0.08704  1.0000
  C   C1009     1.0  0.02901  0.54955  0.08419  1.0000
  C   C1010     1.0  0.03582  0.53321  0.07709  1.0000
  C   C1011     1.0  0.05506  0.52610  0.07276  1.0000
  C   C1012     1.0  0.06754  0.53533  0.07551  1.0000
  C   C1013     1.0  0.19982  0.49384  0.06716  1.0000
  C   C1014     1.0  0.10426  0.57033  0.03024  1.0000
  C   C1015     1.0  0.14931  0.49735  0.09345  1.0000
  H   H815      1.0  0.15553  0.51176  0.16275  1.0000
  C   C1016     1.0  0.08860  0.55093  0.10486  1.0000
  C   C1017     1.0  0.41610  0.50411  0.42242  1.0000
  H   H816      1.0  0.08530  0.42044  0.00782  1.0000
  C   C1018     1.0  0.10754  0.53093  0.13385  1.0000
  C   C1019     1.0  0.10100  0.52136  0.12427  1.0000
  C   C1020     1.0  0.09176  0.53126  0.10972  1.0000
  C   C1021     1.0  0.30673  0.46349  0.36538  1.0000
  H   H817      1.0  0.14154  0.56718  0.04888  1.0000
  H   H818      1.0  0.32787  0.54723  0.37481  1.0000
  C   C1022     1.0  0.13026  0.42870  0.01726  1.0000
  C   C1023     1.0  0.35773  0.54605  0.47772  1.0000
  H   H819      1.0  0.33863  0.55292  0.31938  1.0000
  H   H820      1.0  0.17763  0.57717  0.07788  1.0000
  H   H821      1.0  0.02615  0.52600  0.07508  1.0000
  H   H822      1.0  0.06034  0.51332  0.06738  1.0000
  H   H823      1.0  0.08238  0.52955  0.07203  1.0000
  C   C1024     1.0  0.34277  0.50464  0.29889  1.0000
  C   C1025     1.0  0.47213  0.51143  0.36187  1.0000
  C   C1026     1.0  0.04218  0.44839  0.01811  1.0000
  C   C1027     1.0  0.09578  0.55230  0.27283  1.0000
  C   C1028     1.0  0.28620  0.56426  0.43247  1.0000
  H   H824      1.0  0.11469  0.52320  0.14513  1.0000
  H   H825      1.0  0.10285  0.50621  0.12830  1.0000
  H   H826      1.0  0.08716  0.52340  0.10245  1.0000
  C   C1029     1.0  0.15417  0.54198  0.08624  1.0000
  H   H827      1.0  0.37855  0.51437  0.30218  1.0000
  H   H828      1.0  0.28760  0.50295  0.22986  1.0000
  H   H829      1.0  0.22976  0.42029  0.17605  1.0000
  H   H830      1.0  0.05385  0.46640  0.06333  1.0000
  H   H831      1.0  0.25600  0.51304  0.24813  1.0000
  H   H832      1.0  0.06704  0.50417  0.16525  1.0000
  H   H833      1.0  0.09166  0.55408  0.25967  1.0000
  C   C1030     1.0  0.09529  0.58292  0.33863  1.0000
  C   C1031     1.0  0.23934  0.56769  0.37419  1.0000
  C   C1032     1.0  0.00866  0.42225  0.10273  1.0000
  H   H834      1.0  0.29824  0.55165  0.39788  1.0000
  C   C1033     1.0  0.23901  0.57306  0.19138  1.0000
  C   C1034     1.0  0.25388  0.56284  0.20015  1.0000
  C   C1035     1.0  0.25682  0.54330  0.20554  1.0000
  C   C1036     1.0  0.24497  0.53376  0.20213  1.0000
  C   C1037     1.0  0.22992  0.54381  0.19371  1.0000
  H   H835      1.0  0.47821  0.54909  0.33475  1.0000
  C   C1038     1.0  0.35977  0.50592  0.32846  1.0000
  C   C1039     1.0  0.04743  0.50419  0.01821  1.0000
  C   C1040     1.0  0.42285  0.53374  0.33403  1.0000
  H   H836      1.0  0.23055  0.49132  0.08917  1.0000
  C   C1041     1.0  0.46566  0.52230  0.37568  1.0000
  C   C1042     1.0  0.23698  0.48780  0.11630  1.0000
  C   C1043     1.0  0.06149  0.47261  0.03285  1.0000
  H   H837      1.0  0.02918  0.52151  0.03709  1.0000
  H   H838      1.0  0.30793  0.56593  0.24953  1.0000
  C   C1044     1.0  0.99045  0.41825  0.04297  1.0000
  C   C1045     1.0  0.00268  0.40511  0.10888  1.0000
  C   C1046     1.0  0.19730  0.46567  0.05085  1.0000
  H   H839      1.0  0.40932  0.43110  0.29505  1.0000
  C   C1047     1.0  0.35147  0.53035  0.47726  1.0000
  C   C1048     1.0  0.40631  0.53636  0.39562  1.0000
  C   C1049     1.0  0.09693  0.53491  0.28532  1.0000
  H   H840      1.0  0.26359  0.56982  0.20238  1.0000
  H   H841      1.0  0.26860  0.53558  0.21195  1.0000
  H   H842      1.0  0.24751  0.51860  0.20583  1.0000
  H   H843      1.0  0.22075  0.53643  0.19101  1.0000
  H   H844      1.0  0.20448  0.57918  0.24298  1.0000
  S   S155      1.0  0.09306  0.48352  0.07110  1.0000
  C   C1050     1.0  0.18743  0.45382  0.10773  1.0000
  H   H845      1.0  0.41744  0.45652  0.30445  1.0000
  C   C1051     1.0  0.24850  0.47670  0.23416  1.0000
  C   C1052     1.0  0.21045  0.46501  0.11666  1.0000
  C   C1053     1.0  0.19679  0.49924  0.13251  1.0000
  H   H846      1.0  0.20841  0.51844  0.10787  1.0000
  C   C1054     1.0  0.09801  0.44635  0.01944  1.0000
  H   H847      1.0  0.01206  0.40413  0.05850  1.0000
  C   C1055     1.0  0.30733  0.58019  0.25016  1.0000
  C   C1056     1.0  0.99406  0.40943  0.01340  1.0000
  H   H848      1.0  0.22021  0.56051  0.26878  1.0000
  C   C1057     1.0  0.40560  0.40774  0.43785  1.0000
  C   C1058     1.0  0.21602  0.48141  0.06043  1.0000
  C   C1059     1.0  0.25675  0.49869  0.08629  1.0000
  C   C1060     1.0  0.18237  0.49307  0.06452  1.0000
  C   C1061     1.0  0.03848  0.50806  0.03589  1.0000
  H   H849      1.0  0.47657  0.56347  0.46510  1.0000
  H   H850      1.0  0.15970  0.50855  0.11146  1.0000
  H   H851      1.0  0.19632  0.45473  0.04455  1.0000
  Fe  Fe83      1.0  0.21834  0.47880  0.99579  1.0000
  H   H852      1.0  0.44544  0.56960  0.34399  1.0000
  H   H853      1.0  0.23938  0.45315  0.10549  1.0000
  H   H854      1.0  0.18307  0.54553  0.11331  1.0000
  C   C1062     1.0  0.16620  0.53144  0.07332  1.0000
  H   H855      1.0  0.32367  0.53454  0.25489  1.0000
  C   C1063     1.0  0.22529  0.44464  0.18768  1.0000
  C   C1064     1.0  0.18116  0.47850  0.05687  1.0000
  H   H856      1.0  0.30628  0.53950  0.28672  1.0000
  H   H857      1.0  0.33647  0.57381  0.34918  1.0000
  C   C1065     1.0  0.13135  0.47329  0.10995  1.0000
  Fe  Fe84      1.0  0.07739  0.47241  0.10018  1.0000
  H   H858      1.0  0.15650  0.54242  0.14064  1.0000
  C   C1066     1.0  0.38658  0.43501  0.44971  1.0000
  H   H859      1.0  0.24439  0.55863  0.42803  1.0000
  C   C1067     1.0  0.21969  0.46562  0.15212  1.0000
  H   H860      1.0  0.22735  0.45807  0.04660  1.0000
  C   C1068     1.0  0.43101  0.55187  0.25933  1.0000
  H   H861      1.0  0.41435  0.40157  0.42621  1.0000
  C   C1069     1.0  0.27663  0.49570  0.23098  1.0000
  C   C1070     1.0  0.32076  0.57847  0.30788  1.0000
  C   C1071     1.0  0.28053  0.48071  0.22204  1.0000
  H   H862      1.0  0.36565  0.49204  0.27869  1.0000
  H   H863      1.0  0.39296  0.48171  0.31576  1.0000
  H   H864      1.0  0.27551  0.49918  0.12231  1.0000
  H   H865      1.0  0.13616  0.57390  0.26619  1.0000
  H   H866      1.0  0.34283  0.50068  0.35674  1.0000
  C   C1072     1.0  0.10720  0.54731  0.30648  1.0000
  S   S156      1.0  0.24176  0.48195  0.00753  1.0000
  Fe  Fe85      1.0  0.07330  0.46845  0.14219  1.0000
  C   C1073     1.0  0.25838  0.54359  0.45042  1.0000
  C   C1074     1.0  0.16739  0.53025  0.13804  1.0000
  C   C1075     1.0  0.22388  0.44591  0.15564  1.0000
  C   C1076     1.0  0.20178  0.44270  0.09705  1.0000
  H   H867      1.0  0.39362  0.55555  0.27765  1.0000
  C   C1077     1.0  0.18150  0.49749  0.14777  1.0000
  C   C1078     1.0  0.12888  0.52595  0.02394  1.0000
  C   C1079     1.0  0.11925  0.52237  0.04261  1.0000
  C   C1080     1.0  0.30634  0.58316  0.47685  1.0000
  H   H868      1.0  0.10444  0.52241  0.04566  1.0000
  H   H869      1.0  0.11476  0.49039  0.03384  1.0000
  S   S157      1.0  0.08508  0.44778  0.12303  1.0000
  H   H870      1.0  0.00336  0.43271  0.09140  1.0000
  H   H871      1.0  0.21526  0.48980  0.16412  1.0000
  H   H872      1.0  0.10721  0.42002  0.03809  1.0000
  H   H873      1.0  0.20107  0.50419  0.07401  1.0000
  H   H874      1.0  0.31885  0.52111  0.31464  1.0000
  C   C1081     1.0  0.02157  0.42599  0.11097  1.0000
  C   C1082     1.0  0.29131  0.56412  0.33378  1.0000
  C   C1083     1.0  0.30967  0.55383  0.33299  1.0000
  H   H875      1.0  0.14054  0.41711  0.02295  1.0000
  H   H876      1.0  0.47968  0.52648  0.31576  1.0000
  C   C1084     1.0  0.09515  0.56047  0.11467  1.0000
  H   H877      1.0  0.22480  0.47419  0.33389  1.0000
  C   C1085     1.0  0.42741  0.53075  0.35148  1.0000
  C   C1086     1.0  0.25864  0.50140  0.24131  1.0000
  P   P31       1.0  0.21598  0.47936  0.12934  1.0000
  H   H878      1.0  0.22499  0.43853  0.14480  1.0000
  C   C1087     1.0  0.32647  0.51874  0.30085  1.0000
  H   H879      1.0  0.30278  0.57406  0.28005  1.0000
  C   C1088     1.0  0.13968  0.46864  0.03292  1.0000
  C   C1089     1.0  0.32508  0.46012  0.36777  1.0000
  H   H880      1.0  0.27985  0.55833  0.34352  1.0000
  H   H881      1.0  0.31238  0.54024  0.34235  1.0000
  C   C1090     1.0  0.12263  0.56984  0.03101  1.0000
  C   C1091     1.0  0.05940  0.42125  0.06056  1.0000
  C   C1092     1.0  0.31941  0.52933  0.28505  1.0000
  H   H882      1.0  0.43728  0.57476  0.31330  1.0000
  S   S158      1.0  0.04424  0.46260  0.14926  1.0000
  H   H883      1.0  0.11736  0.44808  0.08444  1.0000
  C   C1093     1.0  0.11424  0.47062  0.06035  1.0000
  C   C1094     1.0  0.10412  0.45954  0.00346  1.0000
  C   C1095     1.0  0.32905  0.52647  0.26717  1.0000
  H   H884      1.0  0.10074  0.57184  0.01683  1.0000
  H   H885      1.0  0.42090  0.56109  0.40557  1.0000
  H   H886      1.0  0.42329  0.55161  0.30654  1.0000
  H   H887      1.0  0.11204  0.42057  0.98275  1.0000
  C   C1096     1.0  0.22096  0.57723  0.37964  1.0000
  H   H888      1.0  0.99090  0.52898  0.15214  1.0000
  C   C1097     1.0  0.43598  0.58232  0.40266  1.0000
  C   C1098     1.0  0.17411  0.56472  0.07627  1.0000
  H   H889      1.0  0.34752  0.56241  0.06600  1.0000
  H   H890      1.0  0.44988  0.52545  0.26631  1.0000
  H   H891      1.0  0.14085  0.56632  0.31918  1.0000
  H   H892      1.0  0.14287  0.55682  0.35241  1.0000
  P   P32       1.0  0.07726  0.56391  0.08558  1.0000
  C   C1099     1.0  0.13612  0.44194  0.00144  1.0000
  C   C1100     1.0  0.02284  0.39536  0.13156  1.0000
  H   H893      1.0  0.00989  0.57427  0.16720  1.0000
  C   C1101     1.0  0.28763  0.58157  0.32164  1.0000
  H   H894      1.0  0.03569  0.57142  0.09255  1.0000
  C   C1102     1.0  0.06128  0.42051  0.99776  1.0000
  C   C1103     1.0  0.35655  0.57970  0.24698  1.0000
  C   C1104     1.0  0.24964  0.58161  0.39419  1.0000
  C   C1105     1.0  0.43426  0.56261  0.32406  1.0000
  H   H895      1.0  0.03042  0.38541  0.03465  1.0000
  H   H896      1.0  0.46232  0.57294  0.27789  1.0000
  H   H897      1.0  0.40738  0.54848  0.47205  1.0000
  C   C1106     1.0  0.45336  0.56709  0.27294  1.0000
  H   H898      1.0  0.20997  0.57595  0.37364  1.0000
  H   H899      1.0  0.08408  0.57995  0.36843  1.0000
  C   C1107     1.0  0.46439  0.58224  0.37860  1.0000
  C   C1108     1.0  0.31863  0.56094  0.37382  1.0000
  C   C1109     1.0  0.27028  0.56758  0.42485  1.0000
  H   H900      1.0  0.11156  0.49677  0.99414  1.0000
  S   S159      1.0  0.20342  0.58069  0.30518  1.0000
  C   C1110     1.0  0.40152  0.39637  0.45576  1.0000
  H   H901      1.0  0.09449  0.47167  0.99777  1.0000
  H   H902      1.0  0.23636  0.58129  0.12342  1.0000
  H   H903      1.0  0.09314  0.57562  0.11110  1.0000
  H   H904      1.0  0.26325  0.44890  0.98384  1.0000
  H   H905      1.0  0.05324  0.57622  0.11916  1.0000
  C   C1111     1.0  0.11828  0.50603  0.98227  1.0000
  H   H906      1.0  0.15086  0.44053  0.99484  1.0000
  C   C1112     1.0  0.41484  0.57511  0.21399  1.0000
  H   H907      1.0  0.47172  0.56074  0.36276  1.0000
  H   H908      1.0  0.27567  0.52999  0.47070  1.0000
  C   C1113     1.0  0.46144  0.56684  0.37368  1.0000
  C   C1114     1.0  0.99054  0.50094  0.07514  1.0000
  C   C1115     1.0  0.14149  0.58355  0.27069  1.0000
  H   H909      1.0  0.99393  0.44395  0.99165  1.0000
  H   H910      1.0  0.16580  0.58250  0.24820  1.0000
  H   H911      1.0  0.33225  0.58370  0.29762  1.0000
  Fe  Fe86      1.0  0.07958  0.49905  0.90654  1.0000
  S   S160      1.0  0.10349  0.50606  0.91365  1.0000
  S   S161      1.0  0.08615  0.47070  0.89881  1.0000
  Fe  Fe87      1.0  0.05451  0.53617  0.91327  1.0000
  C   C1116     1.0  0.11803  0.52741  0.95210  1.0000
  C   C1117     1.0  0.14177  0.45641  0.82045  1.0000
  Fe  Fe88      1.0  0.09578  0.53452  0.89620  1.0000
  Fe  Fe89      1.0  0.08256  0.51689  0.93736  1.0000
  S   S162      1.0  0.08912  0.50842  0.96624  1.0000
  S   S163      1.0  0.07321  0.52692  0.88725  1.0000
  S   S164      1.0  0.05904  0.50752  0.93191  1.0000
  C   C1118     1.0  0.33101  0.50947  0.61658  1.0000
  H   H912      1.0  0.21556  0.45979  0.75725  1.0000
  H   H913      1.0  0.99832  0.47174  0.96638  1.0000
  Fe  Fe90      1.0  0.06903  0.40645  0.77652  1.0000
  S   S165      1.0  0.07600  0.40095  0.80464  1.0000
  H   H914      1.0  0.14155  0.45083  0.87310  1.0000
  Fe  Fe91      1.0  0.09362  0.43560  0.76089  1.0000
  S   S166      1.0  0.10223  0.43185  0.78790  1.0000
  S   S167      1.0  0.10654  0.45559  0.73595  1.0000
  Fe  Fe92      1.0  0.10527  0.40143  0.78933  1.0000
  H   H915      1.0  0.02430  0.42315  0.87318  1.0000
  Fe  Fe93      1.0  0.07086  0.43346  0.80319  1.0000
  S   S168      1.0  0.04714  0.45578  0.84054  1.0000
  S   S169      1.0  0.09912  0.40503  0.76119  1.0000
  S   S170      1.0  0.06293  0.43784  0.77396  1.0000
  H   H916      1.0  0.33085  0.57007  0.51158  1.0000
  Fe  Fe94      1.0  0.19033  0.49738  0.73612  1.0000
  S   S171      1.0  0.17587  0.52567  0.72229  1.0000
  S   S172      1.0  0.17828  0.47180  0.75171  1.0000
  Fe  Fe95      1.0  0.22791  0.50907  0.72725  1.0000
  S   S173      1.0  0.21675  0.53829  0.71277  1.0000
  S   S174      1.0  0.25822  0.49809  0.72892  1.0000
  Fe  Fe96      1.0  0.19177  0.53688  0.73665  1.0000
  C   C1119     1.0  0.25487  0.49940  0.92725  1.0000
  Fe  Fe97      1.0  0.20211  0.52463  0.69968  1.0000
  S   S175      1.0  0.20401  0.53311  0.66844  1.0000
  S   S176      1.0  0.20418  0.50868  0.75238  1.0000
  S   S177      1.0  0.21529  0.49527  0.71223  1.0000
  H   H917      1.0  0.30170  0.57414  0.70621  1.0000
  S   S178      1.0  0.37457  0.53760  0.75960  1.0000
  C   C1120     1.0  0.44113  0.39329  0.57405  1.0000
  Fe  Fe98      1.0  0.32304  0.54262  0.75809  1.0000
  S   S179      1.0  0.33691  0.52040  0.77927  1.0000
  S   S180      1.0  0.17811  0.46935  0.97862  1.0000
  Fe  Fe99      1.0  0.34913  0.54337  0.78210  1.0000
  H   H918      1.0  0.19147  0.49676  0.60882  1.0000
  Fe  Fe100     1.0  0.36109  0.51667  0.75482  1.0000
  S   S181      1.0  0.38001  0.48934  0.74929  1.0000
  H   H919      1.0  0.10177  0.50931  0.78335  1.0000
  S   S182      1.0  0.34619  0.53696  0.73322  1.0000
  C   C1121     1.0  0.22073  0.42984  0.75972  1.0000
  Fe  Fe101     1.0  0.39772  0.56830  0.50294  1.0000
  C   C1122     1.0  0.29980  0.52942  0.97907  1.0000
  Fe  Fe102     1.0  0.43143  0.56458  0.52272  1.0000
  S   S183      1.0  0.44769  0.54199  0.54228  1.0000
  H   H920      1.0  0.39426  0.51141  0.48153  1.0000
  S   S184      1.0  0.05636  0.38469  0.77079  1.0000
  Fe  Fe103     1.0  0.40274  0.42726  0.63121  1.0000
  S   S185      1.0  0.42677  0.44191  0.61861  1.0000
  H   H921      1.0  0.09525  0.50380  0.81937  1.0000
  Fe  Fe104     1.0  0.38956  0.44674  0.66477  1.0000
  S   S186      1.0  0.41308  0.46214  0.65499  1.0000
  S   S187      1.0  0.36538  0.45408  0.68846  1.0000
  Fe  Fe105     1.0  0.40643  0.46760  0.62650  1.0000
  S   S188      1.0  0.39681  0.49665  0.61017  1.0000
  Fe  Fe106     1.0  0.43091  0.43467  0.64824  1.0000
  S   S189      1.0  0.38203  0.45343  0.63661  1.0000
  S   S190      1.0  0.40779  0.41869  0.66055  1.0000
  C   C1123     1.0  0.32897  0.39712  0.48752  1.0000
  H   H922      1.0  0.38750  0.52016  0.63852  1.0000
  C   C1124     1.0  0.36286  0.41204  0.62943  1.0000
  C   C1125     1.0  0.34491  0.40909  0.63098  1.0000
  C   C1126     1.0  0.37496  0.46656  0.50775  1.0000
  H   H923      1.0  0.36493  0.42027  0.63816  1.0000
  H   H924      1.0  0.33316  0.41517  0.64082  1.0000
  C   C1127     1.0  0.13944  0.49379  0.87379  1.0000
  C   C1128     1.0  0.29841  0.43231  0.50967  1.0000
  H   H925      1.0  0.23606  0.43605  0.70961  1.0000
  C   C1129     1.0  0.32500  0.41872  0.52438  1.0000
  C   C1130     1.0  0.33515  0.43122  0.51106  1.0000
  P   P33       1.0  0.22785  0.39094  0.76364  1.0000
  H   H926      1.0  0.33159  0.40857  0.53484  1.0000
  H   H927      1.0  0.34934  0.43077  0.51176  1.0000
  C   C1131     1.0  0.43373  0.52860  0.56066  1.0000
  C   C1132     1.0  0.41492  0.53629  0.56700  1.0000
  C   C1133     1.0  0.40388  0.52600  0.58188  1.0000
  C   C1134     1.0  0.41156  0.50808  0.59098  1.0000
  C   C1135     1.0  0.43044  0.50019  0.58487  1.0000
  C   C1136     1.0  0.44154  0.51049  0.56966  1.0000
  H   H928      1.0  0.40900  0.55047  0.56109  1.0000
  H   H929      1.0  0.38939  0.53210  0.58661  1.0000
  H   H930      1.0  0.43648  0.48634  0.59194  1.0000
  H   H931      1.0  0.45618  0.50451  0.56498  1.0000
  H   H932      1.0  0.43399  0.44363  0.54317  1.0000
  C   C1137     1.0  0.37597  0.48069  0.73153  1.0000
  C   C1138     1.0  0.39074  0.46901  0.72172  1.0000
  C   C1139     1.0  0.38775  0.46139  0.70794  1.0000
  C   C1140     1.0  0.36983  0.46500  0.70430  1.0000
  C   C1141     1.0  0.35504  0.47677  0.71406  1.0000
  C   C1142     1.0  0.35815  0.48482  0.72747  1.0000
  H   H933      1.0  0.40454  0.46577  0.72482  1.0000
  H   H934      1.0  0.39920  0.45226  0.70055  1.0000
  H   H935      1.0  0.34114  0.47958  0.71131  1.0000
  H   H936      1.0  0.34666  0.49375  0.73503  1.0000
  C   C1143     1.0  0.26743  0.51181  0.73823  1.0000
  C   C1144     1.0  0.25617  0.52801  0.74401  1.0000
  C   C1145     1.0  0.26375  0.53909  0.75109  1.0000
  C   C1146     1.0  0.28258  0.53396  0.75246  1.0000
  C   C1147     1.0  0.29373  0.51742  0.74729  1.0000
  C   C1148     1.0  0.28622  0.50652  0.73990  1.0000
  H   H937      1.0  0.24167  0.53211  0.74284  1.0000
  C   C1149     1.0  0.31217  0.53022  0.69798  1.0000
  H   H938      1.0  0.30826  0.51334  0.74843  1.0000
  H   H939      1.0  0.29509  0.49416  0.73525  1.0000
  H   H940      1.0  0.10980  0.49568  0.87800  1.0000
  H   H941      1.0  0.22737  0.54915  0.93379  1.0000
  C   C1150     1.0  0.05134  0.50070  0.81896  1.0000
  C   C1151     1.0  0.14429  0.54989  0.81696  1.0000
  H   H942      1.0  0.33143  0.51235  0.86372  1.0000
  C   C1152     1.0  0.41292  0.49300  0.78706  1.0000
  C   C1153     1.0  0.32297  0.51026  0.87785  1.0000
  C   C1154     1.0  0.30651  0.41931  0.52395  1.0000
  C   C1155     1.0  0.15307  0.44223  0.94531  1.0000
  C   C1156     1.0  0.16717  0.39208  0.76195  1.0000
  C   C1157     1.0  0.20429  0.41948  0.95409  1.0000
  H   H943      1.0  0.30963  0.43366  0.56228  1.0000
  H   H944      1.0  0.21898  0.57364  0.96391  1.0000
  C   C1158     1.0  0.24855  0.56732  0.96287  1.0000
  H   H945      1.0  0.28415  0.43281  0.50913  1.0000
  C   C1159     1.0  0.42308  0.53010  0.63513  1.0000
  H   H946      1.0  0.43061  0.49629  0.75954  1.0000
  C   C1160     1.0  0.09813  0.51566  0.75498  1.0000
  H   H947      1.0  0.19954  0.54171  0.82142  1.0000
  C   C1161     1.0  0.22239  0.51808  0.82541  1.0000
  H   H948      1.0  0.18850  0.41337  0.70556  1.0000
  H   H949      1.0  0.11134  0.53433  0.94035  1.0000
  C   C1162     1.0  0.12667  0.46018  0.73987  1.0000
  C   C1163     1.0  0.13215  0.47729  0.73112  1.0000
  C   C1164     1.0  0.14799  0.48116  0.73457  1.0000
  C   C1165     1.0  0.15846  0.46777  0.74668  1.0000
  C   C1166     1.0  0.15325  0.45049  0.75500  1.0000
  C   C1167     1.0  0.13746  0.44669  0.75159  1.0000
  H   H950      1.0  0.12389  0.48770  0.72202  1.0000
  H   H951      1.0  0.15198  0.49449  0.72798  1.0000
  H   H952      1.0  0.16136  0.44004  0.76430  1.0000
  H   H953      1.0  0.13376  0.43321  0.75792  1.0000
  H   H954      1.0  0.15281  0.39232  0.76182  1.0000
  H   H955      1.0  0.15366  0.45814  0.79092  1.0000
  C   C1168     1.0  0.14507  0.40262  0.80700  1.0000
  H   H956      1.0  0.24766  0.38596  0.65270  1.0000
  H   H957      1.0  0.14270  0.41162  0.79372  1.0000
  H   H958      1.0  0.19999  0.46825  0.59542  1.0000
  C   C1169     1.0  0.26622  0.58030  0.79309  1.0000
  H   H959      1.0  0.36802  0.40151  0.55812  1.0000
  H   H960      1.0  0.08815  0.43156  0.92851  1.0000
  C   C1170     1.0  0.19873  0.40380  0.95228  1.0000
  H   H961      1.0  0.30475  0.57608  0.60669  1.0000
  H   H962      1.0  0.23856  0.42967  0.67828  1.0000
  S   S191      1.0  0.43048  0.55746  0.49611  1.0000
  H   H963      1.0  0.19167  0.39524  0.96462  1.0000
  C   C1171     1.0  0.07298  0.45772  0.80943  1.0000
  C   C1172     1.0  0.07467  0.46660  0.88325  1.0000
  C   C1173     1.0  0.05990  0.47993  0.87658  1.0000
  C   C1174     1.0  0.05122  0.47608  0.86407  1.0000
  C   C1175     1.0  0.05766  0.45927  0.85753  1.0000
  C   C1176     1.0  0.07197  0.44566  0.86492  1.0000
  C   C1177     1.0  0.08044  0.44936  0.87763  1.0000
  H   H964      1.0  0.05505  0.49311  0.88117  1.0000
  H   H965      1.0  0.03954  0.48626  0.85934  1.0000
  H   H966      1.0  0.07650  0.43215  0.86114  1.0000
  H   H967      1.0  0.09158  0.43883  0.88308  1.0000
  C   C1178     1.0  0.10964  0.51469  0.96700  1.0000
  C   C1179     1.0  0.34216  0.39830  0.61983  1.0000
  H   H968      1.0  0.25933  0.53790  0.93982  1.0000
  S   S192      1.0  0.34072  0.45925  0.48037  1.0000
  H   H969      1.0  0.11429  0.56490  0.90345  1.0000
  C   C1180     1.0  0.19129  0.57590  0.93237  1.0000
  C   C1181     1.0  0.05040  0.52477  0.83517  1.0000
  C   C1182     1.0  0.30973  0.53447  0.67951  1.0000
  H   H970      1.0  0.40667  0.41497  0.49383  1.0000
  C   C1183     1.0  0.07993  0.43998  0.82320  1.0000
  C   C1184     1.0  0.23515  0.53535  0.93176  1.0000
  S   S193      1.0  0.45953  0.42074  0.65458  1.0000
  C   C1185     1.0  0.07095  0.49589  0.81615  1.0000
  C   C1186     1.0  0.19470  0.46722  0.61041  1.0000
  C   C1187     1.0  0.38512  0.54760  0.52070  1.0000
  H   H971      1.0  0.20568  0.39996  0.79942  1.0000
  H   H972      1.0  0.20252  0.55525  0.85227  1.0000
  C   C1188     1.0  0.45299  0.39644  0.55636  1.0000
  H   H973      1.0  0.38506  0.53864  0.53451  1.0000
  C   C1189     1.0  0.17664  0.40537  0.74920  1.0000
  C   C1190     1.0  0.04114  0.51507  0.82839  1.0000
  Fe  Fe107     1.0  0.20899  0.46177  0.96715  1.0000
  C   C1191     1.0  0.13812  0.58222  0.81996  1.0000
  C   C1192     1.0  0.26798  0.56825  0.82591  1.0000
  C   C1193     1.0  0.22693  0.52387  0.92604  1.0000
  C   C1194     1.0  0.30490  0.55327  0.67019  1.0000
  H   H974      1.0  0.42465  0.56416  0.71078  1.0000
  C   C1195     1.0  0.27698  0.39497  0.81324  1.0000
  H   H975      1.0  0.37135  0.46271  0.58255  1.0000
  H   H976      1.0  0.12312  0.46916  0.78148  1.0000
  H   H977      1.0  0.30753  0.56027  0.50093  1.0000
  C   C1196     1.0  0.26605  0.57075  0.95260  1.0000
  H   H978      1.0  0.32510  0.53639  0.88261  1.0000
  C   C1197     1.0  0.06305  0.58053  0.87230  1.0000
  C   C1198     1.0  0.01616  0.38572  0.86170  1.0000
  H   H979      1.0  0.42611  0.39861  0.57574  1.0000
  H   H980      1.0  0.01809  0.40741  0.77951  1.0000
  C   C1199     1.0  0.48552  0.56502  0.52248  1.0000
  C   C1200     1.0  0.31281  0.53894  0.63536  1.0000
  C   C1201     1.0  0.42174  0.50348  0.77043  1.0000
  H   H981      1.0  0.29578  0.57456  0.89718  1.0000
  H   H982      1.0  0.24800  0.46233  0.74110  1.0000
  C   C1202     1.0  0.14446  0.52128  0.96702  1.0000
  H   H983      1.0  0.25394  0.56172  0.71529  1.0000
  C   C1203     1.0  0.31249  0.51841  0.61557  1.0000
  C   C1204     1.0  0.46365  0.51818  0.75544  1.0000
  P   P34       1.0  0.39251  0.55912  0.62760  1.0000
  H   H984      1.0  0.46464  0.51301  0.60810  1.0000
  H   H985      1.0  0.39793  0.44598  0.59730  1.0000
  H   H986      1.0  0.33553  0.47834  0.52680  1.0000
  H   H987      1.0  0.02598  0.51823  0.83100  1.0000
  H   H988      1.0  0.29864  0.47908  0.90912  1.0000
  H   H989      1.0  0.27212  0.43358  0.73594  1.0000
  H   H990      1.0  0.40753  0.46046  0.52791  1.0000
  C   C1205     1.0  0.38912  0.41613  0.53993  1.0000
  H   H991      1.0  0.48226  0.55710  0.49836  1.0000
  H   H992      1.0  0.33805  0.49801  0.60943  1.0000
  C   C1206     1.0  0.41907  0.53698  0.72645  1.0000
  C   C1207     1.0  0.30973  0.51592  0.95139  1.0000
  C   C1208     1.0  0.24425  0.44870  0.74551  1.0000
  C   C1209     1.0  0.12305  0.49843  0.84887  1.0000
  C   C1210     1.0  0.30970  0.54466  0.70728  1.0000
  C   C1211     1.0  0.27772  0.51812  0.96901  1.0000
  H   H993      1.0  0.07368  0.41237  0.84095  1.0000
  C   C1212     1.0  0.21333  0.43074  0.93825  1.0000
  H   H994      1.0  0.40777  0.52740  0.50553  1.0000
  C   C1213     1.0  0.46727  0.39798  0.64981  1.0000
  H   H995      1.0  0.25865  0.54600  0.88699  1.0000
  C   C1214     1.0  0.48668  0.57969  0.52986  1.0000
  H   H996      1.0  0.31791  0.48383  0.87690  1.0000
  C   C1215     1.0  0.39996  0.41990  0.52178  1.0000
  P   P35       1.0  0.28641  0.50193  0.93779  1.0000
  C   C1216     1.0  0.19499  0.40527  0.74977  1.0000
  P   P36       1.0  0.08439  0.47766  0.80342  1.0000
  H   H997      1.0  0.04169  0.41671  0.83140  1.0000
  C   C1217     1.0  0.19011  0.51797  0.84116  1.0000
  C   C1218     1.0  0.31947  0.52379  0.88855  1.0000
  H   H998      1.0  0.30548  0.53217  0.91460  1.0000
  C   C1219     1.0  0.13992  0.49848  0.83566  1.0000
  C   C1220     1.0  0.22588  0.44728  0.75447  1.0000
  C   C1221     1.0  0.37808  0.40413  0.61676  1.0000
  C   C1222     1.0  0.16037  0.51620  0.68343  1.0000
  C   C1223     1.0  0.14092  0.52096  0.68566  1.0000
  C   C1224     1.0  0.13124  0.50804  0.68458  1.0000
  C   C1225     1.0  0.14100  0.49028  0.68142  1.0000
  C   C1226     1.0  0.16057  0.48527  0.67942  1.0000
  C   C1227     1.0  0.17022  0.49847  0.68024  1.0000
  P   P37       1.0  0.17323  0.46266  0.67435  1.0000
  C   C1228     1.0  0.15736  0.44667  0.68408  1.0000
  C   C1229     1.0  0.18120  0.46457  0.64925  1.0000
  C   C1230     1.0  0.18319  0.48199  0.63729  1.0000
  H   H999      1.0  0.45662  0.53116  0.71055  1.0000
  S   S194      1.0  0.11965  0.54430  0.87385  1.0000
  C   C1231     1.0  0.19285  0.44981  0.62221  1.0000
  C   C1232     1.0  0.18616  0.44846  0.64156  1.0000
  C   C1233     1.0  0.14709  0.44322  0.67277  1.0000
  C   C1234     1.0  0.13420  0.43151  0.68058  1.0000
  C   C1235     1.0  0.13126  0.42337  0.69975  1.0000
  C   C1236     1.0  0.14118  0.42695  0.71112  1.0000
  C   C1237     1.0  0.15397  0.43877  0.70340  1.0000
  C   C1238     1.0  0.19322  0.45403  0.68547  1.0000
  C   C1239     1.0  0.21012  0.44380  0.67662  1.0000
  C   C1240     1.0  0.30876  0.44459  0.49598  1.0000
  C   C1241     1.0  0.22409  0.44075  0.70297  1.0000
  C   C1242     1.0  0.20735  0.45082  0.71185  1.0000
  C   C1243     1.0  0.19202  0.45749  0.70315  1.0000
  H   H1000     1.0  0.16783  0.52636  0.68403  1.0000
  H   H1001     1.0  0.13341  0.53473  0.68811  1.0000
  H   H1002     1.0  0.11614  0.51169  0.68633  1.0000
  H   H1003     1.0  0.13315  0.48051  0.68074  1.0000
  H   H1004     1.0  0.18536  0.49523  0.67827  1.0000
  H   H1005     1.0  0.17979  0.49461  0.64279  1.0000
  H   H1006     1.0  0.33876  0.50699  0.53088  1.0000
  H   H1007     1.0  0.37725  0.49481  0.56793  1.0000
  H   H1008     1.0  0.19674  0.43735  0.61634  1.0000
  H   H1009     1.0  0.18509  0.43483  0.65054  1.0000
  H   H1010     1.0  0.14856  0.44999  0.65806  1.0000
  H   H1011     1.0  0.12606  0.42916  0.67189  1.0000
  H   H1012     1.0  0.45210  0.53938  0.58414  1.0000
  C   C1244     1.0  0.48273  0.51685  0.71847  1.0000
  H   H1013     1.0  0.16067  0.44218  0.71268  1.0000
  H   H1014     1.0  0.21168  0.44100  0.66293  1.0000
  C   C1245     1.0  0.15074  0.56601  0.81552  1.0000
  H   H1015     1.0  0.12404  0.39811  0.89302  1.0000
  H   H1016     1.0  0.20632  0.45387  0.72534  1.0000
  H   H1017     1.0  0.17933  0.46560  0.71014  1.0000
  H   H1018     1.0  0.38970  0.52833  0.81001  1.0000
  H   H1019     1.0  0.18656  0.55395  0.90045  1.0000
  C   C1246     1.0  0.21690  0.42604  0.92063  1.0000
  C   C1247     1.0  0.37125  0.56631  0.51821  1.0000
  H   H1020     1.0  0.31149  0.52301  0.67272  1.0000
  C   C1248     1.0  0.27711  0.56578  0.64727  1.0000
  C   C1249     1.0  0.08756  0.48986  0.77910  1.0000
  H   H1021     1.0  0.20148  0.42292  0.96774  1.0000
  C   C1250     1.0  0.21138  0.41027  0.91884  1.0000
  H   H1022     1.0  0.41898  0.56509  0.64655  1.0000
  C   C1251     1.0  0.29127  0.56901  0.88765  1.0000
  H   H1023     1.0  0.21089  0.38932  0.83176  1.0000
  H   H1024     1.0  0.30518  0.51389  0.60758  1.0000
  C   C1252     1.0  0.12898  0.41057  0.95801  1.0000
  C   C1253     1.0  0.04487  0.39806  0.86870  1.0000
  C   C1254     1.0  0.41903  0.55230  0.71107  1.0000
  H   H1025     1.0  0.02985  0.44664  0.80821  1.0000
  H   H1026     1.0  0.23730  0.54848  0.66677  1.0000
  H   H1027     1.0  0.36934  0.45411  0.51473  1.0000
  C   C1255     1.0  0.20216  0.39917  0.93468  1.0000
  H   H1028     1.0  0.26357  0.40260  0.74629  1.0000
  C   C1256     1.0  0.07120  0.46076  0.96723  1.0000
  C   C1257     1.0  0.40366  0.53772  0.69613  1.0000
  C   C1258     1.0  0.33143  0.52994  0.63622  1.0000
  H   H1029     1.0  0.30022  0.56858  0.84129  1.0000
  C   C1259     1.0  0.30578  0.46493  0.94705  1.0000
  H   H1030     1.0  0.12012  0.53745  0.82423  1.0000
  C   C1260     1.0  0.40951  0.57835  0.64296  1.0000
  C   C1261     1.0  0.30401  0.56324  0.69852  1.0000
  C   C1262     1.0  0.40884  0.57272  0.74803  1.0000
  C   C1263     1.0  0.39834  0.54097  0.50377  1.0000
  C   C1264     1.0  0.37534  0.39334  0.60564  1.0000
  H   H1031     1.0  0.27148  0.53933  0.66503  1.0000
  H   H1032     1.0  0.99873  0.41218  0.86713  1.0000
  C   C1265     1.0  0.00668  0.55032  0.92891  1.0000
  C   C1266     1.0  0.10699  0.46948  0.80982  1.0000
  C   C1267     1.0  0.27035  0.55294  0.88162  1.0000
  C   C1268     1.0  0.30340  0.53316  0.62488  1.0000
  C   C1269     1.0  0.00835  0.54041  0.94719  1.0000
  H   H1033     1.0  0.22015  0.56553  0.73048  1.0000
  C   C1270     1.0  0.39807  0.55324  0.48424  1.0000
  C   C1271     1.0  0.32714  0.44409  0.49676  1.0000
  C   C1272     1.0  0.10804  0.46574  0.82878  1.0000
  C   C1273     1.0  0.20670  0.57114  0.89556  1.0000
  C   C1274     1.0  0.28853  0.47765  0.94971  1.0000
  H   H1034     1.0  0.21269  0.52860  0.92395  1.0000
  C   C1275     1.0  0.35741  0.39044  0.60713  1.0000
  H   H1035     1.0  0.33678  0.56790  0.84061  1.0000
  H   H1036     1.0  0.26217  0.48531  0.92570  1.0000
  C   C1276     1.0  0.30853  0.52122  0.90678  1.0000
  H   H1037     1.0  0.26384  0.51524  0.97166  1.0000
  H   H1038     1.0  0.37383  0.57031  0.78648  1.0000
  H   H1039     1.0  0.23030  0.49672  0.91994  1.0000
  C   C1277     1.0  0.12286  0.49600  0.86786  1.0000
  C   C1278     1.0  0.06992  0.52053  0.83196  1.0000
  C   C1279     1.0  0.08095  0.48481  0.76587  1.0000
  H   H1040     1.0  0.07709  0.52809  0.83720  1.0000
  H   H1041     1.0  0.39738  0.56830  0.74550  1.0000
  H   H1042     1.0  0.44615  0.50714  0.64077  1.0000
  H   H1043     1.0  0.48514  0.55121  0.53141  1.0000
  S   S195      1.0  0.21422  0.48999  0.96623  1.0000
  C   C1280     1.0  0.08243  0.49544  0.74749  1.0000
  C   C1281     1.0  0.13249  0.44264  0.90299  1.0000
  C   C1282     1.0  0.06854  0.42485  0.83128  1.0000
  S   S196      1.0  0.22048  0.57537  0.80495  1.0000
  H   H1044     1.0  0.09772  0.56592  0.83161  1.0000
  S   S197      1.0  0.29337  0.40398  0.54104  1.0000
  C   C1283     1.0  0.29151  0.51337  0.95346  1.0000
  H   H1045     1.0  0.09260  0.51869  0.72765  1.0000
  H   H1046     1.0  0.04376  0.49315  0.81433  1.0000
  C   C1284     1.0  0.44069  0.51870  0.63030  1.0000
  C   C1285     1.0  0.31543  0.49418  0.88533  1.0000
  H   H1047     1.0  0.17568  0.52553  0.84391  1.0000
  C   C1286     1.0  0.26555  0.55316  0.65772  1.0000
  C   C1287     1.0  0.04323  0.44469  0.81185  1.0000
  C   C1288     1.0  0.27332  0.47177  0.96325  1.0000
  C   C1289     1.0  0.26307  0.51069  0.93339  1.0000
  H   H1048     1.0  0.35898  0.44186  0.57347  1.0000
  C   C1290     1.0  0.12648  0.41049  0.89586  1.0000
  H   H1049     1.0  0.13816  0.42137  0.72614  1.0000
  C   C1291     1.0  0.38926  0.49866  0.48888  1.0000
  H   H1050     1.0  0.14012  0.49989  0.82094  1.0000
  C   C1292     1.0  0.08016  0.50644  0.82218  1.0000
  C   C1293     1.0  0.12356  0.46663  0.79617  1.0000
  H   H1051     1.0  0.15516  0.45107  0.82463  1.0000
  H   H1052     1.0  0.32094  0.51127  0.94026  1.0000
  C   C1294     1.0  0.24619  0.55831  0.65881  1.0000
  H   H1053     1.0  0.31793  0.46939  0.93737  1.0000
  H   H1054     1.0  0.14167  0.54088  0.94085  1.0000
  C   C1295     1.0  0.44084  0.56648  0.75190  1.0000
  H   H1055     1.0  0.33895  0.53432  0.64412  1.0000
  C   C1296     1.0  0.25776  0.43255  0.74251  1.0000
  C   C1297     1.0  0.31256  0.57289  0.49317  1.0000
  H   H1056     1.0  0.32611  0.58166  0.65226  1.0000
  H   H1057     1.0  0.07751  0.49125  0.73730  1.0000
  H   H1058     1.0  0.04244  0.53545  0.84304  1.0000
  H   H1059     1.0  0.16052  0.42023  0.81225  1.0000
  C   C1298     1.0  0.14090  0.46028  0.80149  1.0000
  C   C1299     1.0  0.23405  0.41366  0.75595  1.0000
  C   C1300     1.0  0.15512  0.40753  0.81752  1.0000
  H   H1060     1.0  0.20639  0.42910  0.76675  1.0000
  C   C1301     1.0  0.14845  0.56250  0.86401  1.0000
  C   C1302     1.0  0.35447  0.56739  0.81320  1.0000
  C   C1303     1.0  0.37075  0.57872  0.49886  1.0000
  C   C1304     1.0  0.48268  0.50977  0.75168  1.0000
  H   H1061     1.0  0.35122  0.51863  0.48916  1.0000
  P   P38       1.0  0.12138  0.43195  0.94191  1.0000
  C   C1305     1.0  0.09651  0.44114  0.94915  1.0000
  H   H1062     1.0  0.18531  0.57730  0.94677  1.0000
  H   H1063     1.0  0.04904  0.47252  0.79470  1.0000
  S   S198      1.0  0.02623  0.55444  0.91065  1.0000
  H   H1064     1.0  0.31056  0.58041  0.86355  1.0000
  C   C1306     1.0  0.38481  0.40074  0.51163  1.0000
  P   P39       1.0  0.38292  0.38989  0.49369  1.0000
  C   C1307     1.0  0.09000  0.45172  0.96321  1.0000
  C   C1308     1.0  0.45113  0.52202  0.61194  1.0000
  C   C1309     1.0  0.05858  0.45892  0.95764  1.0000
  C   C1310     1.0  0.06476  0.44795  0.94405  1.0000
  C   C1311     1.0  0.08363  0.43909  0.93981  1.0000
  C   C1312     1.0  0.13461  0.44838  0.94255  1.0000
  C   C1313     1.0  0.12663  0.46760  0.93977  1.0000
  C   C1314     1.0  0.13668  0.48047  0.94019  1.0000
  C   C1315     1.0  0.15477  0.47428  0.94342  1.0000
  C   C1316     1.0  0.16304  0.45521  0.94578  1.0000
  S   S199      1.0  0.40049  0.57493  0.53043  1.0000
  H   H1065     1.0  0.20595  0.55627  0.63138  1.0000
  C   C1317     1.0  0.99211  0.53804  0.96135  1.0000
  S   S200      1.0  0.31971  0.39450  0.62204  1.0000
  H   H1066     1.0  0.48130  0.39288  0.54066  1.0000
  H   H1067     1.0  0.13431  0.45550  0.90533  1.0000
  H   H1068     1.0  0.12579  0.45613  0.84874  1.0000
  C   C1318     1.0  0.05468  0.45978  0.80377  1.0000
  C   C1319     1.0  0.30139  0.50483  0.91464  1.0000
  H   H1069     1.0  0.12080  0.41482  0.70596  1.0000
  S   S201      1.0  0.34740  0.54768  0.81109  1.0000
  C   C1320     1.0  0.09106  0.51082  0.74202  1.0000
  H   H1070     1.0  0.04414  0.46640  0.96038  1.0000
  H   H1071     1.0  0.05517  0.44711  0.93604  1.0000
  C   C1321     1.0  0.01714  0.39374  0.77837  1.0000
  H   H1072     1.0  0.11253  0.47260  0.93743  1.0000
  H   H1073     1.0  0.13035  0.49526  0.93825  1.0000
  H   H1074     1.0  0.16223  0.48428  0.94434  1.0000
  C   C1322     1.0  0.15843  0.57506  0.86547  1.0000
  H   H1075     1.0  0.17363  0.55723  0.93353  1.0000
  C   C1323     1.0  0.30001  0.45762  0.72306  1.0000
  C   C1324     1.0  0.31876  0.44933  0.71709  1.0000
  C   C1325     1.0  0.33008  0.44086  0.73021  1.0000
  C   C1326     1.0  0.32277  0.44092  0.74926  1.0000
  C   C1327     1.0  0.30401  0.44955  0.75533  1.0000
  C   C1328     1.0  0.29262  0.45750  0.74213  1.0000
  P   P40       1.0  0.29484  0.45034  0.77985  1.0000
  C   C1329     1.0  0.28782  0.42862  0.79271  1.0000
  C   C1330     1.0  0.31336  0.45406  0.78851  1.0000
  C   C1331     1.0  0.31785  0.44330  0.80561  1.0000
  C   C1332     1.0  0.33320  0.44537  0.81134  1.0000
  C   C1333     1.0  0.34414  0.45813  0.80005  1.0000
  C   C1334     1.0  0.33954  0.46907  0.78320  1.0000
  C   C1335     1.0  0.32423  0.46709  0.77743  1.0000
  C   C1336     1.0  0.27536  0.42803  0.81026  1.0000
  C   C1337     1.0  0.26995  0.41126  0.82045  1.0000
  H   H1076     1.0  0.16559  0.56582  0.81127  1.0000
  C   C1338     1.0  0.38445  0.57201  0.48185  1.0000
  C   C1339     1.0  0.29470  0.41221  0.78549  1.0000
  C   C1340     1.0  0.27454  0.46928  0.78253  1.0000
  C   C1341     1.0  0.25708  0.46696  0.78141  1.0000
  C   C1342     1.0  0.24133  0.48157  0.78305  1.0000
  C   C1343     1.0  0.24283  0.49855  0.78600  1.0000
  C   C1344     1.0  0.26005  0.50085  0.78754  1.0000
  C   C1345     1.0  0.27588  0.48633  0.78571  1.0000
  H   H1077     1.0  0.29126  0.46455  0.71288  1.0000
  H   H1078     1.0  0.32468  0.44975  0.70226  1.0000
  H   H1079     1.0  0.34471  0.43471  0.72546  1.0000
  H   H1080     1.0  0.33190  0.43457  0.75915  1.0000
  H   H1081     1.0  0.27820  0.46422  0.74639  1.0000
  H   H1082     1.0  0.30984  0.43305  0.81437  1.0000
  H   H1083     1.0  0.33682  0.43684  0.82440  1.0000
  H   H1084     1.0  0.35624  0.45955  0.80426  1.0000
  H   H1085     1.0  0.34803  0.47892  0.77441  1.0000
  H   H1086     1.0  0.32112  0.47549  0.76411  1.0000
  H   H1087     1.0  0.26988  0.44051  0.81610  1.0000
  H   H1088     1.0  0.38711  0.38714  0.59592  1.0000
  H   H1089     1.0  0.32079  0.43651  0.95502  1.0000
  H   H1090     1.0  0.30430  0.41224  0.77202  1.0000
  H   H1091     1.0  0.25571  0.45400  0.77884  1.0000
  H   H1092     1.0  0.22804  0.47992  0.78156  1.0000
  H   H1093     1.0  0.23076  0.51008  0.78663  1.0000
  H   H1094     1.0  0.26132  0.51423  0.78928  1.0000
  H   H1095     1.0  0.28914  0.48880  0.78620  1.0000
  P   P41       1.0  0.30206  0.55891  0.64618  1.0000
  C   C1346     1.0  0.34048  0.51523  0.62691  1.0000
  H   H1096     1.0  0.10513  0.52737  0.75070  1.0000
  C   C1347     1.0  0.23685  0.50594  0.92369  1.0000
  C   C1348     1.0  0.25321  0.52883  0.93536  1.0000
  C   C1349     1.0  0.31372  0.57725  0.63125  1.0000
  C   C1350     1.0  0.30128  0.56759  0.68012  1.0000
  Fe  Fe108     1.0  0.35807  0.55819  0.73959  1.0000
  C   C1351     1.0  0.38112  0.56588  0.60781  1.0000
  C   C1352     1.0  0.37860  0.54649  0.64796  1.0000
  C   C1353     1.0  0.37929  0.52733  0.64969  1.0000
  C   C1354     1.0  0.36983  0.51712  0.66609  1.0000
  C   C1355     1.0  0.35938  0.52602  0.68074  1.0000
  C   C1356     1.0  0.35799  0.54523  0.67883  1.0000
  C   C1357     1.0  0.36754  0.55546  0.66251  1.0000
  C   C1358     1.0  0.22548  0.43723  0.68535  1.0000
  C   C1359     1.0  0.12531  0.45912  0.83405  1.0000
  C   C1360     1.0  0.36722  0.55686  0.60760  1.0000
  H   H1097     1.0  0.09963  0.45383  0.97038  1.0000
  H   H1098     1.0  0.37084  0.50221  0.66756  1.0000
  H   H1099     1.0  0.35244  0.51798  0.69361  1.0000
  H   H1100     1.0  0.34980  0.55216  0.69016  1.0000
  C   C1361     1.0  0.13526  0.53099  0.95232  1.0000
  H   H1101     1.0  0.41539  0.52739  0.64951  1.0000
  C   C1362     1.0  0.39883  0.52133  0.79905  1.0000
  H   H1102     1.0  0.21426  0.40672  0.90525  1.0000
  C   C1363     1.0  0.15636  0.49433  0.86061  1.0000
  C   C1364     1.0  0.15656  0.49629  0.84151  1.0000
  P   P42       1.0  0.17804  0.48853  0.86850  1.0000
  C   C1365     1.0  0.19531  0.49932  0.85061  1.0000
  C   C1366     1.0  0.17652  0.49791  0.88857  1.0000
  C   C1367     1.0  0.16383  0.51465  0.89139  1.0000
  C   C1368     1.0  0.16382  0.52290  0.90592  1.0000
  C   C1369     1.0  0.17660  0.51453  0.91763  1.0000
  C   C1370     1.0  0.18933  0.49785  0.91490  1.0000
  C   C1371     1.0  0.18943  0.48962  0.90032  1.0000
  C   C1372     1.0  0.21421  0.49014  0.84745  1.0000
  C   C1373     1.0  0.22770  0.49951  0.83480  1.0000
  C   C1374     1.0  0.18324  0.46330  0.87376  1.0000
  C   C1375     1.0  0.17754  0.45346  0.89218  1.0000
  C   C1376     1.0  0.17855  0.43416  0.89581  1.0000
  C   C1377     1.0  0.18482  0.42463  0.88108  1.0000
  C   C1378     1.0  0.19056  0.43426  0.86273  1.0000
  C   C1379     1.0  0.18976  0.45357  0.85904  1.0000
  H   H1103     1.0  0.13907  0.49144  0.88866  1.0000
  H   H1104     1.0  0.16957  0.49578  0.83116  1.0000
  H   H1105     1.0  0.15408  0.52148  0.88224  1.0000
  C   C1380     1.0  0.98887  0.55761  0.92486  1.0000
  H   H1106     1.0  0.17646  0.52085  0.92896  1.0000
  H   H1107     1.0  0.19885  0.49105  0.92437  1.0000
  H   H1108     1.0  0.19958  0.47681  0.89828  1.0000
  H   H1109     1.0  0.21854  0.47596  0.85505  1.0000
  H   H1110     1.0  0.24231  0.49247  0.83244  1.0000
  H   H1111     1.0  0.17154  0.46071  0.90368  1.0000
  H   H1112     1.0  0.17389  0.42663  0.90998  1.0000
  H   H1113     1.0  0.18469  0.40988  0.88388  1.0000
  H   H1114     1.0  0.19495  0.42681  0.85132  1.0000
  H   H1115     1.0  0.19340  0.46102  0.84465  1.0000
  C   C1381     1.0  0.31858  0.51178  0.82811  1.0000
  C   C1382     1.0  0.31182  0.49888  0.82282  1.0000
  C   C1383     1.0  0.29260  0.50105  0.82448  1.0000
  C   C1384     1.0  0.28011  0.51609  0.83152  1.0000
  C   C1385     1.0  0.28676  0.52889  0.83732  1.0000
  C   C1386     1.0  0.30614  0.52678  0.83524  1.0000
  C   C1387     1.0  0.31378  0.52414  0.96402  1.0000
  C   C1388     1.0  0.23825  0.57606  0.64950  1.0000
  C   C1389     1.0  0.24827  0.54184  0.85606  1.0000
  C   C1390     1.0  0.41130  0.55267  0.69603  1.0000
  C   C1391     1.0  0.18930  0.56488  0.76579  1.0000
  C   C1392     1.0  0.21397  0.53029  0.87080  1.0000
  C   C1393     1.0  0.23013  0.51932  0.87685  1.0000
  C   C1394     1.0  0.24723  0.52510  0.86960  1.0000
  H   H1116     1.0  0.02208  0.53483  0.95047  1.0000
  H   H1117     1.0  0.39431  0.49387  0.81406  1.0000
  H   H1118     1.0  0.35485  0.50824  0.62770  1.0000
  H   H1119     1.0  0.35760  0.57929  0.56473  1.0000
  H   H1120     1.0  0.48720  0.57721  0.54453  1.0000
  H   H1121     1.0  0.07502  0.47253  0.76944  1.0000
  H   H1122     1.0  0.11010  0.49993  0.84459  1.0000
  H   H1123     1.0  0.13623  0.42220  0.86667  1.0000
  H   H1124     1.0  0.31193  0.54154  0.72140  1.0000
  S   S202      1.0  0.07659  0.54635  0.92052  1.0000
  C   C1395     1.0  0.05001  0.42733  0.82565  1.0000
  H   H1125     1.0  0.33354  0.51056  0.82613  1.0000
  H   H1126     1.0  0.32153  0.48752  0.81696  1.0000
  H   H1127     1.0  0.28740  0.49128  0.81998  1.0000
  H   H1128     1.0  0.26531  0.51789  0.83211  1.0000
  H   H1129     1.0  0.31183  0.53680  0.83872  1.0000
  C   C1396     1.0  0.99949  0.38976  0.77993  1.0000
  H   H1130     1.0  0.41055  0.56489  0.68467  1.0000
  H   H1131     1.0  0.20071  0.52592  0.87641  1.0000
  H   H1132     1.0  0.22938  0.50628  0.88703  1.0000
  H   H1133     1.0  0.25967  0.51646  0.87438  1.0000
  H   H1134     1.0  0.09281  0.43806  0.82772  1.0000
  C   C1397     1.0  0.32099  0.45687  0.54366  1.0000
  S   S203      1.0  0.17745  0.56157  0.75018  1.0000
  C   C1398     1.0  0.32597  0.57834  0.49905  1.0000
  H   H1135     1.0  0.27303  0.55108  0.80540  1.0000
  H   H1136     1.0  0.28914  0.54006  0.62374  1.0000
  H   H1137     1.0  0.31070  0.46040  0.53497  1.0000
  H   H1138     1.0  0.31598  0.51573  0.70512  1.0000
  H   H1139     1.0  0.09543  0.46783  0.83951  1.0000
  H   H1140     1.0  0.21128  0.54036  0.76332  1.0000
  C   C1399     1.0  0.33709  0.52842  0.54531  1.0000
  C   C1400     1.0  0.34415  0.53375  0.55798  1.0000
  C   C1401     1.0  0.35842  0.52134  0.56626  1.0000
  C   C1402     1.0  0.36565  0.50361  0.56187  1.0000
  C   C1403     1.0  0.35826  0.49788  0.54955  1.0000
  C   C1404     1.0  0.34406  0.51058  0.54115  1.0000
  P   P43       1.0  0.36760  0.47517  0.54316  1.0000
  C   C1405     1.0  0.37565  0.47936  0.51795  1.0000
  C   C1406     1.0  0.38722  0.46254  0.55407  1.0000
  C   C1407     1.0  0.40511  0.45718  0.54308  1.0000
  C   C1408     1.0  0.42022  0.44760  0.55166  1.0000
  C   C1409     1.0  0.41762  0.44345  0.57123  1.0000
  C   C1410     1.0  0.39997  0.44898  0.58217  1.0000
  C   C1411     1.0  0.38486  0.45841  0.57370  1.0000
  C   C1412     1.0  0.09629  0.50531  0.77346  1.0000
  S   S204      1.0  0.40076  0.40710  0.61486  1.0000
  C   C1413     1.0  0.20359  0.52722  0.82848  1.0000
  H   H1141     1.0  0.33372  0.42481  0.58161  1.0000
  S   S205      1.0  0.17145  0.40195  0.84744  1.0000
  C   C1414     1.0  0.34904  0.46207  0.54980  1.0000
  C   C1415     1.0  0.33516  0.46702  0.53909  1.0000
  C   C1416     1.0  0.30461  0.49148  0.90363  1.0000
  C   C1417     1.0  0.32045  0.44172  0.55899  1.0000
  C   C1418     1.0  0.33412  0.43665  0.56974  1.0000
  C   C1419     1.0  0.34845  0.44662  0.56510  1.0000
  H   H1142     1.0  0.32651  0.53824  0.53834  1.0000
  H   H1143     1.0  0.33882  0.54762  0.56108  1.0000
  H   H1144     1.0  0.36422  0.52549  0.57583  1.0000
  C   C1420     1.0  0.46370  0.52530  0.72217  1.0000
  C   C1421     1.0  0.21496  0.54683  0.85723  1.0000
  P   P44       1.0  0.27054  0.54872  0.84564  1.0000
  H   H1145     1.0  0.22387  0.43467  0.90831  1.0000
  H   H1146     1.0  0.15413  0.53734  0.81362  1.0000
  C   C1422     1.0  0.23204  0.55249  0.84980  1.0000
  C   C1423     1.0  0.27648  0.55955  0.89412  1.0000
  C   C1424     1.0  0.20582  0.55248  0.76963  1.0000
  C   C1425     1.0  0.20864  0.57181  0.78949  1.0000
  H   H1147     1.0  0.39731  0.53817  0.68470  1.0000
  H   H1148     1.0  0.23281  0.52558  0.81595  1.0000
  C   C1426     1.0  0.40387  0.52232  0.71120  1.0000
  H   H1149     1.0  0.34807  0.55456  0.59215  1.0000
  C   C1427     1.0  0.35866  0.56177  0.59219  1.0000
  H   H1150     1.0  0.17714  0.45056  0.94814  1.0000
  C   C1428     1.0  0.41550  0.54462  0.62145  1.0000
  H   H1151     1.0  0.44456  0.40041  0.63656  1.0000
  H   H1152     1.0  0.42926  0.43607  0.57799  1.0000
  H   H1153     1.0  0.15386  0.53578  0.90808  1.0000
  S   S206      1.0  0.16685  0.52425  0.96645  1.0000
  C   C1429     1.0  0.43100  0.38615  0.69532  1.0000
  S   S207      1.0  0.29196  0.54897  0.75990  1.0000
  H   H1154     1.0  0.13708  0.57912  0.72242  1.0000
  H   H1155     1.0  0.36651  0.57025  0.66155  1.0000
  C   C1430     1.0  0.27901  0.55584  0.86244  1.0000
  H   H1156     1.0  0.22835  0.54645  0.78422  1.0000
  C   C1431     1.0  0.36398  0.57572  0.57679  1.0000
  S   S208      1.0  0.21995  0.45093  0.94000  1.0000
  S   S209      1.0  0.33283  0.38862  0.56991  1.0000
  C   C1432     1.0  0.26964  0.56514  0.80796  1.0000
  C   C1433     1.0  0.45716  0.39151  0.64071  1.0000
  C   C1434     1.0  0.18988  0.48328  0.61795  1.0000
  C   C1435     1.0  0.19217  0.56226  0.90644  1.0000
  H   H1157     1.0  0.39071  0.42199  0.55092  1.0000
  C   C1436     1.0  0.25278  0.41504  0.74811  1.0000
  C   C1437     1.0  0.12516  0.54998  0.82284  1.0000
  C   C1438     1.0  0.11247  0.56617  0.82722  1.0000
  H   H1158     1.0  0.18109  0.56210  0.68827  1.0000
  H   H1159     1.0  0.25507  0.55181  0.75524  1.0000
  S   S210      1.0  0.33367  0.56582  0.76251  1.0000
  H   H1160     1.0  0.36106  0.57011  0.53033  1.0000
  C   C1439     1.0  0.21550  0.55597  0.78142  1.0000
  H   H1161     1.0  0.41123  0.50988  0.73778  1.0000
  H   H1162     1.0  0.22327  0.58004  0.65029  1.0000
  C   C1440     1.0  0.14310  0.39603  0.95155  1.0000
  C   C1441     1.0  0.13226  0.55914  0.87737  1.0000
  C   C1442     1.0  0.42634  0.56041  0.74833  1.0000
  C   C1443     1.0  0.21329  0.58270  0.90289  1.0000
  H   H1163     1.0  0.21996  0.39521  0.70956  1.0000
  C   C1444     1.0  0.39791  0.41216  0.50771  1.0000
  C   C1445     1.0  0.41157  0.52189  0.72626  1.0000
  H   H1164     1.0  0.44712  0.40414  0.54421  1.0000
  C   C1446     1.0  0.38110  0.47001  0.48823  1.0000
  C   C1447     1.0  0.01263  0.40334  0.86618  1.0000
  C   C1448     1.0  0.13333  0.42411  0.88098  1.0000
  C   C1449     1.0  0.02696  0.40946  0.86978  1.0000
  C   C1450     1.0  0.12307  0.41269  0.91438  1.0000
  H   H1165     1.0  0.21240  0.56962  0.88122  1.0000
  C   C1451     1.0  0.19434  0.55692  0.66059  1.0000
  H   H1166     1.0  0.26955  0.55768  0.90877  1.0000
  H   H1167     1.0  0.05587  0.40278  0.87175  1.0000
  C   C1452     1.0  0.19609  0.38486  0.67496  1.0000
  C   C1453     1.0  0.23246  0.57631  0.95568  1.0000
  H   H1168     1.0  0.45647  0.51861  0.76984  1.0000
  C   C1454     1.0  0.45401  0.52597  0.74070  1.0000
  C   C1455     1.0  0.15847  0.39584  0.83463  1.0000
  H   H1169     1.0  0.26012  0.48154  0.96629  1.0000
  C   C1456     1.0  0.42629  0.54804  0.60311  1.0000
  H   H1170     1.0  0.16960  0.41596  0.73914  1.0000
  C   C1457     1.0  0.37624  0.40464  0.54399  1.0000
  H   H1171     1.0  0.40518  0.54684  0.78112  1.0000
  C   C1458     1.0  0.34696  0.57441  0.82967  1.0000
  C   C1459     1.0  0.40762  0.53185  0.78245  1.0000
  H   H1172     1.0  0.15322  0.55543  0.85239  1.0000
  H   H1173     1.0  0.36415  0.38793  0.53344  1.0000
  H   H1174     1.0  0.99337  0.53050  0.97545  1.0000
  C   C1460     1.0  0.48350  0.38612  0.65528  1.0000
  H   H1175     1.0  0.17302  0.40661  0.68360  1.0000
  H   H1176     1.0  0.38359  0.50549  0.51590  1.0000
  C   C1461     1.0  0.29368  0.56566  0.85606  1.0000
  C   C1462     1.0  0.12661  0.56766  0.89289  1.0000
  H   H1177     1.0  0.36333  0.54564  0.61905  1.0000
  C   C1463     1.0  0.44405  0.53685  0.59844  1.0000
  P   P45       1.0  0.42939  0.53661  0.74571  1.0000
  H   H1178     1.0  0.23254  0.56510  0.83903  1.0000
  H   H1179     1.0  0.17077  0.57763  0.85495  1.0000
  C   C1464     1.0  0.12638  0.42866  0.91810  1.0000
  H   H1180     1.0  0.15980  0.42751  0.94717  1.0000
  C   C1465     1.0  0.38302  0.49534  0.50839  1.0000
  H   H1181     1.0  0.06650  0.46969  0.97738  1.0000
  H   H1182     1.0  0.39777  0.51078  0.71140  1.0000
  H   H1183     1.0  0.41569  0.39913  0.71860  1.0000
  C   C1466     1.0  0.48399  0.56832  0.50380  1.0000
  H   H1184     1.0  0.30248  0.45449  0.48496  1.0000
  H   H1185     1.0  0.42106  0.55912  0.59223  1.0000
  H   H1186     1.0  0.06290  0.56943  0.88480  1.0000
  C   C1467     1.0  0.41881  0.52307  0.76777  1.0000
  C   C1468     1.0  0.30749  0.44633  0.95713  1.0000
  C   C1469     1.0  0.40137  0.50193  0.80131  1.0000
  S   S211      1.0  0.36452  0.54622  0.49834  1.0000
  H   H1187     1.0  0.45441  0.55730  0.75238  1.0000
  C   C1470     1.0  0.22717  0.57704  0.72751  1.0000
  H   H1188     1.0  0.41481  0.47796  0.78874  1.0000
  H   H1189     1.0  0.20214  0.41560  0.73972  1.0000
  C   C1471     1.0  0.18352  0.56806  0.67335  1.0000
  C   C1472     1.0  0.18691  0.39882  0.68520  1.0000
  C   C1473     1.0  0.13631  0.44019  0.88456  1.0000
  H   H1190     1.0  0.33548  0.57846  0.71407  1.0000
  C   C1474     1.0  0.21835  0.38987  0.80206  1.0000
  H   H1191     1.0  0.27843  0.56420  0.95841  1.0000
  C   C1475     1.0  0.12213  0.40913  0.97742  1.0000
  C   C1476     1.0  0.19556  0.40256  0.69763  1.0000
  C   C1477     1.0  0.13681  0.58009  0.89451  1.0000
  C   C1478     1.0  0.41954  0.38642  0.71314  1.0000
  C   C1479     1.0  0.34713  0.39962  0.48530  1.0000
  H   H1192     1.0  0.11779  0.40200  0.92576  1.0000
  C   C1480     1.0  0.29970  0.57226  0.86860  1.0000
  H   H1193     1.0  0.43616  0.39857  0.68702  1.0000
  H   H1194     1.0  0.32783  0.52617  0.96233  1.0000
  H   H1195     1.0  0.09297  0.57611  0.86483  1.0000
  H   H1196     1.0  0.40999  0.42878  0.51859  1.0000
  C   C1481     1.0  0.19752  0.56482  0.64129  1.0000
  C   C1482     1.0  0.11887  0.58239  0.82598  1.0000
  C   C1483     1.0  0.18473  0.56434  0.92498  1.0000
  H   H1197     1.0  0.24796  0.39640  0.72380  1.0000
  H   H1198     1.0  0.26032  0.41086  0.83397  1.0000
  H   H1199     1.0  0.29664  0.58211  0.67357  1.0000
  C   C1484     1.0  0.37407  0.39697  0.52993  1.0000
  H   H1200     1.0  0.24739  0.55804  0.97663  1.0000
  S   S212      1.0  0.37248  0.57904  0.71713  1.0000
  C   C1485     1.0  0.39557  0.57972  0.63326  1.0000
  H   H1201     1.0  0.26671  0.57769  0.77953  1.0000
  C   C1486     1.0  0.31262  0.58267  0.61221  1.0000
  C   C1487     1.0  0.20384  0.39203  0.76339  1.0000
  C   C1488     1.0  0.47240  0.38995  0.55441  1.0000
  C   C1489     1.0  0.26752  0.58289  0.93498  1.0000
  C   C1490     1.0  0.38613  0.58017  0.59240  1.0000
  C   C1491     1.0  0.28927  0.39546  0.79574  1.0000
  C   C1492     1.0  0.36792  0.57565  0.79920  1.0000
  C   C1493     1.0  0.35918  0.38722  0.49662  1.0000
  C   C1494     1.0  0.21337  0.39231  0.69986  1.0000
  H   H1202     1.0  0.14948  0.39717  0.93676  1.0000
  C   C1495     1.0  0.24615  0.57495  0.71898  1.0000
  C   C1496     1.0  0.13885  0.38570  0.81334  1.0000
  Fe  Fe109     1.0  0.18372  0.49683  0.97926  1.0000
  C   C1497     1.0  0.22131  0.38400  0.82042  1.0000
  C   C1498     1.0  0.29212  0.44047  0.97021  1.0000
  C   C1499     1.0  0.27508  0.45323  0.97334  1.0000
  C   C1500     1.0  0.18245  0.58065  0.77390  1.0000
  H   H1203     1.0  0.29344  0.42613  0.97817  1.0000
  H   H1204     1.0  0.37985  0.46049  0.48036  1.0000
  C   C1501     1.0  0.26892  0.58375  0.63826  1.0000
  H   H1205     1.0  0.28161  0.38533  0.64230  1.0000
  C   C1502     1.0  0.00701  0.71587  0.44846  1.0000
  C   C1503     1.0  0.99290  0.61791  0.10564  1.0000
  C   C1504     1.0  0.36347  0.70226  0.07233  1.0000
  H   H1206     1.0  0.09115  0.67136  0.39574  1.0000
  H   H1207     1.0  0.35490  0.77704  0.07892  1.0000
  C   C1505     1.0  0.37920  0.74650  0.00176  1.0000
  H   H1208     1.0  0.19183  0.71177  0.38880  1.0000
  C   C1506     1.0  0.00009  0.76777  0.35237  1.0000
  C   C1507     1.0  0.33025  0.75424  0.30395  1.0000
  C   C1508     1.0  0.46951  0.71912  0.12134  1.0000
  C   C1509     1.0  0.37642  0.63106  0.44640  1.0000
  C   C1510     1.0  0.47192  0.58646  0.44177  1.0000
  C   C1511     1.0  0.32086  0.67653  0.05223  1.0000
  H   H1209     1.0  0.20977  0.65773  0.44936  1.0000
  C   C1512     1.0  0.35062  0.63076  0.14312  1.0000
  H   H1210     1.0  0.37405  0.71688  0.04422  1.0000
  H   H1211     1.0  0.11052  0.65818  0.43894  1.0000
  H   H1212     1.0  0.44096  0.58868  0.17056  1.0000
  C   C1513     1.0  0.34949  0.64879  0.06592  1.0000
  H   H1213     1.0  0.33708  0.66319  0.29437  1.0000
  C   C1514     1.0  0.09283  0.62242  0.28855  1.0000
  C   C1515     1.0  0.38607  0.64387  0.26468  1.0000
  H   H1214     1.0  0.11446  0.61470  0.25494  1.0000
  C   C1516     1.0  0.47824  0.74667  0.13403  1.0000
  Fe  Fe110     1.0  0.36387  0.70458  0.23506  1.0000
  S   S213      1.0  0.39330  0.69563  0.21926  1.0000
  S   S214      1.0  0.35535  0.70022  0.26663  1.0000
  Fe  Fe111     1.0  0.34776  0.71627  0.20045  1.0000
  S   S215      1.0  0.37540  0.70882  0.18138  1.0000
  S   S216      1.0  0.32052  0.72786  0.19086  1.0000
  Fe  Fe112     1.0  0.38024  0.68295  0.20358  1.0000
  S   S217      1.0  0.39511  0.65572  0.19459  1.0000
  Fe  Fe113     1.0  0.38685  0.72222  0.19795  1.0000
  S   S218      1.0  0.41044  0.73596  0.17925  1.0000
  S   S219      1.0  0.35149  0.68919  0.22151  1.0000
  S   S220      1.0  0.35842  0.73241  0.21508  1.0000
  Fe  Fe114     1.0  0.27020  0.73575  0.08655  1.0000
  S   S221      1.0  0.27491  0.73732  0.11408  1.0000
  S   S222      1.0  0.28347  0.75278  0.05914  1.0000
  Fe  Fe115     1.0  0.25005  0.70325  0.10398  1.0000
  S   S223      1.0  0.25348  0.70203  0.13302  1.0000
  S   S224      1.0  0.23422  0.68316  0.10064  1.0000
  Fe  Fe116     1.0  0.24534  0.73332  0.12564  1.0000
  S   S225      1.0  0.22692  0.74780  0.14861  1.0000
  Fe  Fe117     1.0  0.28261  0.70603  0.11917  1.0000
  S   S226      1.0  0.30836  0.69028  0.13062  1.0000
  S   S227      1.0  0.23967  0.73459  0.09751  1.0000
  S   S228      1.0  0.27999  0.70443  0.09074  1.0000
  Fe  Fe118     1.0  0.12314  0.71482  0.25623  1.0000
  S   S229      1.0  0.14970  0.72313  0.23872  1.0000
  S   S230      1.0  0.09933  0.73209  0.27334  1.0000
  Fe  Fe119     1.0  0.13396  0.67614  0.24712  1.0000
  S   S231      1.0  0.16163  0.68082  0.22882  1.0000
  S   S232      1.0  0.12280  0.64970  0.25466  1.0000
  Fe  Fe120     1.0  0.16346  0.69422  0.25127  1.0000
  S   S233      1.0  0.19086  0.68885  0.25966  1.0000
  Fe  Fe121     1.0  0.14568  0.70938  0.21766  1.0000
  S   S234      1.0  0.15030  0.72171  0.18664  1.0000
  S   S235      1.0  0.13731  0.68688  0.27080  1.0000
  S   S236      1.0  0.11762  0.70355  0.23401  1.0000
  Fe  Fe122     1.0  0.25251  0.67979  0.34589  1.0000
  S   S237      1.0  0.24322  0.69650  0.31950  1.0000
  S   S238      1.0  0.26488  0.64900  0.34759  1.0000
  Fe  Fe123     1.0  0.23910  0.71315  0.36521  1.0000
  S   S239      1.0  0.22823  0.73221  0.34042  1.0000
  S   S240      1.0  0.23490  0.72249  0.39249  1.0000
  Fe  Fe124     1.0  0.21729  0.70792  0.33903  1.0000
  S   S241      1.0  0.18798  0.71179  0.33505  1.0000
  Fe  Fe125     1.0  0.25523  0.71894  0.32328  1.0000
  S   S242      1.0  0.27054  0.73607  0.29741  1.0000
  S   S243      1.0  0.22579  0.68981  0.36532  1.0000
  S   S244      1.0  0.26696  0.70125  0.34821  1.0000
  C   C1517     1.0  0.18937  0.69525  0.28072  1.0000
  C   C1518     1.0  0.17413  0.70836  0.28794  1.0000
  C   C1519     1.0  0.17364  0.71331  0.30477  1.0000
  C   C1520     1.0  0.18812  0.70488  0.31454  1.0000
  C   C1521     1.0  0.20305  0.69153  0.30744  1.0000
  C   C1522     1.0  0.20388  0.68705  0.29037  1.0000
  H   H1215     1.0  0.16294  0.71486  0.28040  1.0000
  H   H1216     1.0  0.16215  0.72373  0.31017  1.0000
  H   H1217     1.0  0.21383  0.68438  0.31524  1.0000
  H   H1218     1.0  0.21565  0.67701  0.28469  1.0000
  C   C1523     1.0  0.34403  0.71717  0.98901  1.0000
  H   H1219     1.0  0.22689  0.66317  0.34237  1.0000
  C   C1524     1.0  0.20623  0.73935  0.15930  1.0000
  C   C1525     1.0  0.19815  0.73990  0.17817  1.0000
  C   C1526     1.0  0.18136  0.73381  0.18684  1.0000
  C   C1527     1.0  0.17207  0.72801  0.17639  1.0000
  C   C1528     1.0  0.17996  0.72770  0.15742  1.0000
  C   C1529     1.0  0.19725  0.73294  0.14898  1.0000
  H   H1220     1.0  0.20478  0.74520  0.18608  1.0000
  H   H1221     1.0  0.17537  0.73408  0.20145  1.0000
  H   H1222     1.0  0.17279  0.72322  0.14930  1.0000
  H   H1223     1.0  0.20335  0.73256  0.13437  1.0000
  C   C1530     1.0  0.33696  0.73340  0.99642  1.0000
  H   H1224     1.0  0.35593  0.63121  0.15495  1.0000
  H   H1225     1.0  0.23023  0.67045  0.14397  1.0000
  C   C1531     1.0  0.31664  0.71626  0.17533  1.0000
  C   C1532     1.0  0.32957  0.70055  0.17007  1.0000
  C   C1533     1.0  0.32673  0.69228  0.15668  1.0000
  C   C1534     1.0  0.31089  0.69957  0.14869  1.0000
  C   C1535     1.0  0.29751  0.71465  0.15476  1.0000
  C   C1536     1.0  0.30045  0.72307  0.16792  1.0000
  H   H1226     1.0  0.34188  0.69494  0.17608  1.0000
  H   H1227     1.0  0.33691  0.68033  0.15242  1.0000
  H   H1228     1.0  0.28492  0.71997  0.14923  1.0000
  H   H1229     1.0  0.29022  0.73500  0.17221  1.0000
  C   C1537     1.0  0.33156  0.70966  0.27495  1.0000
  C   C1538     1.0  0.32043  0.72160  0.26263  1.0000
  C   C1539     1.0  0.30165  0.72947  0.26960  1.0000
  C   C1540     1.0  0.29380  0.72520  0.28887  1.0000
  C   C1541     1.0  0.30483  0.71297  0.30113  1.0000
  C   C1542     1.0  0.32371  0.70538  0.29421  1.0000
  H   H1230     1.0  0.32629  0.72487  0.24774  1.0000
  H   H1231     1.0  0.29316  0.73882  0.26003  1.0000
  H   H1232     1.0  0.29896  0.70974  0.31602  1.0000
  H   H1233     1.0  0.33227  0.69623  0.30381  1.0000
  C   C1543     1.0  0.30384  0.78041  0.04561  1.0000
  C   C1544     1.0  0.15631  0.60819  0.28166  1.0000
  H   H1234     1.0  0.29787  0.78045  0.16433  1.0000
  C   C1545     1.0  0.43407  0.76022  0.16719  1.0000
  C   C1546     1.0  0.41850  0.75532  0.18071  1.0000
  C   C1547     1.0  0.40945  0.76643  0.19398  1.0000
  C   C1548     1.0  0.44563  0.73855  0.99875  1.0000
  C   C1549     1.0  0.33340  0.66277  0.00029  1.0000
  H   H1235     1.0  0.44128  0.75160  0.15702  1.0000
  H   H1236     1.0  0.39770  0.76247  0.20471  1.0000
  H   H1237     1.0  0.36550  0.60602  0.45453  1.0000
  C   C1550     1.0  0.02811  0.71885  0.46661  1.0000
  H   H1238     1.0  0.36316  0.71352  0.10781  1.0000
  C   C1551     1.0  0.31531  0.66058  0.00113  1.0000
  H   H1239     1.0  0.30647  0.67061  0.99224  1.0000
  C   C1552     1.0  0.36163  0.61840  0.47849  1.0000
  H   H1240     1.0  0.48157  0.58885  0.47829  1.0000
  H   H1241     1.0  0.22415  0.75809  0.47386  1.0000
  C   C1553     1.0  0.33855  0.61380  0.12744  1.0000
  H   H1242     1.0  0.33436  0.60114  0.12749  1.0000
  H   H1243     1.0  0.40352  0.76600  0.01359  1.0000
  S   S245      1.0  0.99415  0.69449  0.38265  1.0000
  C   C1554     1.0  0.36771  0.77788  0.98514  1.0000
  C   C1555     1.0  0.46705  0.73765  0.11118  1.0000
  H   H1244     1.0  0.22754  0.59966  0.41006  1.0000
  C   C1556     1.0  0.31638  0.70521  0.00681  1.0000
  H   H1245     1.0  0.28549  0.61003  0.37008  1.0000
  C   C1557     1.0  0.44875  0.63474  0.47612  1.0000
  C   C1558     1.0  0.22412  0.63973  0.47053  1.0000
  C   C1559     1.0  0.11807  0.76081  0.26575  1.0000
  C   C1560     1.0  0.10158  0.75424  0.27442  1.0000
  C   C1561     1.0  0.08631  0.76561  0.28400  1.0000
  C   C1562     1.0  0.02839  0.78296  0.32518  1.0000
  H   H1246     1.0  0.40633  0.66344  0.10410  1.0000
  H   H1247     1.0  0.12992  0.75210  0.25845  1.0000
  H   H1248     1.0  0.07353  0.76057  0.29072  1.0000
  H   H1249     1.0  0.45509  0.62796  0.46432  1.0000
  C   C1563     1.0  0.01161  0.75750  0.33919  1.0000
  H   H1250     1.0  0.18864  0.62236  0.99054  1.0000
  S   S246      1.0  0.23894  0.59117  0.05624  1.0000
  C   C1564     1.0  0.06492  0.58681  0.08998  1.0000
  C   C1565     1.0  0.05531  0.62046  0.07905  1.0000
  C   C1566     1.0  0.11486  0.62495  0.34088  1.0000
  C   C1567     1.0  0.04556  0.62816  0.33375  1.0000
  C   C1568     1.0  0.11933  0.77101  0.33397  1.0000
  C   C1569     1.0  0.13448  0.75230  0.45642  1.0000
  H   H1251     1.0  0.14737  0.69560  0.45159  1.0000
  P   P46       1.0  0.38614  0.69400  0.07835  1.0000
  C   C1570     1.0  0.22154  0.75401  0.40773  1.0000
  C   C1571     1.0  0.22952  0.74697  0.39127  1.0000
  C   C1572     1.0  0.23365  0.75949  0.37418  1.0000
  H   H1252     1.0  0.34764  0.76521  0.18666  1.0000
  C   C1573     1.0  0.48740  0.75340  0.06072  1.0000
  H   H1253     1.0  0.21819  0.74445  0.42100  1.0000
  H   H1254     1.0  0.23995  0.75421  0.36148  1.0000
  C   C1574     1.0  0.02070  0.70188  0.44086  1.0000
  H   H1255     1.0  0.18098  0.66844  0.43769  1.0000
  P   P47       1.0  0.32549  0.62947  0.09429  1.0000
  C   C1575     1.0  0.21792  0.77342  0.40709  1.0000
  C   C1576     1.0  0.31137  0.59353  0.35811  1.0000
  H   H1256     1.0  0.45404  0.60179  0.39702  1.0000
  C   C1577     1.0  0.18637  0.61471  0.21581  1.0000
  C   C1578     1.0  0.15231  0.75532  0.44670  1.0000
  H   H1257     1.0  0.18059  0.74072  0.24679  1.0000
  C   C1579     1.0  0.17669  0.75593  0.24326  1.0000
  C   C1580     1.0  0.47061  0.76671  0.06109  1.0000
  H   H1258     1.0  0.20367  0.64783  0.33822  1.0000
  H   H1259     1.0  0.39311  0.75987  0.05844  1.0000
  H   H1260     1.0  0.43209  0.60982  0.22040  1.0000
  H   H1261     1.0  0.27452  0.60088  0.43233  1.0000
  C   C1581     1.0  0.40659  0.67600  0.04912  1.0000
  C   C1582     1.0  0.32866  0.58935  0.06573  1.0000
  C   C1583     1.0  0.18412  0.68223  0.43153  1.0000
  H   H1262     1.0  0.35144  0.65951  0.12954  1.0000
  H   H1263     1.0  0.31432  0.62030  0.03441  1.0000
  H   H1264     1.0  0.27365  0.64595  0.30070  1.0000
  C   C1584     1.0  0.23104  0.59081  0.39996  1.0000
  H   H1265     1.0  0.23315  0.61137  0.28730  1.0000
  Fe  Fe126     1.0  0.26599  0.59503  0.05979  1.0000
  H   H1266     1.0  0.35504  0.66439  0.19891  1.0000
  H   H1267     1.0  0.19930  0.77002  0.36314  1.0000
  H   H1268     1.0  0.14327  0.76009  0.19908  1.0000
  P   P48       1.0  0.29762  0.60995  0.29092  1.0000
  H   H1269     1.0  0.38123  0.62998  0.43179  1.0000
  H   H1270     1.0  0.23779  0.70982  0.43338  1.0000
  H   H1271     1.0  0.26889  0.68025  0.07219  1.0000
  C   C1585     1.0  0.33016  0.70308  0.07991  1.0000
  H   H1272     1.0  0.31970  0.76081  0.33131  1.0000
  C   C1586     1.0  0.47154  0.75139  0.11746  1.0000
  C   C1587     1.0  0.23759  0.58908  0.14822  1.0000
  C   C1588     1.0  0.11578  0.75543  0.21261  1.0000
  H   H1273     1.0  0.07016  0.58600  0.30356  1.0000
  C   C1589     1.0  0.36024  0.65016  0.19703  1.0000
  H   H1274     1.0  0.26662  0.66556  0.12532  1.0000
  C   C1590     1.0  0.21869  0.62895  0.19850  1.0000
  H   H1275     1.0  0.03475  0.68084  0.38897  1.0000
  C   C1591     1.0  0.08149  0.67136  0.38751  1.0000
  S   S247      1.0  0.33770  0.60900  0.19348  1.0000
  H   H1276     1.0  0.35824  0.65100  0.01215  1.0000
  H   H1277     1.0  0.31305  0.77319  0.19148  1.0000
  C   C1592     1.0  0.04968  0.67660  0.38375  1.0000
  H   H1278     1.0  0.99345  0.72005  0.44468  1.0000
  C   C1593     1.0  0.37789  0.67812  0.99090  1.0000
  C   C1594     1.0  0.34569  0.61440  0.14250  1.0000
  H   H1279     1.0  0.08799  0.75338  0.22859  1.0000
  C   C1595     1.0  0.07560  0.66460  0.36014  1.0000
  C   C1596     1.0  0.31960  0.63222  0.02508  1.0000
  C   C1597     1.0  0.32155  0.77323  0.17746  1.0000
  C   C1598     1.0  0.23161  0.60297  0.15895  1.0000
  H   H1280     1.0  0.37843  0.59934  0.18866  1.0000
  C   C1599     1.0  0.33388  0.70281  0.99433  1.0000
  C   C1600     1.0  0.31300  0.77717  0.16219  1.0000
  H   H1281     1.0  0.30968  0.68732  0.04709  1.0000
  C   C1601     1.0  0.04100  0.75912  0.38904  1.0000
  C   C1602     1.0  0.03651  0.74130  0.39448  1.0000
  C   C1603     1.0  0.03919  0.73063  0.38107  1.0000
  C   C1604     1.0  0.04676  0.73749  0.36227  1.0000
  C   C1605     1.0  0.05211  0.75481  0.35691  1.0000
  C   C1606     1.0  0.04907  0.76572  0.37020  1.0000
  P   P49       1.0  0.34234  0.68227  0.98398  1.0000
  C   C1607     1.0  0.24151  0.70388  0.44701  1.0000
  H   H1282     1.0  0.03497  0.71724  0.38524  1.0000
  H   H1283     1.0  0.04800  0.72960  0.35177  1.0000
  H   H1284     1.0  0.05813  0.76006  0.34233  1.0000
  C   C1608     1.0  0.48071  0.72809  0.14442  1.0000
  C   C1609     1.0  0.45738  0.74945  0.99998  1.0000
  C   C1610     1.0  0.26530  0.63817  0.29747  1.0000
  C   C1611     1.0  0.32396  0.77618  0.14425  1.0000
  C   C1612     1.0  0.29208  0.65702  0.16473  1.0000
  H   H1285     1.0  0.22434  0.65044  0.09693  1.0000
  H   H1286     1.0  0.31786  0.65203  0.17382  1.0000
  H   H1287     1.0  0.27129  0.75603  0.40070  1.0000
  H   H1288     1.0  0.19974  0.59154  0.20255  1.0000
  C   C1613     1.0  0.24642  0.64635  0.29770  1.0000
  H   H1289     1.0  0.07212  0.70996  0.42400  1.0000
  C   C1614     1.0  0.31645  0.66220  0.06761  1.0000
  C   C1615     1.0  0.21081  0.65512  0.46385  1.0000
  C   C1616     1.0  0.24216  0.61894  0.28998  1.0000
  C   C1617     1.0  0.30384  0.60339  0.26843  1.0000
  H   H1290     1.0  0.09507  0.68113  0.27091  1.0000
  C   C1618     1.0  0.27287  0.62030  0.29326  1.0000
  C   C1619     1.0  0.24834  0.63798  0.34472  1.0000
  C   C1620     1.0  0.35389  0.66323  0.05062  1.0000
  C   C1621     1.0  0.16591  0.60063  0.26592  1.0000
  C   C1622     1.0  0.24386  0.68456  0.45420  1.0000
  H   H1291     1.0  0.46160  0.74135  0.09850  1.0000
  H   H1292     1.0  0.33861  0.65875  0.10307  1.0000
  C   C1623     1.0  0.37941  0.64252  0.19407  1.0000
  C   C1624     1.0  0.25532  0.64532  0.41265  1.0000
  C   C1625     1.0  0.12834  0.63657  0.23712  1.0000
  H   H1293     1.0  0.28414  0.61711  0.20349  1.0000
  C   C1626     1.0  0.34356  0.77079  0.14158  1.0000
  H   H1294     1.0  0.43543  0.59367  0.26499  1.0000
  C   C1627     1.0  0.30287  0.65741  0.17696  1.0000
  C   C1628     1.0  0.09692  0.74445  0.42072  1.0000
  H   H1295     1.0  0.28491  0.65625  0.05285  1.0000
  C   C1629     1.0  0.02558  0.76523  0.32532  1.0000
  H   H1296     1.0  0.35712  0.59663  0.09812  1.0000
  C   C1630     1.0  0.00218  0.76826  0.42051  1.0000
  H   H1297     1.0  0.03079  0.73565  0.40905  1.0000
  H   H1298     1.0  0.30192  0.66205  0.07396  1.0000
  H   H1299     1.0  0.05704  0.68205  0.40711  1.0000
  C   C1631     1.0  0.34754  0.69707  0.08499  1.0000
  C   C1632     1.0  0.01805  0.77147  0.44313  1.0000
  C   C1633     1.0  0.40041  0.74532  0.06008  1.0000
  H   H1300     1.0  0.40310  0.65652  0.13857  1.0000
  C   C1634     1.0  0.29056  0.60605  0.16113  1.0000
  C   C1635     1.0  0.44980  0.76678  0.00544  1.0000
  H   H1301     1.0  0.48084  0.66718  0.21887  1.0000
  H   H1302     1.0  0.24194  0.73055  0.45181  1.0000
  H   H1303     1.0  0.05860  0.69282  0.33325  1.0000
  H   H1304     1.0  0.13247  0.74706  0.29874  1.0000
  C   C1636     1.0  0.34909  0.59495  0.08900  1.0000
  C   C1637     1.0  0.25916  0.60399  0.17934  1.0000
  C   C1638     1.0  0.04387  0.60603  0.11136  1.0000
  H   H1305     1.0  0.30815  0.77522  0.03276  1.0000
  C   C1639     1.0  0.33657  0.62952  0.11268  1.0000
  H   H1306     1.0  0.36758  0.77035  0.01471  1.0000
  C   C1640     1.0  0.18561  0.77771  0.33973  1.0000
  H   H1307     1.0  0.45159  0.72545  0.99398  1.0000
  C   C1641     1.0  0.18762  0.63191  0.21841  1.0000
  H   H1308     1.0  0.38069  0.65745  0.26857  1.0000
  H   H1309     1.0  0.23293  0.63064  0.46124  1.0000
  C   C1642     1.0  0.12367  0.76354  0.46908  1.0000
  H   H1310     1.0  0.19085  0.75989  0.26265  1.0000
  H   H1311     1.0  0.20644  0.65135  0.24675  1.0000
  C   C1643     1.0  0.30085  0.63319  0.10505  1.0000
  C   C1644     1.0  0.26267  0.60833  0.40750  1.0000
  H   H1312     1.0  0.10768  0.76190  0.39445  1.0000
  C   C1645     1.0  0.27302  0.60222  0.16295  1.0000
  H   H1313     1.0  0.48131  0.75771  0.13860  1.0000
  H   H1314     1.0  0.15548  0.63081  0.98733  1.0000
  H   H1315     1.0  0.11762  0.68503  0.46146  1.0000
  C   C1646     1.0  0.37105  0.76542  0.00183  1.0000
  C   C1647     1.0  0.39493  0.62507  0.24102  1.0000
  H   H1316     1.0  0.33143  0.61728  0.46459  1.0000
  H   H1317     1.0  0.40393  0.76763  0.14660  1.0000
  S   S248      1.0  0.20395  0.60936  0.34007  1.0000
  Fe  Fe127     1.0  0.10075  0.73089  0.47712  1.0000
  C   C1648     1.0  0.04348  0.61500  0.35069  1.0000
  H   H1318     1.0  0.31799  0.69909  0.08987  1.0000
  C   C1649     1.0  0.18259  0.66239  0.37337  1.0000
  C   C1650     1.0  0.17834  0.64575  0.37252  1.0000
  C   C1651     1.0  0.16020  0.64547  0.37178  1.0000
  C   C1652     1.0  0.14611  0.66164  0.37265  1.0000
  C   C1653     1.0  0.15007  0.67819  0.37436  1.0000
  C   C1654     1.0  0.16851  0.67861  0.37424  1.0000
  P   P50       1.0  0.13119  0.69831  0.37708  1.0000
  C   C1655     1.0  0.11490  0.69242  0.39901  1.0000
  C   C1656     1.0  0.13997  0.71771  0.37884  1.0000
  C   C1657     1.0  0.14111  0.71967  0.39651  1.0000
  C   C1658     1.0  0.14786  0.73463  0.39804  1.0000
  C   C1659     1.0  0.15395  0.74749  0.38193  1.0000
  C   C1660     1.0  0.15327  0.74537  0.36431  1.0000
  C   C1661     1.0  0.14618  0.73068  0.36273  1.0000
  C   C1662     1.0  0.11946  0.67560  0.41201  1.0000
  C   C1663     1.0  0.10696  0.67118  0.42903  1.0000
  C   C1664     1.0  0.08987  0.68348  0.43328  1.0000
  C   C1665     1.0  0.08540  0.70041  0.42069  1.0000
  C   C1666     1.0  0.09811  0.70515  0.40390  1.0000
  C   C1667     1.0  0.12137  0.70387  0.35627  1.0000
  C   C1668     1.0  0.10194  0.70800  0.35723  1.0000
  C   C1669     1.0  0.09497  0.71146  0.34095  1.0000
  C   C1670     1.0  0.10721  0.71084  0.32360  1.0000
  C   C1671     1.0  0.12650  0.70654  0.32249  1.0000
  C   C1672     1.0  0.13356  0.70299  0.33873  1.0000
  H   H1319     1.0  0.19690  0.66279  0.37294  1.0000
  H   H1320     1.0  0.18924  0.63317  0.37181  1.0000
  H   H1321     1.0  0.15718  0.63273  0.37035  1.0000
  H   H1322     1.0  0.13209  0.66120  0.37220  1.0000
  H   H1323     1.0  0.17213  0.69144  0.37457  1.0000
  H   H1324     1.0  0.13682  0.70970  0.40918  1.0000
  H   H1325     1.0  0.14849  0.73614  0.41175  1.0000
  H   H1326     1.0  0.15931  0.75902  0.38307  1.0000
  H   H1327     1.0  0.15842  0.75501  0.35178  1.0000
  H   H1328     1.0  0.14596  0.72935  0.34887  1.0000
  H   H1329     1.0  0.13269  0.66588  0.40925  1.0000
  P   P51       1.0  0.18054  0.68578  0.46824  1.0000
  H   H1330     1.0  0.22266  0.67745  0.23159  1.0000
  H   H1331     1.0  0.00212  0.76724  0.40648  1.0000
  H   H1332     1.0  0.09480  0.71878  0.39480  1.0000
  H   H1333     1.0  0.09199  0.70832  0.37036  1.0000
  H   H1334     1.0  0.08003  0.71450  0.34174  1.0000
  H   H1335     1.0  0.10175  0.71348  0.31101  1.0000
  H   H1336     1.0  0.13597  0.70581  0.30901  1.0000
  H   H1337     1.0  0.14860  0.69945  0.33762  1.0000
  C   C1673     1.0  0.43456  0.58838  0.18525  1.0000
  H   H1338     1.0  0.44741  0.67014  0.21865  1.0000
  C   C1674     1.0  0.45164  0.59000  0.39307  1.0000
  H   H1339     1.0  0.27868  0.72299  0.39717  1.0000
  H   H1340     1.0  0.37513  0.73497  0.07153  1.0000
  C   C1675     1.0  0.05800  0.61433  0.29190  1.0000
  H   H1341     1.0  0.47677  0.58790  0.37133  1.0000
  P   P52       1.0  0.03917  0.77188  0.40666  1.0000
  C   C1676     1.0  0.47830  0.77537  0.18919  1.0000
  C   C1677     1.0  0.07257  0.60012  0.29788  1.0000
  C   C1678     1.0  0.41856  0.76147  0.00960  1.0000
  C   C1679     1.0  0.42623  0.74461  0.00343  1.0000
  C   C1680     1.0  0.03809  0.69636  0.44625  1.0000
  C   C1681     1.0  0.13931  0.60345  0.29192  1.0000
  H   H1342     1.0  0.42777  0.75191  0.04961  1.0000
  C   C1682     1.0  0.48501  0.74249  0.17565  1.0000
  H   H1343     1.0  0.39624  0.62717  0.07611  1.0000
  C   C1683     1.0  0.08818  0.66521  0.37057  1.0000
  C   C1684     1.0  0.32651  0.75610  0.28631  1.0000
  C   C1685     1.0  0.27541  0.75285  0.38682  1.0000
  C   C1686     1.0  0.32615  0.63061  0.27771  1.0000
  H   H1344     1.0  0.38671  0.65616  0.44228  1.0000
  H   H1345     1.0  0.26656  0.59725  0.28565  1.0000
  H   H1346     1.0  0.47241  0.74443  0.99637  1.0000
  H   H1347     1.0  0.28251  0.78280  0.29235  1.0000
  C   C1687     1.0  0.29933  0.77302  0.31367  1.0000
  C   C1688     1.0  0.37050  0.69716  0.13374  1.0000
  C   C1689     1.0  0.14514  0.68497  0.46432  1.0000
  C   C1690     1.0  0.26412  0.63930  0.06462  1.0000
  C   C1691     1.0  0.46703  0.76221  0.19778  1.0000
  H   H1348     1.0  0.33673  0.74899  0.27599  1.0000
  C   C1692     1.0  0.15883  0.67758  0.47527  1.0000
  C   C1693     1.0  0.18948  0.78060  0.35574  1.0000
  H   H1349     1.0  0.08230  0.72911  0.44617  1.0000
  S   S249      1.0  0.00922  0.73461  0.34099  1.0000
  H   H1350     1.0  0.25323  0.60986  0.20716  1.0000
  P   P53       1.0  0.23687  0.59801  0.18189  1.0000
  C   C1694     1.0  0.48850  0.63999  0.44689  1.0000
  C   C1695     1.0  0.23951  0.61000  0.34262  1.0000
  C   C1696     1.0  0.26765  0.61206  0.42260  1.0000
  C   C1697     1.0  0.48450  0.69085  0.19584  1.0000
  H   H1351     1.0  0.40070  0.59782  0.28378  1.0000
  C   C1698     1.0  0.29585  0.77516  0.29576  1.0000
  C   C1699     1.0  0.47628  0.71435  0.13788  1.0000
  H   H1352     1.0  0.99957  0.73402  0.46815  1.0000
  H   H1353     1.0  0.10796  0.77364  0.34579  1.0000
  C   C1700     1.0  0.06546  0.60291  0.07553  1.0000
  H   H1354     1.0  0.16200  0.61781  0.28585  1.0000
  H   H1355     1.0  0.40911  0.68962  0.04112  1.0000
  H   H1356     1.0  0.04619  0.66936  0.35951  1.0000
  H   H1357     1.0  0.27251  0.78158  0.37309  1.0000
  H   H1358     1.0  0.07483  0.62409  0.37025  1.0000
  H   H1359     1.0  0.03546  0.60719  0.12523  1.0000
  C   C1701     1.0  0.41912  0.70771  0.06440  1.0000
  C   C1702     1.0  0.28426  0.73026  0.36696  1.0000
  C   C1703     1.0  0.28439  0.74481  0.35102  1.0000
  H   H1360     1.0  0.29451  0.64364  0.01417  1.0000
  C   C1704     1.0  0.24386  0.71555  0.45743  1.0000
  C   C1705     1.0  0.06227  0.67724  0.39400  1.0000
  C   C1706     1.0  0.30950  0.72135  0.01436  1.0000
  H   H1361     1.0  0.45522  0.76510  0.20916  1.0000
  C   C1707     1.0  0.47424  0.67821  0.20874  1.0000
  H   H1362     1.0  0.05307  0.77923  0.36574  1.0000
  H   H1363     1.0  0.39592  0.62426  0.22669  1.0000
  H   H1364     1.0  0.41560  0.63092  0.04370  1.0000
  C   C1708     1.0  0.05403  0.58850  0.10791  1.0000
  C   C1709     1.0  0.40016  0.60889  0.25434  1.0000
  C   C1710     1.0  0.09550  0.77850  0.22988  1.0000
  C   C1711     1.0  0.38597  0.62418  0.19101  1.0000
  C   C1712     1.0  0.30848  0.64535  0.01349  1.0000
  H   H1365     1.0  0.38031  0.67796  0.15761  1.0000
  H   H1366     1.0  0.10949  0.76224  0.47573  1.0000
  H   H1367     1.0  0.38881  0.62877  0.29265  1.0000
  H   H1368     1.0  0.28752  0.71583  0.36551  1.0000
  H   H1369     1.0  0.28761  0.74133  0.33732  1.0000
  C   C1713     1.0  0.27277  0.66398  0.16856  1.0000
  C   C1714     1.0  0.12162  0.65608  0.32941  1.0000
  H   H1370     1.0  0.47778  0.69997  0.14572  1.0000
  C   C1715     1.0  0.29440  0.66485  0.19304  1.0000
  C   C1716     1.0  0.27501  0.67198  0.19690  1.0000
  C   C1717     1.0  0.26427  0.67144  0.18459  1.0000
  P   P54       1.0  0.26314  0.67843  0.21905  1.0000
  C   C1718     1.0  0.25053  0.65999  0.23087  1.0000
  C   C1719     1.0  0.27928  0.67991  0.23214  1.0000
  C   C1720     1.0  0.27927  0.66949  0.25058  1.0000
  C   C1721     1.0  0.29103  0.67192  0.26088  1.0000
  C   C1722     1.0  0.30255  0.68494  0.25305  1.0000
  C   C1723     1.0  0.30229  0.69561  0.23490  1.0000
  C   C1724     1.0  0.29081  0.69305  0.22442  1.0000
  C   C1725     1.0  0.26068  0.64150  0.23437  1.0000
  C   C1726     1.0  0.25144  0.62665  0.24225  1.0000
  C   C1727     1.0  0.23189  0.63014  0.24671  1.0000
  C   C1728     1.0  0.38419  0.68847  0.10349  1.0000
  C   C1729     1.0  0.23090  0.66342  0.23491  1.0000
  C   C1730     1.0  0.24825  0.70146  0.21610  1.0000
  C   C1731     1.0  0.23586  0.70748  0.23185  1.0000
  C   C1732     1.0  0.22513  0.72575  0.23010  1.0000
  C   C1733     1.0  0.22695  0.73824  0.21268  1.0000
  C   C1734     1.0  0.23953  0.73243  0.19701  1.0000
  C   C1735     1.0  0.25020  0.71412  0.19869  1.0000
  H   H1371     1.0  0.26442  0.66357  0.15913  1.0000
  H   H1372     1.0  0.31709  0.77925  0.13257  1.0000
  H   H1373     1.0  0.14285  0.65608  0.21576  1.0000
  H   H1374     1.0  0.30294  0.66487  0.20244  1.0000
  H   H1375     1.0  0.24927  0.67654  0.18761  1.0000
  H   H1376     1.0  0.26997  0.65982  0.25719  1.0000
  H   H1377     1.0  0.29102  0.66404  0.27510  1.0000
  H   H1378     1.0  0.31146  0.68697  0.26114  1.0000
  H   H1379     1.0  0.31081  0.70609  0.22898  1.0000
  H   H1380     1.0  0.29067  0.70161  0.21042  1.0000
  H   H1381     1.0  0.27577  0.63863  0.23073  1.0000
  H   H1382     1.0  0.25952  0.61245  0.24500  1.0000
  H   H1383     1.0  0.10672  0.75263  0.32601  1.0000
  C   C1736     1.0  0.34116  0.64607  0.11362  1.0000
  H   H1384     1.0  0.23446  0.69804  0.24552  1.0000
  H   H1385     1.0  0.21545  0.73012  0.24231  1.0000
  H   H1386     1.0  0.21855  0.75237  0.21128  1.0000
  H   H1387     1.0  0.24095  0.74207  0.18346  1.0000
  H   H1388     1.0  0.26009  0.71006  0.18642  1.0000
  H   H1389     1.0  0.42184  0.66225  0.02629  1.0000
  C   C1737     1.0  0.39755  0.61026  0.27310  1.0000
  C   C1738     1.0  0.28091  0.61309  0.19215  1.0000
  H   H1390     1.0  0.05099  0.74402  0.43940  1.0000
  C   C1739     1.0  0.17672  0.72242  0.10069  1.0000
  C   C1740     1.0  0.16091  0.72824  0.09273  1.0000
  C   C1741     1.0  0.14608  0.71884  0.10008  1.0000
  C   C1742     1.0  0.14709  0.70361  0.11535  1.0000
  C   C1743     1.0  0.16291  0.69770  0.12348  1.0000
  C   C1744     1.0  0.17775  0.70725  0.11599  1.0000
  P   P55       1.0  0.16395  0.67760  0.14288  1.0000
  C   C1745     1.0  0.14161  0.68075  0.15925  1.0000
  C   C1746     1.0  0.16893  0.65616  0.13456  1.0000
  C   C1747     1.0  0.17087  0.63885  0.14735  1.0000
  C   C1748     1.0  0.17370  0.62218  0.14134  1.0000
  C   C1749     1.0  0.17563  0.62257  0.12231  1.0000
  C   C1750     1.0  0.17467  0.63967  0.10932  1.0000
  C   C1751     1.0  0.17122  0.65645  0.11540  1.0000
  C   C1752     1.0  0.13396  0.69821  0.16429  1.0000
  C   C1753     1.0  0.11753  0.70067  0.17803  1.0000
  C   C1754     1.0  0.10836  0.68581  0.18659  1.0000
  C   C1755     1.0  0.11541  0.66860  0.18109  1.0000
  C   C1756     1.0  0.13186  0.66610  0.16736  1.0000
  C   C1757     1.0  0.18270  0.67628  0.15414  1.0000
  C   C1758     1.0  0.20135  0.67201  0.14446  1.0000
  C   C1759     1.0  0.21599  0.67288  0.15201  1.0000
  C   C1760     1.0  0.21213  0.67789  0.16937  1.0000
  C   C1761     1.0  0.19368  0.68149  0.17942  1.0000
  C   C1762     1.0  0.17901  0.68043  0.17199  1.0000
  H   H1391     1.0  0.18831  0.72960  0.09499  1.0000
  H   H1392     1.0  0.16019  0.74000  0.08086  1.0000
  H   H1393     1.0  0.13382  0.72334  0.09390  1.0000
  H   H1394     1.0  0.13554  0.69638  0.12084  1.0000
  H   H1395     1.0  0.19018  0.70326  0.12179  1.0000
  H   H1396     1.0  0.16998  0.63822  0.16203  1.0000
  H   H1397     1.0  0.17463  0.60897  0.15152  1.0000
  C   C1763     1.0  0.14351  0.63166  0.20572  1.0000
  C   C1764     1.0  0.05626  0.67014  0.36701  1.0000
  H   H1398     1.0  0.17053  0.66951  0.10508  1.0000
  H   H1399     1.0  0.14110  0.70977  0.15805  1.0000
  H   H1400     1.0  0.11227  0.71400  0.18239  1.0000
  H   H1401     1.0  0.09590  0.68757  0.19758  1.0000
  H   H1402     1.0  0.10840  0.65699  0.18779  1.0000
  H   H1403     1.0  0.13688  0.65259  0.16353  1.0000
  H   H1404     1.0  0.20451  0.66906  0.13055  1.0000
  H   H1405     1.0  0.22334  0.67942  0.17483  1.0000
  H   H1406     1.0  0.19061  0.68582  0.19267  1.0000
  H   H1407     1.0  0.16485  0.68355  0.17998  1.0000
  C   C1765     1.0  0.14906  0.77938  0.46395  1.0000
  H   H1408     1.0  0.32870  0.77402  0.23393  1.0000
  C   C1766     1.0  0.38805  0.64249  0.24615  1.0000
  C   C1767     1.0  0.42936  0.60032  0.21342  1.0000
  H   H1409     1.0  0.42655  0.69320  0.06617  1.0000
  C   C1768     1.0  0.33533  0.64413  0.27844  1.0000
  H   H1410     1.0  0.22473  0.61858  0.25299  1.0000
  H   H1411     1.0  0.16197  0.62286  0.33031  1.0000
  C   C1769     1.0  0.00131  0.77193  0.45663  1.0000
  C   C1770     1.0  0.30939  0.76669  0.28218  1.0000
  C   C1771     1.0  0.47959  0.59481  0.42334  1.0000
  H   H1412     1.0  0.04454  0.61115  0.29305  1.0000
  H   H1413     1.0  0.34630  0.64841  0.26675  1.0000
  H   H1414     1.0  0.33069  0.62423  0.26558  1.0000
  C   C1772     1.0  0.33676  0.75996  0.07787  1.0000
  C   C1773     1.0  0.32570  0.74698  0.08811  1.0000
  C   C1774     1.0  0.32532  0.73992  0.10724  1.0000
  C   C1775     1.0  0.33532  0.74651  0.11635  1.0000
  C   C1776     1.0  0.34548  0.76049  0.10637  1.0000
  C   C1777     1.0  0.34669  0.76668  0.08695  1.0000
  P   P56       1.0  0.35751  0.76974  0.11832  1.0000
  H   H1415     1.0  0.34476  0.74449  0.99225  1.0000
  C   C1778     1.0  0.38036  0.75450  0.11783  1.0000
  C   C1779     1.0  0.38326  0.73844  0.13206  1.0000
  C   C1780     1.0  0.40100  0.72669  0.13158  1.0000
  C   C1781     1.0  0.41584  0.73061  0.11662  1.0000
  C   C1782     1.0  0.41290  0.74619  0.10203  1.0000
  C   C1783     1.0  0.39518  0.75797  0.10253  1.0000
  C   C1784     1.0  0.35204  0.76717  0.15693  1.0000
  H   H1416     1.0  0.44445  0.71854  0.05334  1.0000
  H   H1417     1.0  0.45238  0.77972  0.15620  1.0000
  C   C1785     1.0  0.23403  0.77908  0.31752  1.0000
  C   C1786     1.0  0.15960  0.76896  0.45041  1.0000
  H   H1418     1.0  0.10307  0.66067  0.36586  1.0000
  C   C1787     1.0  0.30688  0.63331  0.30849  1.0000
  H   H1419     1.0  0.33718  0.76519  0.06299  1.0000
  H   H1420     1.0  0.31716  0.74262  0.08129  1.0000
  H   H1421     1.0  0.31699  0.72959  0.11506  1.0000
  H   H1422     1.0  0.33471  0.74097  0.13126  1.0000
  H   H1423     1.0  0.30122  0.60446  0.14852  1.0000
  H   H1424     1.0  0.37184  0.73495  0.14354  1.0000
  H   H1425     1.0  0.40324  0.71454  0.14285  1.0000
  H   H1426     1.0  0.42953  0.72147  0.11629  1.0000
  H   H1427     1.0  0.42426  0.74914  0.09023  1.0000
  P   P57       1.0  0.40796  0.58621  0.24802  1.0000
  H   H1428     1.0  0.38311  0.65449  0.09107  1.0000
  S   S250      1.0  0.44939  0.59718  0.45274  1.0000
  C   C1788     1.0  0.31312  0.59924  0.46672  1.0000
  H   H1429     1.0  0.23152  0.77944  0.26631  1.0000
  C   C1789     1.0  0.39616  0.67386  0.06769  1.0000
  H   H1430     1.0  0.11703  0.67115  0.32554  1.0000
  H   H1431     1.0  0.11822  0.74241  0.20803  1.0000
  C   C1790     1.0  0.39735  0.67187  0.98771  1.0000
  C   C1791     1.0  0.21098  0.74421  0.29488  1.0000
  C   C1792     1.0  0.06316  0.74854  0.42980  1.0000
  H   H1432     1.0  0.44650  0.61067  0.18686  1.0000
  H   H1433     1.0  0.30869  0.62315  0.22171  1.0000
  H   H1434     1.0  0.24299  0.59521  0.34273  1.0000
  H   H1435     1.0  0.21193  0.77872  0.41984  1.0000
  C   C1793     1.0  0.41993  0.74080  0.05508  1.0000
  C   C1794     1.0  0.12995  0.76564  0.20748  1.0000
  H   H1436     1.0  0.36081  0.70677  0.14201  1.0000
  H   H1437     1.0  0.17663  0.63986  0.09453  1.0000
  C   C1795     1.0  0.25113  0.77443  0.32319  1.0000
  H   H1438     1.0  0.25053  0.62097  0.38297  1.0000
  C   C1796     1.0  0.30872  0.59395  0.23370  1.0000
  H   H1439     1.0  0.17353  0.77103  0.44321  1.0000
  C   C1797     1.0  0.11864  0.75916  0.32288  1.0000
  C   C1798     1.0  0.13315  0.75607  0.30746  1.0000
  H   H1440     1.0  0.15922  0.76253  0.29081  1.0000
  H   H1441     1.0  0.03450  0.75732  0.31504  1.0000
  H   H1442     1.0  0.30797  0.69467  0.01085  1.0000
  C   C1799     1.0  0.37332  0.61346  0.19111  1.0000
  C   C1800     1.0  0.13828  0.61428  0.21004  1.0000
  C   C1801     1.0  0.25041  0.64173  0.39759  1.0000
  C   C1802     1.0  0.26394  0.63049  0.42517  1.0000
  H   H1443     1.0  0.17362  0.60946  0.22202  1.0000
  C   C1803     1.0  0.11912  0.77889  0.26637  1.0000
  H   H1444     1.0  0.21392  0.72906  0.29935  1.0000
  H   H1445     1.0  0.18373  0.74778  0.31296  1.0000
  H   H1446     1.0  0.31493  0.60509  0.34677  1.0000
  H   H1447     1.0  0.17907  0.60433  0.25801  1.0000
  C   C1804     1.0  0.36757  0.61741  0.45941  1.0000
  H   H1448     1.0  0.17821  0.60963  0.11753  1.0000
  C   C1805     1.0  0.29016  0.61984  0.10711  1.0000
  C   C1806     1.0  0.22270  0.61009  0.12365  1.0000
  C   C1807     1.0  0.28038  0.76360  0.35283  1.0000
  C   C1808     1.0  0.22162  0.64855  0.24316  1.0000
  C   C1809     1.0  0.45542  0.67987  0.20866  1.0000
  C   C1810     1.0  0.08091  0.73982  0.43354  1.0000
  H   H1449     1.0  0.18610  0.67966  0.40331  1.0000
  C   C1811     1.0  0.43769  0.60072  0.19445  1.0000
  H   H1450     1.0  0.12362  0.59486  0.23129  1.0000
  H   H1451     1.0  0.08078  0.65055  0.27585  1.0000
  C   C1812     1.0  0.22150  0.62065  0.15165  1.0000
  H   H1452     1.0  0.34709  0.60224  0.15389  1.0000
  C   C1813     1.0  0.09031  0.60395  0.29575  1.0000
  H   H1453     1.0  0.27050  0.59751  0.15168  1.0000
  H   H1454     1.0  0.34637  0.58626  0.23819  1.0000
  C   C1814     1.0  0.12811  0.67911  0.46996  1.0000
  H   H1455     1.0  0.11062  0.73736  0.42340  1.0000
  P   P58       1.0  0.28135  0.78233  0.33202  1.0000
  H   H1456     1.0  0.16207  0.75622  0.22246  1.0000
  H   H1457     1.0  0.00112  0.77283  0.47077  1.0000
  H   H1458     1.0  0.34591  0.62431  0.03382  1.0000
  C   C1815     1.0  0.38461  0.74025  0.98488  1.0000
  C   C1816     1.0  0.32349  0.60589  0.07254  1.0000
  H   H1459     1.0  0.47170  0.60759  0.41624  1.0000
  C   C1817     1.0  0.23265  0.59249  0.13096  1.0000
  C   C1818     1.0  0.47599  0.70511  0.18265  1.0000
  H   H1460     1.0  0.44997  0.71809  0.17330  1.0000
  H   H1461     1.0  0.40081  0.61829  0.18856  1.0000
  C   C1819     1.0  0.25411  0.62337  0.39498  1.0000
  C   C1820     1.0  0.09527  0.75818  0.40439  1.0000
  C   C1821     1.0  0.34827  0.64663  0.12872  1.0000
  S   S251      1.0  0.14514  0.60045  0.19299  1.0000
  C   C1822     1.0  0.39202  0.65627  0.07715  1.0000
  C   C1823     1.0  0.26335  0.60919  0.19406  1.0000
  C   C1824     1.0  0.13408  0.61722  0.33878  1.0000
  H   H1462     1.0  0.05222  0.60360  0.37705  1.0000
  C   C1825     1.0  0.99095  0.61380  0.08935  1.0000
  H   H1463     1.0  0.37094  0.68501  0.00252  1.0000
  C   C1826     1.0  0.05843  0.63972  0.32972  1.0000
  H   H1464     1.0  0.13901  0.60213  0.34219  1.0000
  H   H1465     1.0  0.31202  0.65324  0.32133  1.0000
  H   H1466     1.0  0.46098  0.73620  0.19758  1.0000
  H   H1467     1.0  0.11558  0.77187  0.42435  1.0000
  H   H1468     1.0  0.03042  0.77284  0.44684  1.0000
  P   P59       1.0  0.10991  0.58483  0.30020  1.0000
  H   H1469     1.0  0.38217  0.73697  0.01457  1.0000
  C   C1827     1.0  0.34432  0.71952  0.04950  1.0000
  C   C1828     1.0  0.41363  0.66053  0.04056  1.0000
  H   H1470     1.0  0.34839  0.68845  0.09882  1.0000
  C   C1829     1.0  0.29137  0.77213  0.06089  1.0000
  C   C1830     1.0  0.13103  0.77681  0.47307  1.0000
  C   C1831     1.0  0.19386  0.75485  0.30249  1.0000
  C   C1832     1.0  0.39921  0.64080  0.06860  1.0000
  C   C1833     1.0  0.27185  0.65482  0.06273  1.0000
  H   H1471     1.0  0.25272  0.65965  0.41435  1.0000
  C   C1834     1.0  0.07758  0.76714  0.40077  1.0000
  H   H1472     1.0  0.04978  0.64347  0.27894  1.0000
  C   C1835     1.0  0.32846  0.71443  0.06225  1.0000
  H   H1473     1.0  0.31484  0.71940  0.05853  1.0000
  H   H1474     1.0  0.34345  0.74582  0.30717  1.0000
  C   C1836     1.0  0.24574  0.66675  0.08621  1.0000
  C   C1837     1.0  0.26280  0.66841  0.07365  1.0000
  C   C1838     1.0  0.01864  0.76945  0.42501  1.0000
  H   H1475     1.0  0.36306  0.77182  0.22514  1.0000
  H   H1476     1.0  0.43218  0.69572  0.19576  1.0000
  C   C1839     1.0  0.06092  0.63253  0.28399  1.0000
  C   C1840     1.0  0.04453  0.62202  0.09694  1.0000
  H   H1477     1.0  0.31434  0.74798  0.01499  1.0000
  C   C1841     1.0  0.41753  0.58779  0.22321  1.0000
  H   H1478     1.0  0.26280  0.61320  0.11621  1.0000
  H   H1479     1.0  0.05938  0.65015  0.31673  1.0000
  C   C1842     1.0  0.99053  0.60491  0.12271  1.0000
  H   H1480     1.0  0.10515  0.61562  0.34590  1.0000
  C   C1843     1.0  0.39594  0.67274  0.11223  1.0000
  C   C1844     1.0  0.20133  0.60448  0.20482  1.0000
  C   C1845     1.0  0.44682  0.69423  0.19578  1.0000
  C   C1846     1.0  0.33744  0.63445  0.02463  1.0000
  H   H1481     1.0  0.24187  0.67560  0.44613  1.0000
  C   C1847     1.0  0.34764  0.63947  0.19729  1.0000
  C   C1848     1.0  0.29232  0.64947  0.11222  1.0000
  C   C1849     1.0  0.27600  0.76743  0.37093  1.0000
  C   C1850     1.0  0.07830  0.63657  0.28241  1.0000
  H   H1482     1.0  0.99249  0.62396  0.07617  1.0000
  C   C1851     1.0  0.23481  0.63670  0.29410  1.0000
  C   C1852     1.0  0.27110  0.62320  0.11536  1.0000
  H   H1483     1.0  0.23796  0.74478  0.27633  1.0000
  H   H1484     1.0  0.25003  0.66192  0.47713  1.0000
  C   C1853     1.0  0.23771  0.65156  0.08759  1.0000
  C   C1854     1.0  0.45700  0.70688  0.18294  1.0000
  C   C1855     1.0  0.47033  0.74583  0.19106  1.0000
  C   C1856     1.0  0.12698  0.78255  0.21337  1.0000
  C   C1857     1.0  0.31127  0.62569  0.29241  1.0000
  H   H1485     1.0  0.34306  0.72839  0.03585  1.0000
  C   C1858     1.0  0.37949  0.64582  0.45229  1.0000
  C   C1859     1.0  0.36182  0.71317  0.05439  1.0000
  H   H1486     1.0  0.36064  0.63798  0.07106  1.0000
  H   H1487     1.0  0.99220  0.60820  0.13522  1.0000
  C   C1860     1.0  0.23049  0.64834  0.34259  1.0000
  H   H1488     1.0  0.38415  0.65490  0.23570  1.0000
  H   H1489     1.0  0.07656  0.77748  0.38781  1.0000
  H   H1490     1.0  0.42640  0.58810  0.41419  1.0000
  C   C1861     1.0  0.39022  0.73113  0.06735  1.0000
  C   C1862     1.0  0.21724  0.63958  0.34044  1.0000
  H   H1491     1.0  0.24068  0.66001  0.30123  1.0000
  H   H1492     1.0  0.33285  0.64543  0.19983  1.0000
  H   H1493     1.0  0.29876  0.65152  0.15214  1.0000
  C   C1863     1.0  0.34435  0.64965  0.01228  1.0000
  H   H1494     1.0  0.25823  0.75984  0.32595  1.0000
  C   C1864     1.0  0.13861  0.64278  0.21921  1.0000
  C   C1865     1.0  0.30229  0.58880  0.30849  1.0000
  H   H1495     1.0  0.18939  0.72105  0.44298  1.0000
  C   C1866     1.0  0.04193  0.70504  0.45882  1.0000
  C   C1867     1.0  0.39436  0.66888  0.13172  1.0000
  C   C1868     1.0  0.06140  0.76241  0.41345  1.0000
  H   H1496     1.0  0.07358  0.60199  0.06154  1.0000
  C   C1869     1.0  0.44004  0.77655  0.16629  1.0000
  C   C1870     1.0  0.42930  0.72200  0.05726  1.0000
  H   H1497     1.0  0.15178  0.63634  0.19207  1.0000
  C   C1871     1.0  0.24700  0.63770  0.07708  1.0000
  H   H1498     1.0  0.27578  0.77318  0.08906  1.0000
  H   H1499     1.0  0.21682  0.63163  0.15959  1.0000
  H   H1500     1.0  0.36708  0.76313  0.15521  1.0000
  C   C1872     1.0  0.37183  0.70092  0.11434  1.0000
  S   S252      1.0  0.12577  0.73413  0.45352  1.0000
  C   C1873     1.0  0.27955  0.73427  0.38485  1.0000
  C   C1874     1.0  0.21734  0.62422  0.13390  1.0000
  H   H1501     1.0  0.10624  0.62586  0.28675  1.0000
  C   C1875     1.0  0.22154  0.62030  0.34085  1.0000
  C   C1876     1.0  0.39947  0.71222  0.06914  1.0000
  C   C1877     1.0  0.27329  0.65266  0.12057  1.0000
  C   C1878     1.0  0.33017  0.65242  0.29405  1.0000
  H   H1502     1.0  0.22003  0.64279  0.29483  1.0000
  H   H1503     1.0  0.20449  0.65265  0.21131  1.0000
  H   H1504     1.0  0.05317  0.71617  0.30470  1.0000
  C   C1879     1.0  0.35411  0.62119  0.19422  1.0000
  C   C1880     1.0  0.06705  0.62503  0.35976  1.0000
  C   C1881     1.0  0.16590  0.76469  0.22970  1.0000
  H   H1505     1.0  0.36839  0.66371  0.04410  1.0000
  S   S253      1.0  0.01633  0.69042  0.42529  1.0000
  C   C1882     1.0  0.31676  0.76272  0.31756  1.0000
  C   C1883     1.0  0.21789  0.61118  0.19658  1.0000
  H   H1506     1.0  0.46985  0.76578  0.10956  1.0000
  C   C1884     1.0  0.39069  0.62773  0.27820  1.0000
  H   H1507     1.0  0.19335  0.73223  0.40880  1.0000
  C   C1885     1.0  0.18998  0.70667  0.40388  1.0000
  C   C1886     1.0  0.18527  0.69366  0.44297  1.0000
  C   C1887     1.0  0.23043  0.77881  0.37361  1.0000
  C   C1888     1.0  0.06931  0.63823  0.34270  1.0000
  H   H1508     1.0  0.34296  0.68838  0.03204  1.0000
  Fe  Fe128     1.0  0.99109  0.72508  0.36914  1.0000
  C   C1889     1.0  0.12266  0.61945  0.24127  1.0000
  C   C1890     1.0  0.05420  0.61346  0.36370  1.0000
  C   C1891     1.0  0.19084  0.71823  0.41518  1.0000
  C   C1892     1.0  0.33325  0.60851  0.08477  1.0000
  C   C1893     1.0  0.18671  0.68864  0.41206  1.0000
  H   H1509     1.0  0.31138  0.61633  0.06885  1.0000
  H   H1510     1.0  0.03668  0.63562  0.09964  1.0000
  H   H1511     1.0  0.23073  0.63510  0.19130  1.0000
  C   C1894     1.0  0.29450  0.61149  0.17570  1.0000
  C   C1895     1.0  0.12780  0.60819  0.22786  1.0000
  H   H1512     1.0  0.08193  0.77730  0.43968  1.0000
  H   H1513     1.0  0.24082  0.62591  0.07841  1.0000
  C   C1896     1.0  0.09866  0.76171  0.22400  1.0000
  C   C1897     1.0  0.38155  0.68102  0.14249  1.0000
  C   C1898     1.0  0.29464  0.59628  0.37143  1.0000
  H   H1514     1.0  0.32042  0.58698  0.05715  1.0000
  C   C1899     1.0  0.33957  0.67709  0.04376  1.0000
  H   H1515     1.0  0.30028  0.65987  0.11109  1.0000
  C   C1900     1.0  0.26113  0.61089  0.28929  1.0000
  C   C1901     1.0  0.31610  0.64683  0.30918  1.0000
  H   H1516     1.0  0.05577  0.63285  0.06786  1.0000
  C   C1902     1.0  0.18870  0.71173  0.43461  1.0000
  C   C1903     1.0  0.34105  0.76843  0.17479  1.0000
  H   H1517     1.0  0.03683  0.62973  0.32392  1.0000
  C   C1904     1.0  0.20372  0.63909  0.20964  1.0000
  C   C1905     1.0  0.18243  0.76674  0.25220  1.0000
  H   H1518     1.0  0.30818  0.61428  0.17430  1.0000
  H   H1519     1.0  0.20960  0.63780  0.12818  1.0000
  C   C1906     1.0  0.33074  0.64831  0.07464  1.0000
  C   C1907     1.0  0.25288  0.61878  0.34462  1.0000
  H   H1520     1.0  0.21901  0.61266  0.11012  1.0000
  H   H1521     1.0  0.29609  0.72307  0.02417  1.0000
  C   C1908     1.0  0.41007  0.64291  0.05034  1.0000
  H   H1522     1.0  0.16058  0.74693  0.43663  1.0000
  H   H1523     1.0  0.29625  0.60686  0.10237  1.0000
  S   S254      1.0  0.27599  0.62231  0.05102  1.0000
  C   C1909     1.0  0.06348  0.70323  0.30364  1.0000
  P   P60       1.0  0.08370  0.65501  0.33918  1.0000
  H   H1524     1.0  0.07124  0.71047  0.27344  1.0000
  H   H1525     1.0  0.26803  0.63329  0.43669  1.0000
  C   C1910     1.0  0.47375  0.76945  0.02763  1.0000
  C   C1911     1.0  0.42966  0.64292  0.47889  1.0000
  H   H1526     1.0  0.20253  0.59616  0.39666  1.0000
  H   H1527     1.0  0.40523  0.67438  0.99653  1.0000
  C   C1912     1.0  0.06674  0.68989  0.31988  1.0000
  C   C1913     1.0  0.07357  0.69998  0.28601  1.0000
  H   H1528     1.0  0.04853  0.68522  0.44075  1.0000
  C   C1914     1.0  0.31977  0.73544  0.00916  1.0000
  C   C1915     1.0  0.28571  0.77914  0.07737  1.0000
  C   C1916     1.0  0.08024  0.67319  0.31858  1.0000
  C   C1917     1.0  0.08707  0.68350  0.28459  1.0000
  H   H1529     1.0  0.15089  0.65735  0.32184  1.0000
  C   C1918     1.0  0.26267  0.63960  0.12209  1.0000
  H   H1530     1.0  0.24780  0.64252  0.12791  1.0000
  C   C1919     1.0  0.30482  0.61726  0.25184  1.0000
  H   H1531     1.0  0.24415  0.65319  0.38755  1.0000
  H   H1532     1.0  0.29584  0.62930  0.32026  1.0000
  C   C1920     1.0  0.14930  0.77657  0.31431  1.0000
  H   H1533     1.0  0.08017  0.67992  0.44642  1.0000
  C   C1921     1.0  0.14705  0.62888  0.33203  1.0000
  C   C1922     1.0  0.14081  0.64832  0.32731  1.0000
  H   H1534     1.0  0.30317  0.63182  0.25226  1.0000
  C   C1923     1.0  0.09036  0.67010  0.30078  1.0000
  H   H1535     1.0  0.17593  0.63979  0.22693  1.0000
  C   C1924     1.0  0.30760  0.61246  0.23452  1.0000
  H   H1536     1.0  0.46602  0.70845  0.11649  1.0000
  H   H1537     1.0  0.26668  0.61069  0.34615  1.0000
  H   H1538     1.0  0.10079  0.65734  0.29929  1.0000
  C   C1925     1.0  0.10846  0.64449  0.33632  1.0000
  C   C1926     1.0  0.22452  0.75308  0.28184  1.0000
  C   C1927     1.0  0.14836  0.76482  0.30308  1.0000
  C   C1928     1.0  0.01057  0.72393  0.46163  1.0000
  H   H1539     1.0  0.22818  0.76817  0.31583  1.0000
  S   S255      1.0  0.39709  0.71735  0.98444  1.0000
  H   H1540     1.0  0.46335  0.77159  0.07388  1.0000
  C   C1929     1.0  0.19003  0.77448  0.29702  1.0000
  H   H1541     1.0  0.41722  0.73612  0.00234  1.0000
  H   H1542     1.0  0.30831  0.60719  0.45405  1.0000
  H   H1543     1.0  0.30632  0.76772  0.26869  1.0000
  H   H1544     1.0  0.37544  0.59770  0.23115  1.0000
  H   H1545     1.0  0.03327  0.60628  0.35386  1.0000
  H   H1546     1.0  0.19259  0.76478  0.33507  1.0000
  H   H1547     1.0  0.19183  0.78207  0.13752  1.0000
  C   C1930     1.0  0.22086  0.77262  0.27625  1.0000
  C   C1931     1.0  0.46357  0.77435  0.04472  1.0000
  H   H1548     1.0  0.39305  0.76977  0.09094  1.0000
  C   C1932     1.0  0.43030  0.77244  0.01080  1.0000
  H   H1549     1.0  0.05533  0.70080  0.46288  1.0000
  H   H1550     1.0  0.99606  0.63123  0.10508  1.0000
  H   H1551     1.0  0.47804  0.65196  0.45081  1.0000
  H   H1552     1.0  0.13202  0.60948  0.30402  1.0000
  C   C1933     1.0  0.13447  0.77986  0.32960  1.0000
  Fe  Fe129     1.0  0.99312  0.70403  0.40895  1.0000
  C   C1934     1.0  0.19896  0.66669  0.47593  1.0000
  H   H1553     1.0  0.31061  0.59022  0.22030  1.0000
  H   H1554     1.0  0.98894  0.76220  0.36271  1.0000
  S   S256      1.0  0.07388  0.75224  0.47740  1.0000
  S   S257      1.0  0.99191  0.73415  0.39486  1.0000
  P   P61       1.0  0.46536  0.78086  0.00626  1.0000
  H   H1555     1.0  0.27332  0.58914  0.32226  1.0000
  C   C1935     1.0  0.48425  0.78060  0.98580  1.0000
  C   C1936     1.0  0.37352  0.64705  0.47116  1.0000
  H   H1556     1.0  0.31840  0.69753  0.47776  1.0000
  C   C1937     1.0  0.15847  0.58836  0.26042  1.0000
  P   P62       1.0  0.26814  0.58476  0.40328  1.0000
  H   H1557     1.0  0.20789  0.70090  0.47751  1.0000
  C   C1938     1.0  0.32657  0.60470  0.47257  1.0000
  C   C1939     1.0  0.24862  0.67684  0.47177  1.0000
  H   H1558     1.0  0.28675  0.69568  0.47648  1.0000
  C   C1940     1.0  0.37315  0.58609  0.24293  1.0000
  C   C1941     1.0  0.24867  0.70789  0.47498  1.0000
  H   H1559     1.0  0.42150  0.64237  0.46929  1.0000
  H   H1560     1.0  0.37620  0.65825  0.47589  1.0000
  C   C1942     1.0  0.17819  0.70512  0.47909  1.0000
  C   C1943     1.0  0.30470  0.58487  0.26747  1.0000
  C   C1944     1.0  0.13170  0.59115  0.28647  1.0000
  H   H1561     1.0  0.27079  0.58507  0.22806  1.0000
  H   H1562     1.0  0.08188  0.58982  0.33498  1.0000
  C   C1945     1.0  0.21679  0.58873  0.39257  1.0000
  C   C1946     1.0  0.20373  0.78330  0.28383  1.0000
  C   C1947     1.0  0.40078  0.78276  0.14491  1.0000
  H   H1563     1.0  0.08240  0.78314  0.23913  1.0000
  C   C1948     1.0  0.35403  0.78224  0.21667  1.0000
  C   C1949     1.0  0.41535  0.78301  0.19291  1.0000
  H   H1564     1.0  0.37686  0.78297  0.16760  1.0000
  C   C1950     1.0  0.08734  0.78368  0.28454  1.0000
  C   C1951     1.0  0.33467  0.78355  0.22167  1.0000
  H   H1565     1.0  0.34088  0.63414  0.78430  1.0000
  Fe  Fe130     1.0  0.08780  0.70918  0.51593  1.0000
  S   S258      1.0  0.10370  0.73221  0.50547  1.0000
  S   S259      1.0  0.09694  0.68469  0.53867  1.0000
  Fe  Fe131     1.0  0.05975  0.72784  0.49028  1.0000
  C   C1952     1.0  0.47025  0.76934  0.85541  1.0000
  S   S260      1.0  0.03193  0.72996  0.48281  1.0000
  H   H1566     1.0  0.38474  0.59672  0.79127  1.0000
  H   H1567     1.0  0.30036  0.66690  0.71386  1.0000
  Fe  Fe132     1.0  0.07576  0.75180  0.50658  1.0000
  C   C1953     1.0  0.35028  0.67107  0.70663  1.0000
  S   S261      1.0  0.08666  0.70620  0.48736  1.0000
  S   S262      1.0  0.05967  0.72903  0.51983  1.0000
  C   C1954     1.0  0.29545  0.59927  0.74680  1.0000
  Fe  Fe133     1.0  0.33089  0.65357  0.64074  1.0000
  S   S263      1.0  0.35478  0.66662  0.63924  1.0000
  S   S264      1.0  0.31941  0.63146  0.66399  1.0000
  Fe  Fe134     1.0  0.32351  0.67601  0.60258  1.0000
  S   S265      1.0  0.34683  0.69114  0.59756  1.0000
  S   S266      1.0  0.30552  0.68214  0.58122  1.0000
  Fe  Fe135     1.0  0.36316  0.66298  0.60934  1.0000
  S   S267      1.0  0.39223  0.64934  0.59657  1.0000
  Fe  Fe136     1.0  0.33637  0.69360  0.62777  1.0000
  S   S268      1.0  0.32969  0.72129  0.63664  1.0000
  S   S269      1.0  0.34073  0.64770  0.61185  1.0000
  S   S270      1.0  0.31160  0.68077  0.63183  1.0000
  Fe  Fe137     1.0  0.19051  0.65504  0.57313  1.0000
  S   S271      1.0  0.17132  0.66228  0.59943  1.0000
  S   S272      1.0  0.18227  0.66528  0.54492  1.0000
  Fe  Fe138     1.0  0.22396  0.63826  0.59180  1.0000
  S   S273      1.0  0.20746  0.64397  0.61978  1.0000
  S   S274      1.0  0.25466  0.62474  0.58941  1.0000
  Fe  Fe139     1.0  0.18490  0.63380  0.61382  1.0000
  S   S275      1.0  0.16783  0.61826  0.63951  1.0000
  Fe  Fe140     1.0  0.19527  0.67182  0.60350  1.0000
  S   S276      1.0  0.18957  0.69948  0.61196  1.0000
  S   S277      1.0  0.20240  0.62544  0.58694  1.0000
  S   S278      1.0  0.21355  0.66707  0.57590  1.0000
  Fe  Fe141     1.0  0.36262  0.75807  0.74471  1.0000
  H   H1568     1.0  0.34524  0.69480  0.87247  1.0000
  S   S279      1.0  0.37302  0.74007  0.76997  1.0000
  H   H1569     1.0  0.38715  0.65145  0.75053  1.0000
  C   C1955     1.0  0.38938  0.70230  0.72328  1.0000
  C   C1956     1.0  0.36012  0.71373  0.65314  1.0000
  H   H1570     1.0  0.37734  0.69683  0.70311  1.0000
  S   S280      1.0  0.21655  0.69507  0.68547  1.0000
  Fe  Fe142     1.0  0.32953  0.66892  0.84612  1.0000
  S   S281      1.0  0.36018  0.65922  0.84650  1.0000
  S   S282      1.0  0.31538  0.69629  0.82985  1.0000
  Fe  Fe143     1.0  0.31973  0.63311  0.87289  1.0000
  S   S283      1.0  0.34964  0.62094  0.87596  1.0000
  S   S284      1.0  0.29621  0.61703  0.88504  1.0000
  Fe  Fe144     1.0  0.35078  0.65020  0.87770  1.0000
  S   S285      1.0  0.35947  0.66117  0.89914  1.0000
  Fe  Fe145     1.0  0.35645  0.63126  0.84451  1.0000
  S   S286      1.0  0.32002  0.66125  0.87733  1.0000
  S   S287      1.0  0.32672  0.64181  0.84156  1.0000
  Fe  Fe146     1.0  0.18153  0.63901  0.81521  1.0000
  S   S288      1.0  0.18383  0.64235  0.84303  1.0000
  S   S289      1.0  0.16406  0.66071  0.79652  1.0000
  Fe  Fe147     1.0  0.20729  0.60057  0.81823  1.0000
  S   S290      1.0  0.21250  0.60097  0.84616  1.0000
  H   H1571     1.0  0.25041  0.71713  0.48290  1.0000
  Fe  Fe148     1.0  0.18149  0.61210  0.85319  1.0000
  H   H1572     1.0  0.01174  0.65350  0.62183  1.0000
  Fe  Fe149     1.0  0.21453  0.63095  0.83354  1.0000
  S   S291      1.0  0.23505  0.64730  0.83471  1.0000
  S   S292      1.0  0.17617  0.60983  0.82612  1.0000
  S   S293      1.0  0.21230  0.62957  0.80484  1.0000
  C   C1957     1.0  0.35129  0.60847  0.52971  1.0000
  C   C1958     1.0  0.46098  0.76383  0.87409  1.0000
  H   H1573     1.0  0.34522  0.69709  0.71597  1.0000
  S   S294      1.0  0.38800  0.62915  0.52211  1.0000
  C   C1959     1.0  0.40673  0.66304  0.97274  1.0000
  C   C1960     1.0  0.32515  0.70871  0.93462  1.0000
  H   H1574     1.0  0.00629  0.72245  0.55580  1.0000
  H   H1575     1.0  0.21358  0.61018  0.96570  1.0000
  C   C1961     1.0  0.20505  0.58581  0.92108  1.0000
  H   H1576     1.0  0.38438  0.74765  0.95533  1.0000
  H   H1577     1.0  0.39671  0.58752  0.59221  1.0000
  C   C1962     1.0  0.20519  0.76596  0.63111  1.0000
  H   H1578     1.0  0.29791  0.62946  0.53946  1.0000
  C   C1963     1.0  0.20094  0.66275  0.49464  1.0000
  H   H1579     1.0  0.18452  0.59678  0.70256  1.0000
  H   H1580     1.0  0.05857  0.68317  0.56117  1.0000
  C   C1964     1.0  0.38030  0.66766  0.89973  1.0000
  C   C1965     1.0  0.37938  0.67860  0.91257  1.0000
  C   C1966     1.0  0.34750  0.61335  0.76758  1.0000
  H   H1581     1.0  0.36606  0.68327  0.92140  1.0000
  C   C1967     1.0  0.09266  0.64041  0.77275  1.0000
  C   C1968     1.0  0.27842  0.62551  0.87195  1.0000
  C   C1969     1.0  0.26571  0.61451  0.87292  1.0000
  C   C1970     1.0  0.25228  0.62094  0.86159  1.0000
  C   C1971     1.0  0.25137  0.63854  0.84943  1.0000
  C   C1972     1.0  0.26357  0.64976  0.84908  1.0000
  C   C1973     1.0  0.27709  0.64327  0.86017  1.0000
  H   H1582     1.0  0.26629  0.60097  0.88224  1.0000
  H   H1583     1.0  0.24256  0.61241  0.86237  1.0000
  H   H1584     1.0  0.26278  0.66353  0.84012  1.0000
  H   H1585     1.0  0.28645  0.65211  0.85961  1.0000
  C   C1974     1.0  0.18724  0.71372  0.76880  1.0000
  C   C1975     1.0  0.19380  0.70136  0.78427  1.0000
  C   C1976     1.0  0.18691  0.68490  0.79274  1.0000
  C   C1977     1.0  0.17318  0.68097  0.78594  1.0000
  C   C1978     1.0  0.16668  0.69329  0.77045  1.0000
  C   C1979     1.0  0.17385  0.70955  0.76175  1.0000
  H   H1586     1.0  0.20447  0.70429  0.78948  1.0000
  H   H1587     1.0  0.19208  0.67535  0.80461  1.0000
  H   H1588     1.0  0.15614  0.69022  0.76512  1.0000
  H   H1589     1.0  0.16871  0.71905  0.74987  1.0000
  C   C1980     1.0  0.35652  0.72849  0.78630  1.0000
  C   C1981     1.0  0.33742  0.73398  0.78599  1.0000
  C   C1982     1.0  0.32464  0.72424  0.79957  1.0000
  C   C1983     1.0  0.33107  0.70897  0.81321  1.0000
  C   C1984     1.0  0.35014  0.70372  0.81333  1.0000
  C   C1985     1.0  0.36282  0.71338  0.79991  1.0000
  H   H1590     1.0  0.33252  0.74570  0.77540  1.0000
  H   H1591     1.0  0.30988  0.72843  0.79940  1.0000
  H   H1592     1.0  0.27866  0.66599  0.53442  1.0000
  S   S295      1.0  0.16393  0.60137  0.88134  1.0000
  C   C1986     1.0  0.38055  0.75252  0.96834  1.0000
  C   C1987     1.0  0.32130  0.61564  0.52094  1.0000
  H   H1593     1.0  0.35147  0.61813  0.55408  1.0000
  C   C1988     1.0  0.41306  0.68846  0.83384  1.0000
  C   C1989     1.0  0.16058  0.71648  0.48438  1.0000
  C   C1990     1.0  0.17551  0.58692  0.66677  1.0000
  C   C1991     1.0  0.00793  0.66867  0.61792  1.0000
  H   H1594     1.0  0.25497  0.67073  0.79946  1.0000
  C   C1992     1.0  0.06695  0.76298  0.55115  1.0000
  H   H1595     1.0  0.26851  0.59630  0.74554  1.0000
  C   C1993     1.0  0.19728  0.69842  0.63228  1.0000
  C   C1994     1.0  0.19099  0.71364  0.64129  1.0000
  C   C1995     1.0  0.19683  0.71282  0.65771  1.0000
  C   C1996     1.0  0.20901  0.69675  0.66504  1.0000
  C   C1997     1.0  0.21546  0.68171  0.65593  1.0000
  C   C1998     1.0  0.20954  0.68251  0.63965  1.0000
  H   H1596     1.0  0.18137  0.72592  0.63581  1.0000
  H   H1597     1.0  0.22534  0.66958  0.66126  1.0000
  H   H1598     1.0  0.21498  0.67099  0.63257  1.0000
  C   C1999     1.0  0.39127  0.64324  0.57603  1.0000
  C   C2000     1.0  0.40564  0.62979  0.56812  1.0000
  C   C2001     1.0  0.40468  0.62503  0.55166  1.0000
  C   C2002     1.0  0.38949  0.63400  0.54301  1.0000
  C   C2003     1.0  0.37517  0.64736  0.55096  1.0000
  C   C2004     1.0  0.37597  0.65185  0.56751  1.0000
  H   H1599     1.0  0.41744  0.62306  0.57475  1.0000
  H   H1600     1.0  0.41579  0.61471  0.54549  1.0000
  H   H1601     1.0  0.36342  0.65432  0.54430  1.0000
  H   H1602     1.0  0.36489  0.66230  0.57345  1.0000
  C   C2005     1.0  0.33506  0.61622  0.67747  1.0000
  C   C2006     1.0  0.32898  0.60131  0.69112  1.0000
  H   H1603     1.0  0.99355  0.72283  0.60315  1.0000
  C   C2007     1.0  0.34276  0.72529  0.65082  1.0000
  C   C2008     1.0  0.33577  0.74073  0.65956  1.0000
  C   C2009     1.0  0.34618  0.74474  0.67037  1.0000
  H   H1604     1.0  0.45805  0.64201  0.51512  1.0000
  C   C2010     1.0  0.02047  0.67866  0.60456  1.0000
  H   H1605     1.0  0.13300  0.72778  0.64823  1.0000
  H   H1606     1.0  0.32238  0.74974  0.65776  1.0000
  H   H1607     1.0  0.34089  0.75671  0.67694  1.0000
  H   H1608     1.0  0.18692  0.59653  0.79160  1.0000
  H   H1609     1.0  0.25302  0.60116  0.91408  1.0000
  C   C2011     1.0  0.29189  0.66578  0.58339  1.0000
  C   C2012     1.0  0.29418  0.64839  0.59592  1.0000
  C   C2013     1.0  0.28285  0.63575  0.59757  1.0000
  C   C2014     1.0  0.26890  0.64061  0.58706  1.0000
  C   C2015     1.0  0.26665  0.65796  0.57450  1.0000
  C   C2016     1.0  0.27827  0.67041  0.57251  1.0000
  H   H1610     1.0  0.30460  0.64474  0.60441  1.0000
  H   H1611     1.0  0.28462  0.62239  0.60732  1.0000
  H   H1612     1.0  0.25599  0.66177  0.56628  1.0000
  H   H1613     1.0  0.27635  0.68390  0.56294  1.0000
  C   C2017     1.0  0.12040  0.68042  0.54109  1.0000
  C   C2018     1.0  0.13376  0.68857  0.52692  1.0000
  C   C2019     1.0  0.15255  0.68417  0.52859  1.0000
  C   C2020     1.0  0.15819  0.67166  0.54441  1.0000
  C   C2021     1.0  0.14475  0.66400  0.55895  1.0000
  C   C2022     1.0  0.12592  0.66827  0.55721  1.0000
  H   H1614     1.0  0.12979  0.69768  0.51432  1.0000
  H   H1615     1.0  0.16282  0.69028  0.51747  1.0000
  H   H1616     1.0  0.14894  0.65432  0.57124  1.0000
  H   H1617     1.0  0.11566  0.66193  0.56827  1.0000
  C   C2023     1.0  0.32311  0.69053  0.68535  1.0000
  C   C2024     1.0  0.41814  0.72954  0.77565  1.0000
  C   C2025     1.0  0.15491  0.66467  0.49228  1.0000
  H   H1618     1.0  0.06937  0.74990  0.54675  1.0000
  H   H1619     1.0  0.33982  0.60757  0.63155  1.0000
  C   C2026     1.0  0.23267  0.70886  0.59352  1.0000
  C   C2027     1.0  0.17807  0.74400  0.58072  1.0000
  C   C2028     1.0  0.39503  0.67688  0.74969  1.0000
  C   C2029     1.0  0.37407  0.59061  0.80192  1.0000
  P   P63       1.0  0.48398  0.62434  0.48521  1.0000
  C   C2030     1.0  0.24513  0.74681  0.74862  1.0000
  H   H1620     1.0  0.40697  0.72028  0.89515  1.0000
  H   H1621     1.0  0.28806  0.72025  0.73493  1.0000
  C   C2031     1.0  0.99792  0.70777  0.60740  1.0000
  C   C2032     1.0  0.04615  0.59103  0.86764  1.0000
  C   C2033     1.0  0.22614  0.60887  0.72892  1.0000
  C   C2034     1.0  0.13662  0.73939  0.63701  1.0000
  C   C2035     1.0  0.19257  0.72463  0.48955  1.0000
  H   H1622     1.0  0.26998  0.58774  0.70974  1.0000
  C   C2036     1.0  0.48564  0.60092  0.49950  1.0000
  H   H1623     1.0  0.40617  0.65742  0.49659  1.0000
  H   H1624     1.0  0.48686  0.60897  0.52458  1.0000
  S   S296      1.0  0.48408  0.70098  0.96357  1.0000
  C   C2037     1.0  0.19918  0.61337  0.96419  1.0000
  H   H1625     1.0  0.10488  0.68922  0.59810  1.0000
  H   H1626     1.0  0.31270  0.61585  0.51150  1.0000
  S   S297      1.0  0.26135  0.75801  0.68531  1.0000
  C   C2038     1.0  0.32422  0.58588  0.63794  1.0000
  H   H1627     1.0  0.40713  0.65572  0.65432  1.0000
  H   H1628     1.0  0.31237  0.69803  0.74791  1.0000
  H   H1629     1.0  0.46884  0.77476  0.96821  1.0000
  C   C2039     1.0  0.39065  0.65686  0.68218  1.0000
  C   C2040     1.0  0.23375  0.58912  0.93831  1.0000
  C   C2041     1.0  0.12431  0.66630  0.48691  1.0000
  H   H1630     1.0  0.35736  0.71595  0.97907  1.0000
  H   H1631     1.0  0.14676  0.70673  0.55768  1.0000
  C   C2042     1.0  0.43722  0.73330  0.85440  1.0000
  C   C2043     1.0  0.06006  0.78018  0.57604  1.0000
  C   C2044     1.0  0.25517  0.58980  0.71562  1.0000
  H   H1632     1.0  0.40401  0.65389  0.94909  1.0000
  H   H1633     1.0  0.23576  0.62368  0.49459  1.0000
  C   C2045     1.0  0.25126  0.68843  0.48224  1.0000
  H   H1634     1.0  0.42892  0.62607  0.66478  1.0000
  C   C2046     1.0  0.28539  0.67629  0.75783  1.0000
  C   C2047     1.0  0.99044  0.67821  0.62609  1.0000
  C   C2048     1.0  0.18506  0.62048  0.97826  1.0000
  H   H1635     1.0  0.24576  0.78277  0.71173  1.0000
  C   C2049     1.0  0.24783  0.62821  0.53811  1.0000
  C   C2050     1.0  0.26045  0.61546  0.52791  1.0000
  C   C2051     1.0  0.27155  0.62201  0.51059  1.0000
  C   C2052     1.0  0.27004  0.64132  0.50351  1.0000
  C   C2053     1.0  0.25710  0.65424  0.51350  1.0000
  C   C2054     1.0  0.24616  0.64750  0.53099  1.0000
  P   P64       1.0  0.25697  0.67902  0.50521  1.0000
  C   C2055     1.0  0.23937  0.69237  0.52081  1.0000
  C   C2056     1.0  0.22036  0.69285  0.52232  1.0000
  C   C2057     1.0  0.24429  0.70243  0.53133  1.0000
  H   H1636     1.0  0.39212  0.59978  0.75198  1.0000
  C   C2058     1.0  0.36650  0.59766  0.81842  1.0000
  H   H1637     1.0  0.43203  0.63481  0.83697  1.0000
  H   H1638     1.0  0.23959  0.62314  0.55181  1.0000
  C   C2059     1.0  0.34066  0.60794  0.51730  1.0000
  H   H1639     1.0  0.28159  0.61208  0.50288  1.0000
  H   H1640     1.0  0.34683  0.59496  0.84495  1.0000
  H   H1641     1.0  0.23660  0.65698  0.53945  1.0000
  H   H1642     1.0  0.21620  0.68507  0.51449  1.0000
  H   H1643     1.0  0.25875  0.70257  0.53038  1.0000
  H   H1644     1.0  0.23206  0.75254  0.74389  1.0000
  H   H1645     1.0  0.37944  0.69105  0.86253  1.0000
  H   H1646     1.0  0.16968  0.59016  0.77096  1.0000
  C   C2060     1.0  0.22504  0.61083  0.67995  1.0000
  C   C2061     1.0  0.21999  0.62944  0.68201  1.0000
  C   C2062     1.0  0.20199  0.63653  0.69146  1.0000
  C   C2063     1.0  0.18871  0.62507  0.69865  1.0000
  C   C2064     1.0  0.19409  0.60623  0.69684  1.0000
  P   P65       1.0  0.16514  0.63439  0.71024  1.0000
  C   C2065     1.0  0.14965  0.62167  0.70665  1.0000
  C   C2066     1.0  0.16417  0.63177  0.73493  1.0000
  C   C2067     1.0  0.14846  0.62708  0.74854  1.0000
  C   C2068     1.0  0.14766  0.62570  0.76755  1.0000
  C   C2069     1.0  0.16238  0.62918  0.77308  1.0000
  C   C2070     1.0  0.17765  0.63467  0.75960  1.0000
  C   C2071     1.0  0.17843  0.63618  0.74056  1.0000
  C   C2072     1.0  0.13991  0.62892  0.69197  1.0000
  C   C2073     1.0  0.12912  0.61834  0.68838  1.0000
  C   C2074     1.0  0.48379  0.58626  0.49242  1.0000
  H   H1647     1.0  0.38445  0.70949  0.66473  1.0000
  C   C2075     1.0  0.14837  0.60367  0.71769  1.0000
  C   C2076     1.0  0.15894  0.65922  0.70031  1.0000
  C   C2077     1.0  0.14976  0.67204  0.71204  1.0000
  C   C2078     1.0  0.14629  0.69134  0.70448  1.0000
  C   C2079     1.0  0.15181  0.69799  0.68518  1.0000
  C   C2080     1.0  0.16064  0.68534  0.67342  1.0000
  C   C2081     1.0  0.16419  0.66603  0.68088  1.0000
  C   C2082     1.0  0.31284  0.62363  0.53669  1.0000
  H   H1648     1.0  0.23899  0.60536  0.67267  1.0000
  H   H1649     1.0  0.23002  0.63842  0.67617  1.0000
  H   H1650     1.0  0.19844  0.65102  0.69289  1.0000
  C   C2083     1.0  0.33257  0.60036  0.62599  1.0000
  H   H1651     1.0  0.13673  0.62467  0.74456  1.0000
  H   H1652     1.0  0.13575  0.62181  0.77808  1.0000
  H   H1653     1.0  0.16185  0.62781  0.78784  1.0000
  H   H1654     1.0  0.18869  0.63805  0.76397  1.0000
  H   H1655     1.0  0.18991  0.64119  0.73020  1.0000
  H   H1656     1.0  0.14102  0.64248  0.68294  1.0000
  H   H1657     1.0  0.12217  0.62376  0.67662  1.0000
  C   C2084     1.0  0.25148  0.59184  0.92774  1.0000
  H   H1658     1.0  0.11944  0.75899  0.68931  1.0000
  H   H1659     1.0  0.18983  0.76564  0.78334  1.0000
  H   H1660     1.0  0.14557  0.66730  0.72707  1.0000
  H   H1661     1.0  0.13958  0.70118  0.71363  1.0000
  H   H1662     1.0  0.16506  0.69054  0.65852  1.0000
  H   H1663     1.0  0.17138  0.65646  0.67154  1.0000
  C   C2085     1.0  0.19465  0.61068  0.94834  1.0000
  H   H1664     1.0  0.46342  0.74922  0.88111  1.0000
  C   C2086     1.0  0.35239  0.64503  0.75518  1.0000
  S   S298      1.0  0.20656  0.76882  0.70960  1.0000
  H   H1665     1.0  0.29252  0.72596  0.76435  1.0000
  C   C2087     1.0  0.17868  0.59484  0.64748  1.0000
  H   H1666     1.0  0.23435  0.71991  0.55176  1.0000
  H   H1667     1.0  0.42494  0.61077  0.69868  1.0000
  S   S299      1.0  0.22783  0.72432  0.71369  1.0000
  H   H1668     1.0  0.32699  0.66464  0.67655  1.0000
  H   H1669     1.0  0.23473  0.63024  0.92478  1.0000
  C   C2088     1.0  0.27711  0.68543  0.79576  1.0000
  C   C2089     1.0  0.40529  0.64886  0.66907  1.0000
  H   H1670     1.0  0.36985  0.66420  0.95478  1.0000
  C   C2090     1.0  0.23041  0.71241  0.54350  1.0000
  C   C2091     1.0  0.39578  0.69527  0.74002  1.0000
  C   C2092     1.0  0.29157  0.68976  0.48949  1.0000
  H   H1671     1.0  0.43744  0.68730  0.84443  1.0000
  H   H1672     1.0  0.19902  0.71622  0.81781  1.0000
  C   C2093     1.0  0.33269  0.67201  0.95545  1.0000
  C   C2094     1.0  0.03379  0.69360  0.52696  1.0000
  H   H1673     1.0  0.39435  0.78009  0.86482  1.0000
  H   H1674     1.0  0.44891  0.58902  0.75830  1.0000
  C   C2095     1.0  0.27955  0.60410  0.73912  1.0000
  C   C2096     1.0  0.01662  0.76233  0.59565  1.0000
  H   H1675     1.0  0.20449  0.76656  0.59358  1.0000
  C   C2097     1.0  0.28232  0.69904  0.80178  1.0000
  H   H1676     1.0  0.31959  0.63152  0.71726  1.0000
  C   C2098     1.0  0.14414  0.77076  0.68181  1.0000
  H   H1677     1.0  0.27415  0.71871  0.81995  1.0000
  C   C2099     1.0  0.32737  0.67546  0.93828  1.0000
  C   C2100     1.0  0.31573  0.67916  0.77455  1.0000
  H   H1678     1.0  0.08607  0.66394  0.78613  1.0000
  Fe  Fe150     1.0  0.20089  0.74094  0.72708  1.0000
  C   C2101     1.0  0.42690  0.64980  0.83586  1.0000
  C   C2102     1.0  0.36387  0.73367  0.67201  1.0000
  H   H1679     1.0  0.35195  0.67444  0.79553  1.0000
  C   C2103     1.0  0.19418  0.70934  0.48170  1.0000
  H   H1680     1.0  0.16697  0.59543  0.67663  1.0000
  H   H1681     1.0  0.23247  0.68878  0.82168  1.0000
  H   H1682     1.0  0.25910  0.76456  0.58207  1.0000
  C   C2104     1.0  0.20495  0.76116  0.51946  1.0000
  H   H1683     1.0  0.23279  0.73728  0.59310  1.0000
  H   H1684     1.0  0.37371  0.77324  0.81327  1.0000
  C   C2105     1.0  0.29551  0.73202  0.59756  1.0000
  C   C2106     1.0  0.04739  0.69007  0.55369  1.0000
  H   H1685     1.0  0.17220  0.61466  0.93394  1.0000
  C   C2107     1.0  0.03279  0.70419  0.56025  1.0000
  C   C2108     1.0  0.26467  0.74248  0.77080  1.0000
  P   P66       1.0  0.03190  0.71082  0.58183  1.0000
  C   C2109     1.0  0.02506  0.73588  0.58027  1.0000
  C   C2110     1.0  0.01569  0.69831  0.59947  1.0000
  C   C2111     1.0  0.42143  0.77865  0.84650  1.0000
  C   C2112     1.0  0.17500  0.73589  0.49481  1.0000
  C   C2113     1.0  0.04798  0.68496  0.53700  1.0000
  H   H1686     1.0  0.03450  0.69008  0.51372  1.0000
  C   C2114     1.0  0.24138  0.77302  0.61778  1.0000
  C   C2115     1.0  0.02509  0.74850  0.56284  1.0000
  C   C2116     1.0  0.02052  0.76786  0.56192  1.0000
  S   S300      1.0  0.40360  0.59791  0.48742  1.0000
  H   H1687     1.0  0.42182  0.65839  0.97014  1.0000
  C   C2117     1.0  0.26298  0.58675  0.82868  1.0000
  C   C2118     1.0  0.05483  0.70433  0.58746  1.0000
  C   C2119     1.0  0.05749  0.69470  0.60554  1.0000
  C   C2120     1.0  0.07550  0.68923  0.60936  1.0000
  C   C2121     1.0  0.09086  0.69371  0.59533  1.0000
  H   H1688     1.0  0.19186  0.67127  0.50432  1.0000
  C   C2122     1.0  0.07023  0.70929  0.57366  1.0000
  Fe  Fe151     1.0  0.43448  0.58656  0.48256  1.0000
  C   C2123     1.0  0.42956  0.72811  0.84206  1.0000
  S   S301      1.0  0.38470  0.76449  0.71917  1.0000
  C   C2124     1.0  0.21351  0.73784  0.80039  1.0000
  C   C2125     1.0  0.04622  0.60550  0.85164  1.0000
  C   C2126     1.0  0.43128  0.65079  0.50740  1.0000
  C   C2127     1.0  0.01878  0.70704  0.53385  1.0000
  C   C2128     1.0  0.18993  0.58383  0.63475  1.0000
  C   C2129     1.0  0.02106  0.74296  0.59664  1.0000
  S   S302      1.0  0.37812  0.73954  0.68370  1.0000
  H   H1689     1.0  0.02923  0.74357  0.54986  1.0000
  C   C2130     1.0  0.48658  0.59763  0.51847  1.0000
  H   H1690     1.0  0.20616  0.75337  0.53348  1.0000
  H   H1691     1.0  0.38173  0.59591  0.56506  1.0000
  H   H1692     1.0  0.37214  0.59840  0.62211  1.0000
  H   H1693     1.0  0.04579  0.69127  0.61666  1.0000
  H   H1694     1.0  0.07757  0.68135  0.62316  1.0000
  C   C2131     1.0  0.27673  0.72826  0.74362  1.0000
  H   H1695     1.0  0.19169  0.73773  0.60399  1.0000
  H   H1696     1.0  0.31496  0.59941  0.69281  1.0000
  C   C2132     1.0  0.26025  0.70959  0.67135  1.0000
  C   C2133     1.0  0.27481  0.71562  0.67451  1.0000
  C   C2134     1.0  0.28459  0.72747  0.66005  1.0000
  C   C2135     1.0  0.27986  0.73332  0.64243  1.0000
  C   C2136     1.0  0.26558  0.72689  0.63897  1.0000
  C   C2137     1.0  0.25551  0.71531  0.65370  1.0000
  H   H1697     1.0  0.28727  0.74305  0.63172  1.0000
  C   C2138     1.0  0.26043  0.68740  0.74032  1.0000
  C   C2139     1.0  0.28895  0.78043  0.71930  1.0000
  C   C2140     1.0  0.34629  0.63119  0.77033  1.0000
  H   H1698     1.0  0.36628  0.61981  0.72077  1.0000
  Fe  Fe152     1.0  0.46164  0.70935  0.94610  1.0000
  H   H1699     1.0  0.39041  0.71643  0.71560  1.0000
  C   C2141     1.0  0.33790  0.75001  0.88177  1.0000
  C   C2142     1.0  0.41533  0.62359  0.69404  1.0000
  H   H1700     1.0  0.09959  0.61435  0.76341  1.0000
  C   C2143     1.0  0.21647  0.75386  0.50412  1.0000
  Fe  Fe153     1.0  0.41910  0.71762  0.95779  1.0000
  C   C2144     1.0  0.36023  0.64101  0.73730  1.0000
  H   H1701     1.0  0.14813  0.78262  0.59838  1.0000
  H   H1702     1.0  0.29871  0.72014  0.60879  1.0000
  H   H1703     1.0  0.24342  0.60250  0.63190  1.0000
  H   H1704     1.0  0.25231  0.70088  0.68273  1.0000
  H   H1705     1.0  0.27805  0.71183  0.68833  1.0000
  H   H1706     1.0  0.29537  0.73280  0.66272  1.0000
  P   P67       1.0  0.36943  0.65866  0.71825  1.0000
  H   H1707     1.0  0.24379  0.71096  0.65167  1.0000
  H   H1708     1.0  0.34079  0.71016  0.74343  1.0000
  C   C2145     1.0  0.41040  0.65860  0.82941  1.0000
  H   H1709     1.0  0.27922  0.64619  0.49042  1.0000
  H   H1710     1.0  0.34291  0.60257  0.77935  1.0000
  H   H1711     1.0  0.05972  0.67460  0.53166  1.0000
  C   C2146     1.0  0.16184  0.62312  0.96046  1.0000
  Fe  Fe154     1.0  0.23240  0.75177  0.69494  1.0000
  H   H1712     1.0  0.06852  0.71680  0.55966  1.0000
  H   H1713     1.0  0.20084  0.71965  0.55515  1.0000
  H   H1714     1.0  0.33191  0.71703  0.95664  1.0000
  H   H1715     1.0  0.36122  0.77740  0.78503  1.0000
  H   H1716     1.0  0.33160  0.77982  0.92508  1.0000
  S   S303      1.0  0.05353  0.78038  0.60004  1.0000
  C   C2147     1.0  0.25909  0.68171  0.80322  1.0000
  H   H1717     1.0  0.24210  0.71253  0.83238  1.0000
  C   C2148     1.0  0.37074  0.71806  0.66353  1.0000
  H   H1718     1.0  0.00788  0.71378  0.52592  1.0000
  C   C2149     1.0  0.24515  0.60705  0.72014  1.0000
  P   P68       1.0  0.25660  0.62658  0.71487  1.0000
  C   C2150     1.0  0.27790  0.61902  0.72355  1.0000
  C   C2151     1.0  0.26249  0.63568  0.68977  1.0000
  C   C2152     1.0  0.26914  0.62341  0.67720  1.0000
  C   C2153     1.0  0.27508  0.63026  0.65798  1.0000
  C   C2154     1.0  0.27468  0.64937  0.65113  1.0000
  C   C2155     1.0  0.26798  0.66170  0.66343  1.0000
  C   C2156     1.0  0.26194  0.65494  0.68266  1.0000
  C   C2157     1.0  0.29238  0.62895  0.71574  1.0000
  C   C2158     1.0  0.38730  0.66574  0.74293  1.0000
  C   C2159     1.0  0.24145  0.64424  0.72737  1.0000
  C   C2160     1.0  0.24356  0.64473  0.74519  1.0000
  C   C2161     1.0  0.23094  0.65751  0.75537  1.0000
  C   C2162     1.0  0.21617  0.66986  0.74787  1.0000
  C   C2163     1.0  0.21382  0.66932  0.73034  1.0000
  C   C2164     1.0  0.22638  0.65654  0.72011  1.0000
  C   C2165     1.0  0.19233  0.77850  0.51659  1.0000
  H   H1719     1.0  0.27014  0.60854  0.68207  1.0000
  H   H1720     1.0  0.28065  0.62069  0.64843  1.0000
  H   H1721     1.0  0.28009  0.65454  0.63638  1.0000
  H   H1722     1.0  0.26792  0.67645  0.65807  1.0000
  H   H1723     1.0  0.25725  0.66475  0.69194  1.0000
  H   H1724     1.0  0.29154  0.64034  0.70356  1.0000
  H   H1725     1.0  0.39945  0.62504  0.72193  1.0000
  H   H1726     1.0  0.25472  0.63517  0.75144  1.0000
  H   H1727     1.0  0.23253  0.65785  0.76913  1.0000
  H   H1728     1.0  0.20651  0.67983  0.75565  1.0000
  H   H1729     1.0  0.20225  0.67890  0.72464  1.0000
  H   H1730     1.0  0.22421  0.65617  0.70661  1.0000
  H   H1731     1.0  0.32022  0.60108  0.58565  1.0000
  H   H1732     1.0  0.26182  0.60052  0.53363  1.0000
  C   C2166     1.0  0.11776  0.78280  0.66613  1.0000
  Fe  Fe155     1.0  0.43840  0.74087  0.92203  1.0000
  C   C2167     1.0  0.36081  0.62321  0.73452  1.0000
  C   C2168     1.0  0.27143  0.76601  0.69935  1.0000
  C   C2169     1.0  0.35729  0.74605  0.87536  1.0000
  C   C2170     1.0  0.36635  0.75993  0.86305  1.0000
  H   H1733     1.0  0.42427  0.65645  0.51984  1.0000
  C   C2171     1.0  0.42980  0.67956  0.84002  1.0000
  C   C2172     1.0  0.34146  0.68975  0.70752  1.0000
  H   H1734     1.0  0.43654  0.72973  0.82739  1.0000
  H   H1735     1.0  0.33093  0.73905  0.89091  1.0000
  H   H1736     1.0  0.36520  0.73202  0.87962  1.0000
  C   C2173     1.0  0.30030  0.62304  0.81874  1.0000
  C   C2174     1.0  0.30297  0.60931  0.80851  1.0000
  C   C2175     1.0  0.30179  0.61457  0.78962  1.0000
  H   H1737     1.0  0.30095  0.61899  0.83350  1.0000
  C   C2176     1.0  0.45038  0.64257  0.50468  1.0000
  H   H1738     1.0  0.30357  0.60383  0.78187  1.0000
  C   C2177     1.0  0.11472  0.67439  0.64346  1.0000
  C   C2178     1.0  0.13349  0.66648  0.64408  1.0000
  C   C2179     1.0  0.14675  0.67776  0.63740  1.0000
  H   H1739     1.0  0.03390  0.67107  0.59813  1.0000
  C   C2180     1.0  0.10930  0.69352  0.63582  1.0000
  H   H1740     1.0  0.10444  0.66561  0.64864  1.0000
  H   H1741     1.0  0.13788  0.65156  0.64941  1.0000
  H   H1742     1.0  0.16137  0.67159  0.63768  1.0000
  H   H1743     1.0  0.09475  0.69929  0.63530  1.0000
  C   C2181     1.0  0.09782  0.62089  0.77510  1.0000
  C   C2182     1.0  0.10076  0.60977  0.79253  1.0000
  C   C2183     1.0  0.09876  0.61813  0.80770  1.0000
  C   C2184     1.0  0.09303  0.63772  0.80536  1.0000
  P   P69       1.0  0.10242  0.60378  0.83027  1.0000
  C   C2185     1.0  0.11276  0.61567  0.84160  1.0000
  C   C2186     1.0  0.08031  0.59886  0.84484  1.0000
  C   C2187     1.0  0.06321  0.60944  0.84028  1.0000
  H   H1744     1.0  0.47799  0.66421  0.48587  1.0000
  H   H1745     1.0  0.42882  0.77301  0.85790  1.0000
  H   H1746     1.0  0.25538  0.77581  0.61343  1.0000
  H   H1747     1.0  0.16622  0.78151  0.76443  1.0000
  C   C2188     1.0  0.10936  0.61254  0.86129  1.0000
  C   C2189     1.0  0.11733  0.62178  0.86996  1.0000
  C   C2190     1.0  0.12887  0.63410  0.85912  1.0000
  C   C2191     1.0  0.13236  0.63730  0.83956  1.0000
  C   C2192     1.0  0.12455  0.62800  0.83080  1.0000
  H   H1748     1.0  0.14741  0.62704  0.95891  1.0000
  C   C2193     1.0  0.15901  0.73168  0.49240  1.0000
  H   H1749     1.0  0.02174  0.73352  0.61013  1.0000
  H   H1750     1.0  0.36056  0.63465  0.49873  1.0000
  H   H1751     1.0  0.26684  0.74503  0.78345  1.0000
  C   C2194     1.0  0.43777  0.58449  0.75529  1.0000
  H   H1752     1.0  0.10473  0.59467  0.79406  1.0000
  H   H1753     1.0  0.09085  0.64443  0.81702  1.0000
  H   H1754     1.0  0.06287  0.62075  0.82803  1.0000
  H   H1755     1.0  0.22206  0.71271  0.58521  1.0000
  Fe  Fe156     1.0  0.19205  0.76328  0.68976  1.0000
  C   C2195     1.0  0.27922  0.73153  0.76008  1.0000
  H   H1756     1.0  0.15912  0.77526  0.62818  1.0000
  H   H1757     1.0  0.17375  0.74803  0.50049  1.0000
  H   H1758     1.0  0.11502  0.61897  0.88514  1.0000
  H   H1759     1.0  0.13547  0.64080  0.86590  1.0000
  H   H1760     1.0  0.12792  0.63037  0.81562  1.0000
  H   H1761     1.0  0.26736  0.77778  0.76286  1.0000
  C   C2196     1.0  0.42023  0.59651  0.75528  1.0000
  H   H1762     1.0  0.36837  0.78073  0.95587  1.0000
  H   H1763     1.0  0.36562  0.70186  0.64641  1.0000
  C   C2197     1.0  0.29085  0.76066  0.69799  1.0000
  C   C2198     1.0  0.18200  0.77299  0.55806  1.0000
  C   C2199     1.0  0.21720  0.59397  0.73250  1.0000
  C   C2200     1.0  0.13768  0.65915  0.49808  1.0000
  H   H1764     1.0  0.35443  0.75346  0.91261  1.0000
  C   C2201     1.0  0.13484  0.75894  0.60614  1.0000
  H   H1765     1.0  0.47985  0.75892  0.84807  1.0000
  C   C2202     1.0  0.17593  0.61600  0.94638  1.0000
  H   H1766     1.0  0.10002  0.70732  0.56661  1.0000
  C   C2203     1.0  0.20515  0.72776  0.81755  1.0000
  C   C2204     1.0  0.34715  0.73416  0.83797  1.0000
  C   C2205     1.0  0.38495  0.61270  0.63449  1.0000
  H   H1767     1.0  0.37852  0.60979  0.68598  1.0000
  C   C2206     1.0  0.14513  0.77041  0.60905  1.0000
  Fe  Fe157     1.0  0.43698  0.70088  0.92335  1.0000
  H   H1768     1.0  0.11995  0.59212  0.69633  1.0000
  C   C2207     1.0  0.21418  0.64737  0.50130  1.0000
  H   H1769     1.0  0.14539  0.74045  0.49635  1.0000
  H   H1770     1.0  0.03306  0.61367  0.84812  1.0000
  C   C2208     1.0  0.13754  0.59316  0.71411  1.0000
  C   C2209     1.0  0.37983  0.67306  0.72663  1.0000
  C   C2210     1.0  0.33709  0.69943  0.75564  1.0000
  C   C2211     1.0  0.09019  0.64881  0.78790  1.0000
  H   H1771     1.0  0.32666  0.66384  0.93275  1.0000
  H   H1772     1.0  0.43486  0.73471  0.88311  1.0000
  H   H1773     1.0  0.23503  0.67921  0.59681  1.0000
  H   H1774     1.0  0.13449  0.64972  0.51155  1.0000
  H   H1775     1.0  0.16481  0.65920  0.50141  1.0000
  H   H1776     1.0  0.32210  0.60541  0.74490  1.0000
  C   C2212     1.0  0.36660  0.73203  0.83215  1.0000
  S   S304      1.0  0.21856  0.74849  0.67354  1.0000
  C   C2213     1.0  0.31630  0.68307  0.50670  1.0000
  C   C2214     1.0  0.35118  0.70543  0.86147  1.0000
  C   C2215     1.0  0.13052  0.74329  0.62009  1.0000
  H   H1777     1.0  0.21267  0.75082  0.84701  1.0000
  H   H1778     1.0  0.21507  0.64422  0.51596  1.0000
  H   H1779     1.0  0.03303  0.58792  0.87656  1.0000
  C   C2216     1.0  0.33134  0.60571  0.60708  1.0000
  C   C2217     1.0  0.41294  0.72305  0.88025  1.0000
  C   C2218     1.0  0.19621  0.76378  0.58533  1.0000
  H   H1780     1.0  0.19191  0.70268  0.53601  1.0000
  S   S305      1.0  0.18386  0.73694  0.70868  1.0000
  C   C2219     1.0  0.41756  0.63219  0.67498  1.0000
  C   C2220     1.0  0.32748  0.76791  0.87597  1.0000
  C   C2221     1.0  0.41680  0.74883  0.77298  1.0000
  C   C2222     1.0  0.32095  0.69251  0.75830  1.0000
  H   H1781     1.0  0.15155  0.74785  0.65295  1.0000
  H   H1782     1.0  0.26119  0.58956  0.84244  1.0000
  C   C2223     1.0  0.27708  0.74228  0.59783  1.0000
  S   S306      1.0  0.19575  0.73440  0.75857  1.0000
  H   H1783     1.0  0.41516  0.70381  0.79548  1.0000
  C   C2224     1.0  0.34291  0.61696  0.54514  1.0000
  C   C2225     1.0  0.39668  0.66048  0.96089  1.0000
  H   H1784     1.0  0.31239  0.77089  0.88068  1.0000
  C   C2226     1.0  0.29630  0.64750  0.79082  1.0000
  C   C2227     1.0  0.12265  0.70489  0.62876  1.0000
  C   C2228     1.0  0.28714  0.67304  0.52199  1.0000
  C   C2229     1.0  0.16639  0.62527  0.97644  1.0000
  C   C2230     1.0  0.39907  0.61137  0.64376  1.0000
  C   C2231     1.0  0.38173  0.69117  0.71640  1.0000
  C   C2232     1.0  0.35472  0.60940  0.74971  1.0000
  H   H1785     1.0  0.32440  0.72191  0.85639  1.0000
  H   H1786     1.0  0.09047  0.64904  0.75923  1.0000
  H   H1787     1.0  0.38126  0.75623  0.85765  1.0000
  C   C2233     1.0  0.21155  0.71245  0.54526  1.0000
  H   H1788     1.0  0.31341  0.69830  0.67634  1.0000
  Fe  Fe158     1.0  0.21150  0.72261  0.69377  1.0000
  H   H1789     1.0  0.24600  0.69413  0.73973  1.0000
  H   H1790     1.0  0.21818  0.62161  0.73328  1.0000
  H   H1791     1.0  0.24009  0.65799  0.89975  1.0000
  H   H1792     1.0  0.35578  0.59549  0.74771  1.0000
  C   C2234     1.0  0.20653  0.70286  0.53450  1.0000
  H   H1793     1.0  0.40025  0.67133  0.76255  1.0000
  C   C2235     1.0  0.28014  0.68103  0.50552  1.0000
  H   H1794     1.0  0.19182  0.72449  0.66476  1.0000
  C   C2236     1.0  0.40954  0.72694  0.80947  1.0000
  H   H1795     1.0  0.41772  0.61029  0.75838  1.0000
  P   P70       1.0  0.35203  0.59964  0.49572  1.0000
  H   H1796     1.0  0.31703  0.78254  0.66919  1.0000
  H   H1797     1.0  0.04000  0.75488  0.64981  1.0000
  C   C2237     1.0  0.24783  0.75090  0.76468  1.0000
  H   H1798     1.0  0.21814  0.73715  0.63067  1.0000
  C   C2238     1.0  0.48204  0.77702  0.96923  1.0000
  C   C2239     1.0  0.33373  0.59378  0.48835  1.0000
  C   C2240     1.0  0.31006  0.73701  0.58273  1.0000
  C   C2241     1.0  0.23860  0.75477  0.62045  1.0000
  C   C2242     1.0  0.41131  0.59418  0.64810  1.0000
  C   C2243     1.0  0.35838  0.59271  0.70137  1.0000
  H   H1799     1.0  0.21382  0.73395  0.78748  1.0000
  C   C2244     1.0  0.26127  0.59865  0.79596  1.0000
  C   C2245     1.0  0.40580  0.59062  0.75163  1.0000
  C   C2246     1.0  0.21276  0.74732  0.83396  1.0000
  C   C2247     1.0  0.06334  0.76321  0.57030  1.0000
  C   C2248     1.0  0.21609  0.62266  0.91196  1.0000
  C   C2249     1.0  0.20635  0.62840  0.89724  1.0000
  C   C2250     1.0  0.20905  0.64448  0.88341  1.0000
  C   C2251     1.0  0.22123  0.65510  0.88428  1.0000
  C   C2252     1.0  0.23049  0.64985  0.89919  1.0000
  C   C2253     1.0  0.22767  0.63389  0.91318  1.0000
  C   C2254     1.0  0.43663  0.66028  0.84107  1.0000
  H   H1800     1.0  0.42216  0.59314  0.65542  1.0000
  S   S307      1.0  0.43764  0.59325  0.50875  1.0000
  H   H1801     1.0  0.14348  0.59450  0.81877  1.0000
  H   H1802     1.0  0.19818  0.72472  0.84761  1.0000
  H   H1803     1.0  0.15072  0.76073  0.69254  1.0000
  C   C2255     1.0  0.30629  0.75198  0.56784  1.0000
  H   H1804     1.0  0.32427  0.72917  0.58280  1.0000
  H   H1805     1.0  0.29664  0.58764  0.75872  1.0000
  C   C2256     1.0  0.30960  0.69076  0.49012  1.0000
  Fe  Fe159     1.0  0.36554  0.75956  0.70357  1.0000
  H   H1806     1.0  0.19668  0.62052  0.89630  1.0000
  H   H1807     1.0  0.20200  0.64854  0.87174  1.0000
  H   H1808     1.0  0.22377  0.66717  0.87316  1.0000
  H   H1809     1.0  0.16611  0.75376  0.55617  1.0000
  H   H1810     1.0  0.36623  0.60310  0.52693  1.0000
  C   C2257     1.0  0.12642  0.76982  0.68000  1.0000
  C   C2258     1.0  0.29845  0.63356  0.78077  1.0000
  C   C2259     1.0  0.29690  0.64204  0.80998  1.0000
  C   C2260     1.0  0.18896  0.74753  0.59121  1.0000
  C   C2261     1.0  0.35895  0.76597  0.91242  1.0000
  H   H1811     1.0  0.30585  0.59460  0.81523  1.0000
  H   H1812     1.0  0.42135  0.72320  0.76356  1.0000
  C   C2262     1.0  0.06693  0.77977  0.53778  1.0000
  C   C2263     1.0  0.33944  0.72079  0.85253  1.0000
  H   H1813     1.0  0.14142  0.64677  0.83121  1.0000
  C   C2264     1.0  0.22094  0.75320  0.79981  1.0000
  C   C2265     1.0  0.35304  0.61912  0.67542  1.0000
  C   C2266     1.0  0.22044  0.75130  0.62745  1.0000
  C   C2267     1.0  0.40076  0.63163  0.70719  1.0000
  H   H1814     1.0  0.41856  0.77164  0.95696  1.0000
  P   P71       1.0  0.29358  0.67211  0.77938  1.0000
  C   C2268     1.0  0.26682  0.68531  0.75665  1.0000
  C   C2269     1.0  0.37760  0.58503  0.57697  1.0000
  C   C2270     1.0  0.34828  0.69288  0.76899  1.0000
  C   C2271     1.0  0.19277  0.77648  0.56884  1.0000
  H   H1815     1.0  0.29774  0.63712  0.76613  1.0000
  H   H1816     1.0  0.29500  0.65247  0.81816  1.0000
  H   H1817     1.0  0.32197  0.71420  0.69671  1.0000
  S   S308      1.0  0.07037  0.77997  0.51389  1.0000
  C   C2272     1.0  0.40550  0.71749  0.86805  1.0000
  C   C2273     1.0  0.32804  0.69948  0.69676  1.0000
  C   C2274     1.0  0.30823  0.62412  0.72356  1.0000
  C   C2275     1.0  0.33103  0.67164  0.68522  1.0000
  C   C2276     1.0  0.11979  0.73006  0.59187  1.0000
  P   P72       1.0  0.21272  0.60186  0.92990  1.0000
  C   C2277     1.0  0.26070  0.77843  0.71086  1.0000
  C   C2278     1.0  0.32370  0.62454  0.54863  1.0000
  C   C2279     1.0  0.30505  0.67425  0.52264  1.0000
  H   H1818     1.0  0.25711  0.69100  0.76807  1.0000
  C   C2280     1.0  0.15134  0.76627  0.62582  1.0000
  H   H1819     1.0  0.29623  0.70196  0.79684  1.0000
  H   H1820     1.0  0.35088  0.64744  0.69519  1.0000
  H   H1821     1.0  0.25879  0.67010  0.61621  1.0000
  C   C2281     1.0  0.08815  0.70398  0.57759  1.0000
  H   H1822     1.0  0.25584  0.61610  0.81600  1.0000
  H   H1823     1.0  0.25825  0.61033  0.78451  1.0000
  H   H1824     1.0  0.31995  0.69623  0.91433  1.0000
  H   H1825     1.0  0.44980  0.73900  0.84921  1.0000
  H   H1826     1.0  0.31725  0.63135  0.56046  1.0000
  C   C2282     1.0  0.34450  0.66192  0.69586  1.0000
  S   S309      1.0  0.37492  0.61596  0.82187  1.0000
  C   C2283     1.0  0.37771  0.76715  0.90543  1.0000
  H   H1827     1.0  0.01420  0.76777  0.60821  1.0000
  C   C2284     1.0  0.25141  0.71761  0.61008  1.0000
  S   S310      1.0  0.44016  0.69134  0.95347  1.0000
  S   S311      1.0  0.43604  0.77106  0.90656  1.0000
  C   C2285     1.0  0.25977  0.60187  0.81373  1.0000
  C   C2286     1.0  0.27329  0.75699  0.58256  1.0000
  C   C2287     1.0  0.14138  0.69684  0.62968  1.0000
  H   H1828     1.0  0.44932  0.65343  0.84626  1.0000
  S   S312      1.0  0.44046  0.73500  0.95216  1.0000
  H   H1829     1.0  0.33021  0.68395  0.50725  1.0000
  H   H1830     1.0  0.35513  0.69251  0.82400  1.0000
  H   H1831     1.0  0.35781  0.63063  0.66494  1.0000
  C   C2288     1.0  0.01629  0.77477  0.57831  1.0000
  H   H1832     1.0  0.06277  0.75028  0.58069  1.0000
  S   S313      1.0  0.34480  0.75054  0.72967  1.0000
  C   C2289     1.0  0.26970  0.70878  0.81490  1.0000
  S   S314      1.0  0.46103  0.71620  0.91518  1.0000
  C   C2290     1.0  0.29959  0.76775  0.70804  1.0000
  H   H1833     1.0  0.41094  0.77220  0.78628  1.0000
  H   H1834     1.0  0.14172  0.70485  0.59158  1.0000
  C   C2291     1.0  0.37722  0.66660  0.96409  1.0000
  S   S315      1.0  0.41446  0.72626  0.92832  1.0000
  H   H1835     1.0  0.37756  0.70922  0.80014  1.0000
  H   H1836     1.0  0.32315  0.66312  0.80097  1.0000
  H   H1837     1.0  0.22619  0.74051  0.50644  1.0000
  C   C2292     1.0  0.01809  0.71210  0.55060  1.0000
  C   C2293     1.0  0.20464  0.73258  0.83433  1.0000
  C   C2294     1.0  0.42101  0.65124  0.49434  1.0000
  C   C2295     1.0  0.44857  0.77729  0.88353  1.0000
  C   C2296     1.0  0.42879  0.73095  0.87348  1.0000
  H   H1838     1.0  0.32230  0.72289  0.92651  1.0000
  C   C2297     1.0  0.27248  0.68070  0.72493  1.0000
  H   H1839     1.0  0.09822  0.74993  0.64697  1.0000
  H   H1840     1.0  0.26737  0.68221  0.71238  1.0000
  C   C2298     1.0  0.25168  0.70527  0.82191  1.0000
  C   C2299     1.0  0.37155  0.77122  0.96863  1.0000
  H   H1841     1.0  0.37548  0.62603  0.63114  1.0000
  H   H1842     1.0  0.39463  0.69156  0.92441  1.0000
  C   C2300     1.0  0.39559  0.68335  0.91430  1.0000
  C   C2301     1.0  0.32706  0.67278  0.78796  1.0000
  C   C2302     1.0  0.24629  0.69192  0.81588  1.0000
  C   C2303     1.0  0.13340  0.71639  0.58338  1.0000
  C   C2304     1.0  0.13644  0.71748  0.56406  1.0000
  C   C2305     1.0  0.06876  0.75315  0.65004  1.0000
  H   H1843     1.0  0.38775  0.75558  0.90013  1.0000
  C   C2306     1.0  0.29105  0.67207  0.72580  1.0000
  H   H1844     1.0  0.44663  0.77885  0.82490  1.0000
  H   H1845     1.0  0.28105  0.58578  0.92708  1.0000
  C   C2307     1.0  0.39769  0.66181  0.88836  1.0000
  H   H1846     1.0  0.39870  0.65340  0.87842  1.0000
  C   C2308     1.0  0.25915  0.69858  0.61608  1.0000
  C   C2309     1.0  0.34342  0.67936  0.78501  1.0000
  H   H1847     1.0  0.25774  0.73300  0.72537  1.0000
  H   H1848     1.0  0.40138  0.70412  0.74541  1.0000
  C   C2310     1.0  0.29753  0.66989  0.74212  1.0000
  H   H1849     1.0  0.19131  0.76307  0.63718  1.0000
  C   C2311     1.0  0.41206  0.75720  0.78848  1.0000
  C   C2312     1.0  0.41340  0.72046  0.84877  1.0000
  H   H1850     1.0  0.08088  0.72767  0.60870  1.0000
  C   C2313     1.0  0.14706  0.75080  0.63979  1.0000
  H   H1851     1.0  0.31195  0.66299  0.74259  1.0000
  H   H1852     1.0  0.33598  0.65764  0.96307  1.0000
  C   C2314     1.0  0.08749  0.74713  0.64172  1.0000
  C   C2315     1.0  0.12609  0.73230  0.55300  1.0000
  H   H1853     1.0  0.12830  0.73300  0.53805  1.0000
  C   C2316     1.0  0.05451  0.74970  0.64371  1.0000
  C   C2317     1.0  0.36472  0.60733  0.68736  1.0000
  P   P73       1.0  0.23009  0.76697  0.77729  1.0000
  C   C2318     1.0  0.38801  0.64803  0.70130  1.0000
  C   C2319     1.0  0.10951  0.74498  0.58063  1.0000
  C   C2320     1.0  0.32366  0.69377  0.92782  1.0000
  H   H1854     1.0  0.38149  0.66997  0.67733  1.0000
  H   H1855     1.0  0.40277  0.65042  0.82550  1.0000
  C   C2321     1.0  0.25314  0.68480  0.61135  1.0000
  C   C2322     1.0  0.41395  0.66636  0.89028  1.0000
  C   C2323     1.0  0.41307  0.67700  0.90336  1.0000
  H   H1856     1.0  0.29920  0.75116  0.68896  1.0000
  C   C2324     1.0  0.17458  0.75668  0.56418  1.0000
  C   C2325     1.0  0.22097  0.75755  0.81679  1.0000
  C   C2326     1.0  0.33434  0.68692  0.96234  1.0000
  H   H1857     1.0  0.41908  0.75734  0.75886  1.0000
  C   C2327     1.0  0.33054  0.70532  0.95178  1.0000
  H   H1858     1.0  0.14946  0.71296  0.67938  1.0000
  C   C2328     1.0  0.11272  0.74608  0.56127  1.0000
  H   H1859     1.0  0.10474  0.75759  0.55268  1.0000
  C   C2329     1.0  0.23851  0.72268  0.59832  1.0000
  H   H1860     1.0  0.36049  0.69861  0.76714  1.0000
  H   H1861     1.0  0.35147  0.65874  0.75747  1.0000
  H   H1862     1.0  0.02115  0.77750  0.54839  1.0000
  C   C2330     1.0  0.28789  0.76191  0.56769  1.0000
  C   C2331     1.0  0.05900  0.74020  0.62901  1.0000
  H   H1863     1.0  0.31019  0.66842  0.53556  1.0000
  H   H1864     1.0  0.20247  0.59557  0.73908  1.0000
  H   H1865     1.0  0.42737  0.66136  0.88177  1.0000
  H   H1866     1.0  0.17225  0.73146  0.58554  1.0000
  P   P74       1.0  0.11632  0.72905  0.61674  1.0000
  C   C2332     1.0  0.09212  0.73785  0.62675  1.0000
  C   C2333     1.0  0.07771  0.73452  0.62039  1.0000
  C   C2334     1.0  0.41449  0.71861  0.79381  1.0000
  H   H1867     1.0  0.39400  0.71031  0.87389  1.0000
  H   H1868     1.0  0.39061  0.68439  0.82354  1.0000
  P   P75       1.0  0.40373  0.71322  0.83301  1.0000
  H   H1869     1.0  0.40044  0.62373  0.64752  1.0000
  C   C2335     1.0  0.23988  0.68994  0.60014  1.0000
  C   C2336     1.0  0.40848  0.74631  0.80667  1.0000
  H   H1870     1.0  0.33807  0.74565  0.83052  1.0000
  H   H1871     1.0  0.37215  0.74190  0.82012  1.0000
  H   H1872     1.0  0.10085  0.60279  0.87012  1.0000
  H   H1873     1.0  0.15187  0.70528  0.62405  1.0000
  H   H1874     1.0  0.27724  0.59402  0.63046  1.0000
  H   H1875     1.0  0.04795  0.73816  0.62364  1.0000
  H   H1876     1.0  0.09909  0.75584  0.58678  1.0000
  Fe  Fe160     1.0  0.40645  0.60265  0.51425  1.0000
  H   H1877     1.0  0.40464  0.75304  0.81853  1.0000
  C   C2337     1.0  0.37062  0.70333  0.85574  1.0000
  S   S316      1.0  0.43414  0.68185  0.90556  1.0000
  C   C2338     1.0  0.25958  0.73553  0.73816  1.0000
  H   H1878     1.0  0.26984  0.69437  0.62434  1.0000
  H   H1879     1.0  0.12998  0.76260  0.59314  1.0000
  P   P76       1.0  0.25828  0.73555  0.61682  1.0000
  H   H1880     1.0  0.06537  0.76081  0.66121  1.0000
  C   C2339     1.0  0.40354  0.67786  0.82834  1.0000
  C   C2340     1.0  0.30974  0.60930  0.73907  1.0000
  C   C2341     1.0  0.22572  0.63579  0.48928  1.0000
  H   H1881     1.0  0.31461  0.76376  0.70668  1.0000
  H   H1882     1.0  0.31764  0.75575  0.55636  1.0000
  C   C2342     1.0  0.37853  0.71661  0.84101  1.0000
  C   C2343     1.0  0.20302  0.78106  0.48286  1.0000
  C   C2344     1.0  0.21211  0.59921  0.68743  1.0000
  C   C2345     1.0  0.12794  0.60047  0.69943  1.0000
  H   H1883     1.0  0.11083  0.66229  0.49167  1.0000
  H   H1884     1.0  0.15625  0.59745  0.72872  1.0000
  C   C2346     1.0  0.33647  0.78187  0.86377  1.0000
  C   C2347     1.0  0.45936  0.63496  0.48872  1.0000
  H   H1885     1.0  0.33804  0.61675  0.59773  1.0000
  Fe  Fe161     1.0  0.33120  0.78113  0.72566  1.0000
  C   C2348     1.0  0.21192  0.77886  0.76421  1.0000
  C   C2349     1.0  0.34055  0.58958  0.70314  1.0000
  H   H1886     1.0  0.28497  0.77336  0.55602  1.0000
  C   C2350     1.0  0.36458  0.63348  0.48418  1.0000
  C   C2351     1.0  0.36764  0.67555  0.97908  1.0000
  H   H1887     1.0  0.22732  0.76872  0.81692  1.0000
  H   H1888     1.0  0.22432  0.58974  0.89411  1.0000
  H   H1889     1.0  0.20497  0.72780  0.49140  1.0000
  C   C2352     1.0  0.24961  0.58875  0.63922  1.0000
  C   C2353     1.0  0.32136  0.59684  0.60022  1.0000
  H   H1890     1.0  0.40179  0.78108  0.93142  1.0000
  C   C2354     1.0  0.21541  0.76375  0.48581  1.0000
  C   C2355     1.0  0.35269  0.58969  0.83215  1.0000
  C   C2356     1.0  0.35601  0.77809  0.85745  1.0000
  C   C2357     1.0  0.34612  0.78080  0.91949  1.0000
  H   H1891     1.0  0.19238  0.58983  0.61985  1.0000
  S   S317      1.0  0.09572  0.78120  0.66394  1.0000
  H   H1892     1.0  0.14804  0.71372  0.48230  1.0000
  C   C2358     1.0  0.19365  0.77557  0.77051  1.0000
  H   H1893     1.0  0.13224  0.58694  0.90632  1.0000
  C   C2359     1.0  0.38314  0.59697  0.62932  1.0000
  H   H1894     1.0  0.21602  0.58469  0.68609  1.0000
  C   C2360     1.0  0.38370  0.78301  0.90576  1.0000
  C   C2361     1.0  0.40188  0.78261  0.85036  1.0000
  C   C2362     1.0  0.43147  0.78205  0.82796  1.0000
  C   C2363     1.0  0.15240  0.58426  0.88046  1.0000
  C   C2364     1.0  0.08004  0.58438  0.86095  1.0000
  H   H1895     1.0  0.39838  0.78349  0.90058  1.0000
  C   C2365     1.0  0.19218  0.58422  0.78558  1.0000
  Fe  Fe162     1.0  0.15571  0.84358  0.41039  1.0000
  S   S318      1.0  0.18245  0.85393  0.40206  1.0000
  S   S319      1.0  0.13367  0.85786  0.39303  1.0000
  Fe  Fe163     1.0  0.17847  0.85430  0.43267  1.0000
  S   S320      1.0  0.17829  0.88138  0.44069  1.0000
  S   S321      1.0  0.15067  0.84590  0.44041  1.0000
  S   S322      1.0  0.09926  0.80552  0.36465  1.0000
  H   H1896     1.0  0.99715  0.88845  0.38351  1.0000
  H   H1897     1.0  0.40576  0.84739  0.18801  1.0000
  H   H1898     1.0  0.15319  0.81805  0.33033  1.0000
  H   H1899     1.0  0.14185  0.81773  0.39628  1.0000
  H   H1900     1.0  0.26613  0.83693  0.36193  1.0000
  C   C2366     1.0  0.00110  0.91726  0.29886  1.0000
  P   P77       1.0  0.08192  0.83745  0.45448  1.0000
  H   H1901     1.0  0.35935  0.84690  0.08816  1.0000
  H   H1902     1.0  0.14295  0.80258  0.28248  1.0000
  H   H1903     1.0  0.99673  0.84686  0.31825  1.0000
  C   C2367     1.0  0.15224  0.79130  0.17076  1.0000
  Fe  Fe164     1.0  0.06484  0.85623  0.31818  1.0000
  H   H1904     1.0  0.32296  0.96334  0.99016  1.0000
  S   S323      1.0  0.05626  0.88727  0.31748  1.0000
  S   S324      1.0  0.05486  0.83810  0.34578  1.0000
  S   S325      1.0  0.09447  0.83957  0.31548  1.0000
  H   H1905     1.0  0.22521  0.82644  0.31234  1.0000
  C   C2368     1.0  0.13119  0.82388  0.38819  1.0000
  C   C2369     1.0  0.99313  0.82114  0.42870  1.0000
  C   C2370     1.0  0.14958  0.92188  0.41667  1.0000
  C   C2371     1.0  0.43162  0.83336  0.99749  1.0000
  C   C2372     1.0  0.00080  0.86585  0.33243  1.0000
  S   S326      1.0  0.38922  0.82044  0.00882  1.0000
  S   S327      1.0  0.36539  0.83365  0.04826  1.0000
  Fe  Fe165     1.0  0.48275  0.84544  0.12453  1.0000
  H   H1906     1.0  0.13860  0.87802  0.46830  1.0000
  C   C2373     1.0  0.40843  0.81292  0.12903  1.0000
  Fe  Fe166     1.0  0.45517  0.83546  0.10684  1.0000
  S   S328      1.0  0.43765  0.84660  0.08462  1.0000
  S   S329      1.0  0.45114  0.84972  0.13072  1.0000
  C   C2374     1.0  0.34336  0.80630  0.10085  1.0000
  C   C2375     1.0  0.41332  0.82605  0.05498  1.0000
  C   C2376     1.0  0.42046  0.83795  0.06145  1.0000
  C   C2377     1.0  0.43053  0.83078  0.07582  1.0000
  C   C2378     1.0  0.43409  0.81143  0.08318  1.0000
  H   H1907     1.0  0.37991  0.93586  0.99221  1.0000
  H   H1908     1.0  0.40581  0.83172  0.04369  1.0000
  H   H1909     1.0  0.41833  0.85278  0.05521  1.0000
  C   C2379     1.0  0.06349  0.91732  0.45742  1.0000
  H   H1910     1.0  0.15729  0.78666  0.14270  1.0000
  H   H1911     1.0  0.28355  0.96593  0.09118  1.0000
  H   H1912     1.0  0.47155  0.80816  0.02431  1.0000
  C   C2380     1.0  0.04281  0.84842  0.45867  1.0000
  H   H1913     1.0  0.07619  0.84322  0.41645  1.0000
  S   S330      1.0  0.22057  0.80995  0.38901  1.0000
  C   C2381     1.0  0.38612  0.83690  0.17965  1.0000
  H   H1914     1.0  0.14337  0.82878  0.17747  1.0000
  H   H1915     1.0  0.34282  0.88160  0.00187  1.0000
  C   C2382     1.0  0.03504  0.89848  0.31016  1.0000
  C   C2383     1.0  0.02841  0.89150  0.29832  1.0000
  H   H1916     1.0  0.03639  0.87905  0.29329  1.0000
  H   H1917     1.0  0.02978  0.92018  0.32535  1.0000
  H   H1918     1.0  0.15051  0.85899  0.25975  1.0000
  C   C2384     1.0  0.45106  0.83332  0.01826  1.0000
  C   C2385     1.0  0.29280  0.79406  0.07871  1.0000
  C   C2386     1.0  0.07364  0.91265  0.34638  1.0000
  C   C2387     1.0  0.04526  0.80751  0.40362  1.0000
  H   H1919     1.0  0.31443  0.79982  0.31948  1.0000
  C   C2388     1.0  0.00304  0.78522  0.35238  1.0000
  C   C2389     1.0  0.18089  0.88359  0.46261  1.0000
  C   C2390     1.0  0.10369  0.79039  0.27560  1.0000
  C   C2391     1.0  0.08651  0.87390  0.43627  1.0000
  H   H1920     1.0  0.00451  0.80915  0.42708  1.0000
  H   H1921     1.0  0.18200  0.79474  0.25429  1.0000
  H   H1922     1.0  0.16830  0.91307  0.45813  1.0000
  H   H1923     1.0  0.25922  0.80977  0.35504  1.0000
  C   C2392     1.0  0.12524  0.84333  0.38389  1.0000
  C   C2393     1.0  0.11206  0.85131  0.37250  1.0000
  C   C2394     1.0  0.10423  0.83983  0.36615  1.0000
  C   C2395     1.0  0.27668  0.82881  0.35266  1.0000
  Fe  Fe167     1.0  0.36337  0.81152  0.00854  1.0000
  H   H1924     1.0  0.38662  0.82520  0.09984  1.0000
  H   H1925     1.0  0.10774  0.86637  0.36883  1.0000
  H   H1926     1.0  0.09381  0.84606  0.35761  1.0000
  C   C2396     1.0  0.12704  0.91288  0.44523  1.0000
  C   C2397     1.0  0.11133  0.81367  0.43560  1.0000
  H   H1927     1.0  0.13341  0.88483  0.41431  1.0000
  H   H1928     1.0  0.15555  0.90520  0.39579  1.0000
  H   H1929     1.0  0.42479  0.78651  0.12253  1.0000
  H   H1930     1.0  0.32057  0.80157  0.03507  1.0000
  C   C2398     1.0  0.07877  0.85610  0.41802  1.0000
  H   H1931     1.0  0.15967  0.93043  0.40876  1.0000
  H   H1932     1.0  0.14185  0.93534  0.44003  1.0000
  C   C2399     1.0  0.16037  0.79193  0.18523  1.0000
  C   C2400     1.0  0.13482  0.89613  0.41983  1.0000
  S   S331      1.0  0.43658  0.81007  0.17629  1.0000
  H   H1933     1.0  0.13519  0.83316  0.26160  1.0000
  H   H1934     1.0  0.12772  0.79725  0.38576  1.0000
  C   C2401     1.0  0.08136  0.92029  0.45588  1.0000
  C   C2402     1.0  0.09779  0.92700  0.35845  1.0000
  C   C2403     1.0  0.30563  0.80202  0.06359  1.0000
  H   H1935     1.0  0.38596  0.79184  0.11286  1.0000
  C   C2404     1.0  0.02460  0.96691  0.32465  1.0000
  S   S332      1.0  0.10476  0.81327  0.27557  1.0000
  C   C2405     1.0  0.12795  0.82557  0.22473  1.0000
  C   C2406     1.0  0.11985  0.84447  0.22471  1.0000
  C   C2407     1.0  0.12041  0.85764  0.20774  1.0000
  C   C2408     1.0  0.12904  0.85189  0.19080  1.0000
  C   C2409     1.0  0.13699  0.83293  0.19078  1.0000
  C   C2410     1.0  0.02274  0.80600  0.38676  1.0000
  C   C2411     1.0  0.17741  0.78632  0.24751  1.0000
  C   C2412     1.0  0.13949  0.92453  0.43453  1.0000
  P   P78       1.0  0.36084  0.82298  0.16888  1.0000
  C   C2413     1.0  0.01150  0.90089  0.29265  1.0000
  C   C2414     1.0  0.35908  0.83221  0.09378  1.0000
  C   C2415     1.0  0.07841  0.87158  0.40298  1.0000
  H   H1936     1.0  0.29697  0.84581  0.34774  1.0000
  C   C2416     1.0  0.99009  0.85900  0.32433  1.0000
  C   C2417     1.0  0.11396  0.93880  0.47152  1.0000
  C   C2418     1.0  0.33304  0.95332  0.99767  1.0000
  C   C2419     1.0  0.03308  0.96635  0.29153  1.0000
  H   H1937     1.0  0.11580  0.88912  0.44593  1.0000
  C   C2420     1.0  0.41623  0.80685  0.06283  1.0000
  H   H1938     1.0  0.44231  0.80567  0.09383  1.0000
  H   H1939     1.0  0.20623  0.78418  0.16241  1.0000
  H   H1940     1.0  0.11287  0.84877  0.23789  1.0000
  H   H1941     1.0  0.11401  0.87228  0.20774  1.0000
  H   H1942     1.0  0.12939  0.86210  0.17763  1.0000
  C   C2421     1.0  0.37440  0.81999  0.10041  1.0000
  S   S333      1.0  0.48637  0.81719  0.14424  1.0000
  H   H1943     1.0  0.31345  0.97312  0.07072  1.0000
  C   C2422     1.0  0.02441  0.84744  0.46827  1.0000
  C   C2423     1.0  0.43653  0.84244  0.00879  1.0000
  C   C2424     1.0  0.17180  0.82526  0.29187  1.0000
  H   H1944     1.0  0.37672  0.79349  0.19719  1.0000
  S   S334      1.0  0.45706  0.80657  0.12464  1.0000
  H   H1945     1.0  0.04862  0.83522  0.40254  1.0000
  H   H1946     1.0  0.12725  0.81554  0.23801  1.0000
  C   C2425     1.0  0.10962  0.82030  0.37125  1.0000
  H   H1947     1.0  0.42897  0.85650  0.01028  1.0000
  H   H1948     1.0  0.05795  0.94626  0.28298  1.0000
  H   H1949     1.0  0.03925  0.78889  0.31461  1.0000
  C   C2426     1.0  0.01846  0.82559  0.38179  1.0000
  C   C2427     1.0  0.29278  0.95601  0.08296  1.0000
  Fe  Fe168     1.0  0.38401  0.80774  0.03957  1.0000
  H   H1950     1.0  0.08809  0.92836  0.44288  1.0000
  H   H1951     1.0  0.00006  0.93705  0.31523  1.0000
  C   C2428     1.0  0.31097  0.79530  0.04696  1.0000
  C   C2429     1.0  0.42673  0.79952  0.07687  1.0000
  H   H1952     1.0  0.25590  0.81871  0.32067  1.0000
  C   C2430     1.0  0.07947  0.93713  0.35795  1.0000
  H   H1953     1.0  0.42033  0.84055  0.99021  1.0000
  H   H1954     1.0  0.32098  0.82715  0.32652  1.0000
  H   H1955     1.0  0.45488  0.84032  0.02709  1.0000
  C   C2431     1.0  0.12328  0.81235  0.38207  1.0000
  Fe  Fe169     1.0  0.04817  0.82174  0.32856  1.0000
  Fe  Fe170     1.0  0.36945  0.84601  0.01738  1.0000
  C   C2432     1.0  0.02760  0.83615  0.38766  1.0000
  S   S335      1.0  0.38161  0.87191  0.00507  1.0000
  H   H1956     1.0  0.33191  0.83471  0.08834  1.0000
  H   H1957     1.0  0.02469  0.85129  0.38322  1.0000
  P   P79       1.0  0.14594  0.79491  0.20796  1.0000
  S   S336      1.0  0.05623  0.84110  0.30104  1.0000
  S   S337      1.0  0.16981  0.81313  0.41572  1.0000
  C   C2433     1.0  0.34362  0.82534  0.09390  1.0000
  H   H1958     1.0  0.01531  0.85893  0.33242  1.0000
  C   C2434     1.0  0.99471  0.83489  0.43709  1.0000
  S   S338      1.0  0.40714  0.79186  0.05496  1.0000
  C   C2435     1.0  0.17469  0.90121  0.46764  1.0000
  C   C2436     1.0  0.39270  0.82175  0.14043  1.0000
  C   C2437     1.0  0.34507  0.83418  0.15305  1.0000
  C   C2438     1.0  0.36755  0.83952  0.17789  1.0000
  C   C2439     1.0  0.35407  0.85450  0.18422  1.0000
  C   C2440     1.0  0.35929  0.86712  0.19150  1.0000
  C   C2441     1.0  0.37792  0.86468  0.19276  1.0000
  H   H1959     1.0  0.07563  0.87055  0.38997  1.0000
  C   C2442     1.0  0.16354  0.78784  0.15358  1.0000
  C   C2443     1.0  0.34424  0.85301  0.14366  1.0000
  C   C2444     1.0  0.33235  0.86135  0.13099  1.0000
  C   C2445     1.0  0.32138  0.85090  0.12750  1.0000
  C   C2446     1.0  0.32255  0.83201  0.13640  1.0000
  C   C2447     1.0  0.33460  0.82359  0.14886  1.0000
  C   C2448     1.0  0.36925  0.88994  0.99006  1.0000
  C   C2449     1.0  0.46026  0.81492  0.01690  1.0000
  C   C2450     1.0  0.08266  0.85721  0.43485  1.0000
  S   S339      1.0  0.01957  0.81513  0.33922  1.0000
  H   H1960     1.0  0.18198  0.82334  0.30029  1.0000
  H   H1961     1.0  0.00541  0.80723  0.26952  1.0000
  C   C2451     1.0  0.23248  0.81192  0.31528  1.0000
  S   S340      1.0  0.36040  0.79562  0.03840  1.0000
  C   C2452     1.0  0.01714  0.79285  0.33887  1.0000
  H   H1962     1.0  0.42908  0.78466  0.08294  1.0000
  Fe  Fe171     1.0  0.08492  0.82269  0.30081  1.0000
  H   H1963     1.0  0.33956  0.85639  0.18355  1.0000
  H   H1964     1.0  0.34889  0.87875  0.19626  1.0000
  H   H1965     1.0  0.38201  0.87443  0.19838  1.0000
  C   C2453     1.0  0.08251  0.88806  0.40439  1.0000
  H   H1966     1.0  0.39670  0.82507  0.17554  1.0000
  H   H1967     1.0  0.35296  0.86118  0.14585  1.0000
  H   H1968     1.0  0.33180  0.87586  0.12372  1.0000
  H   H1969     1.0  0.31226  0.85730  0.11760  1.0000
  H   H1970     1.0  0.31447  0.82375  0.13329  1.0000
  C   C2454     1.0  0.04130  0.97870  0.35538  1.0000
  C   C2455     1.0  0.15420  0.84547  0.26888  1.0000
  C   C2456     1.0  0.39130  0.84952  0.18690  1.0000
  C   C2457     1.0  0.04882  0.95227  0.29457  1.0000
  C   C2458     1.0  0.16789  0.81065  0.35280  1.0000
  H   H1971     1.0  0.38974  0.83689  0.13839  1.0000
  C   C2459     1.0  0.16735  0.84263  0.27984  1.0000
  S   S341      1.0  0.35973  0.80194  0.98433  1.0000
  Fe  Fe172     1.0  0.16760  0.81651  0.44482  1.0000
  C   C2460     1.0  0.99612  0.81721  0.27763  1.0000
  C   C2461     1.0  0.44071  0.81489  0.99620  1.0000
  H   H1972     1.0  0.08750  0.98333  0.46858  1.0000
  S   S342      1.0  0.19525  0.82476  0.43928  1.0000
  C   C2462     1.0  0.04015  0.95247  0.32795  1.0000
  C   C2463     1.0  0.11425  0.97426  0.47655  1.0000
  C   C2464     1.0  0.16304  0.81061  0.29309  1.0000
  C   C2465     1.0  0.12482  0.89865  0.43773  1.0000
  P   P80       1.0  0.11405  0.91580  0.46846  1.0000
  S   S343      1.0  0.34382  0.83821  0.01453  1.0000
  C   C2466     1.0  0.35866  0.79393  0.10765  1.0000
  Fe  Fe173     1.0  0.19636  0.82346  0.40947  1.0000
  H   H1973     1.0  0.20142  0.79840  0.27952  1.0000
  Fe  Fe174     1.0  0.45522  0.82013  0.14827  1.0000
  C   C2467     1.0  0.29402  0.83378  0.34467  1.0000
  C   C2468     1.0  0.30764  0.86915  0.05904  1.0000
  C   C2469     1.0  0.30187  0.87056  0.04253  1.0000
  C   C2470     1.0  0.30473  0.88564  0.02745  1.0000
  C   C2471     1.0  0.31351  0.89922  0.02881  1.0000
  C   C2472     1.0  0.31976  0.89763  0.04521  1.0000
  C   C2473     1.0  0.31665  0.88252  0.06036  1.0000
  P   P81       1.0  0.33189  0.91444  0.04717  1.0000
  C   C2474     1.0  0.35164  0.90110  0.05746  1.0000
  C   C2475     1.0  0.34000  0.92845  0.02442  1.0000
  C   C2476     1.0  0.35916  0.92632  0.01607  1.0000
  H   H1974     1.0  0.00197  0.88791  0.34477  1.0000
  C   C2477     1.0  0.35038  0.80739  0.18926  1.0000
  H   H1975     1.0  0.21109  0.80126  0.31007  1.0000
  H   H1976     1.0  0.41746  0.82128  0.11849  1.0000
  C   C2478     1.0  0.35667  0.90672  0.07143  1.0000
  C   C2479     1.0  0.37214  0.89609  0.07906  1.0000
  C   C2480     1.0  0.38263  0.87984  0.07279  1.0000
  C   C2481     1.0  0.37763  0.87422  0.05892  1.0000
  C   C2482     1.0  0.36222  0.88475  0.05132  1.0000
  C   C2483     1.0  0.31656  0.93045  0.06145  1.0000
  C   C2484     1.0  0.29959  0.92650  0.07302  1.0000
  C   C2485     1.0  0.28777  0.93925  0.08374  1.0000
  C   C2486     1.0  0.18083  0.79718  0.36213  1.0000
  C   C2487     1.0  0.09255  0.81643  0.44524  1.0000
  C   C2488     1.0  0.32146  0.94735  0.06071  1.0000
  H   H1977     1.0  0.30534  0.85747  0.07071  1.0000
  H   H1978     1.0  0.29537  0.85981  0.04141  1.0000
  H   H1979     1.0  0.00733  0.83344  0.44200  1.0000
  H   H1980     1.0  0.31581  0.91057  0.01683  1.0000
  H   H1981     1.0  0.32138  0.88096  0.07313  1.0000
  H   H1982     1.0  0.36955  0.91572  0.02263  1.0000
  C   C2489     1.0  0.10952  0.78891  0.22456  1.0000
  H   H1983     1.0  0.11963  0.82402  0.43355  1.0000
  H   H1984     1.0  0.09677  0.88942  0.34216  1.0000
  H   H1985     1.0  0.00845  0.83253  0.37289  1.0000
  H   H1986     1.0  0.34885  0.91930  0.07637  1.0000
  H   H1987     1.0  0.37618  0.90053  0.08967  1.0000
  H   H1988     1.0  0.39477  0.87171  0.07853  1.0000
  H   H1989     1.0  0.38576  0.86179  0.05381  1.0000
  H   H1990     1.0  0.35870  0.88024  0.04043  1.0000
  H   H1991     1.0  0.29528  0.91375  0.07369  1.0000
  H   H1992     1.0  0.27462  0.93620  0.09254  1.0000
  H   H1993     1.0  0.13445  0.79461  0.42235  1.0000
  H   H1994     1.0  0.01550  0.79802  0.38212  1.0000
  H   H1995     1.0  0.33442  0.95075  0.05174  1.0000
  C   C2490     1.0  0.08194  0.80320  0.44658  1.0000
  C   C2491     1.0  0.00776  0.92426  0.31065  1.0000
  C   C2492     1.0  0.02206  0.97322  0.39286  1.0000
  Fe  Fe175     1.0  0.34203  0.82270  0.04455  1.0000
  C   C2493     1.0  0.09888  0.95395  0.46852  1.0000
  C   C2494     1.0  0.06721  0.92993  0.35203  1.0000
  C   C2495     1.0  0.28639  0.80252  0.33686  1.0000
  P   P82       1.0  0.04329  0.94240  0.35181  1.0000
  H   H1996     1.0  0.01490  0.97263  0.33616  1.0000
  S   S344      1.0  0.15833  0.79524  0.47016  1.0000
  C   C2496     1.0  0.05245  0.94542  0.31266  1.0000
  H   H1997     1.0  0.99892  0.79864  0.30432  1.0000
  C   C2497     1.0  0.09909  0.97163  0.47097  1.0000
  H   H1998     1.0  0.07529  0.79260  0.29145  1.0000
  H   H1999     1.0  0.19462  0.85488  0.47097  1.0000
  C   C2498     1.0  0.03624  0.79681  0.39762  1.0000
  C   C2499     1.0  0.08659  0.88921  0.42100  1.0000
  C   C2500     1.0  0.99243  0.81234  0.29723  1.0000
  H   H2000     1.0  0.43662  0.80801  0.98754  1.0000
  H   H2001     1.0  0.99466  0.79256  0.36324  1.0000
  C   C2501     1.0  0.02798  0.92600  0.36305  1.0000
  C   C2502     1.0  0.03381  0.90955  0.37591  1.0000
  C   C2503     1.0  0.02269  0.89610  0.38333  1.0000
  C   C2504     1.0  0.00557  0.89905  0.37815  1.0000
  C   C2505     1.0  0.17990  0.78977  0.18199  1.0000
  C   C2506     1.0  0.01034  0.92924  0.35867  1.0000
  C   C2507     1.0  0.02468  0.91485  0.31623  1.0000
  C   C2508     1.0  0.13646  0.81958  0.20778  1.0000
  H   H2002     1.0  0.42410  0.78516  0.01613  1.0000
  H   H2003     1.0  0.06447  0.90688  0.34161  1.0000
  H   H2004     1.0  0.06443  0.93416  0.31458  1.0000
  H   H2005     1.0  0.30040  0.88665  0.01457  1.0000
  C   C2509     1.0  0.36179  0.79432  0.20071  1.0000
  C   C2510     1.0  0.05796  0.83658  0.46619  1.0000
  H   H2006     1.0  0.47520  0.78842  0.19394  1.0000
  H   H2007     1.0  0.13721  0.79302  0.17290  1.0000
  C   C2511     1.0  0.03700  0.96109  0.36452  1.0000
  C   C2512     1.0  0.38117  0.81110  0.15454  1.0000
  C   C2513     1.0  0.36516  0.93780  0.99879  1.0000
  C   C2514     1.0  0.43030  0.78844  0.17863  1.0000
  H   H2008     1.0  0.04710  0.90690  0.37995  1.0000
  H   H2009     1.0  0.02755  0.88323  0.39278  1.0000
  S   S345      1.0  0.48615  0.83326  0.09936  1.0000
  C   C2515     1.0  0.99935  0.91569  0.36596  1.0000
  H   H2010     1.0  0.00524  0.94189  0.34910  1.0000
  C   C2516     1.0  0.35014  0.89159  0.99149  1.0000
  H   H2011     1.0  0.05649  0.92314  0.44571  1.0000
  C   C2517     1.0  0.30962  0.96006  0.07144  1.0000
  H   H2012     1.0  0.08291  0.89978  0.39247  1.0000
  C   C2518     1.0  0.09055  0.91278  0.47096  1.0000
  H   H2013     1.0  0.31216  0.94408  0.02130  1.0000
  C   C2519     1.0  0.09306  0.83946  0.47217  1.0000
  Fe  Fe176     1.0  0.08348  0.81996  0.34160  1.0000
  Fe  Fe177     1.0  0.48761  0.80562  0.11949  1.0000
  C   C2520     1.0  0.14559  0.83092  0.26986  1.0000
  S   S346      1.0  0.31518  0.82004  0.06582  1.0000
  C   C2521     1.0  0.02746  0.95841  0.38340  1.0000
  H   H2014     1.0  0.11817  0.90184  0.35339  1.0000
  S   S347      1.0  0.07596  0.80176  0.32686  1.0000
  C   C2522     1.0  0.30754  0.82325  0.33274  1.0000
  H   H2015     1.0  0.09018  0.90185  0.42189  1.0000
  C   C2523     1.0  0.38532  0.79153  0.15671  1.0000
  C   C2524     1.0  0.33085  0.80925  0.19485  1.0000
  H   H2016     1.0  0.08967  0.87506  0.44900  1.0000
  H   H2017     1.0  0.10668  0.80154  0.22982  1.0000
  C   C2525     1.0  0.10401  0.90974  0.35292  1.0000
  C   C2526     1.0  0.32700  0.94220  0.01517  1.0000
  H   H2018     1.0  0.16109  0.82347  0.35782  1.0000
  C   C2527     1.0  0.04111  0.82711  0.39844  1.0000
  C   C2528     1.0  0.11967  0.79732  0.42869  1.0000
  H   H2019     1.0  0.32548  0.90816  0.98130  1.0000
  H   H2020     1.0  0.08700  0.95222  0.46426  1.0000
  H   H2021     1.0  0.18413  0.79957  0.37435  1.0000
  C   C2529     1.0  0.14727  0.90767  0.40934  1.0000
  C   C2530     1.0  0.09195  0.90266  0.34676  1.0000
  C   C2531     1.0  0.37410  0.80098  0.10754  1.0000
  H   H2022     1.0  0.33119  0.80129  0.10087  1.0000
  C   C2532     1.0  0.45457  0.80525  0.00654  1.0000
  H   H2023     1.0  0.40810  0.79184  0.20290  1.0000
  C   C2533     1.0  0.14998  0.81355  0.28188  1.0000
  H   H2024     1.0  0.30802  0.79847  0.21499  1.0000
  C   C2534     1.0  0.24984  0.80739  0.32038  1.0000
  H   H2025     1.0  0.17394  0.85396  0.27916  1.0000
  C   C2535     1.0  0.30377  0.80769  0.32881  1.0000
  C   C2536     1.0  0.16364  0.80762  0.33704  1.0000
  C   C2537     1.0  0.99320  0.88212  0.33956  1.0000
  H   H2026     1.0  0.00644  0.89544  0.28349  1.0000
  H   H2027     1.0  0.32158  0.81994  0.18693  1.0000
  C   C2538     1.0  0.11104  0.82908  0.47419  1.0000
  C   C2539     1.0  0.27284  0.81330  0.34875  1.0000
  H   H2028     1.0  0.04510  0.85845  0.44552  1.0000
  H   H2029     1.0  0.28850  0.79927  0.09156  1.0000
  C   C2540     1.0  0.22454  0.79776  0.31395  1.0000
  H   H2030     1.0  0.33583  0.80879  0.15514  1.0000
  H   H2031     1.0  0.02380  0.94507  0.39073  1.0000
  C   C2541     1.0  0.41252  0.79341  0.13127  1.0000
  H   H2032     1.0  0.11904  0.81949  0.46523  1.0000
  H   H2033     1.0  0.06737  0.80492  0.45361  1.0000
  H   H2034     1.0  0.10722  0.93254  0.36308  1.0000
  H   H2035     1.0  0.18656  0.79020  0.19285  1.0000
  H   H2036     1.0  0.01274  0.85666  0.46255  1.0000
  H   H2037     1.0  0.07497  0.95048  0.36223  1.0000
  C   C2542     1.0  0.32306  0.79724  0.21091  1.0000
  C   C2543     1.0  0.16646  0.79509  0.23403  1.0000
  H   H2038     1.0  0.01412  0.97142  0.40722  1.0000
  H   H2039     1.0  0.16303  0.81024  0.23043  1.0000
  C   C2544     1.0  0.05468  0.90681  0.47402  1.0000
  C   C2545     1.0  0.18951  0.86842  0.47480  1.0000
  H   H2040     1.0  0.48663  0.80066  0.08545  1.0000
  H   H2041     1.0  0.05552  0.80078  0.41228  1.0000
  H   H2042     1.0  0.03004  0.97135  0.27759  1.0000
  H   H2043     1.0  0.04084  0.90449  0.47522  1.0000
  C   C2546     1.0  0.12921  0.94167  0.47692  1.0000
  C   C2547     1.0  0.02107  0.97377  0.30655  1.0000
  H   H2044     1.0  0.04860  0.98112  0.34081  1.0000
  H   H2045     1.0  0.20201  0.78869  0.46869  1.0000
  H   H2046     1.0  0.45048  0.78457  0.04526  1.0000
  C   C2548     1.0  0.16023  0.78425  0.22534  1.0000
  C   C2549     1.0  0.17291  0.79136  0.33002  1.0000
  H   H2047     1.0  0.13186  0.78394  0.25971  1.0000
  C   C2550     1.0  0.35211  0.95117  0.98951  1.0000
  H   H2048     1.0  0.13445  0.78928  0.33820  1.0000
  P   P83       1.0  0.16879  0.78816  0.30863  1.0000
  C   C2551     1.0  0.25906  0.78852  0.32496  1.0000
  C   C2552     1.0  0.10902  0.78441  0.42989  1.0000
  H   H2049     1.0  0.99116  0.83889  0.25333  1.0000
  C   C2553     1.0  0.09012  0.78742  0.43868  1.0000
  C   C2554     1.0  0.22274  0.78584  0.39005  1.0000
  H   H2050     1.0  0.23404  0.78836  0.36042  1.0000
  C   C2555     1.0  0.19111  0.78653  0.16471  1.0000
  C   C2556     1.0  0.18297  0.78536  0.15059  1.0000
  C   C2557     1.0  0.12928  0.95927  0.47953  1.0000
  H   H2051     1.0  0.14108  0.93029  0.47917  1.0000
  S   S348      1.0  0.11445  0.91872  0.57849  1.0000
  Fe  Fe178     1.0  0.08466  0.80060  0.63908  1.0000
  S   S349      1.0  0.05421  0.80524  0.63877  1.0000
  C   C2558     1.0  0.47156  0.88952  0.87042  1.0000
  Fe  Fe179     1.0  0.09315  0.82446  0.59989  1.0000
  S   S350      1.0  0.06369  0.83091  0.59599  1.0000
  S   S351      1.0  0.11582  0.83537  0.57709  1.0000
  Fe  Fe180     1.0  0.05603  0.83524  0.62559  1.0000
  S   S352      1.0  0.03513  0.86002  0.63538  1.0000
  Fe  Fe181     1.0  0.06448  0.80053  0.60932  1.0000
  C   C2559     1.0  0.20253  0.80105  0.73676  1.0000
  S   S353      1.0  0.08573  0.83103  0.62853  1.0000
  C   C2560     1.0  0.09110  0.85282  0.49882  1.0000
  H   H2052     1.0  0.19960  0.85932  0.50044  1.0000
  C   C2561     1.0  0.05416  0.94958  0.61315  1.0000
  C   C2562     1.0  0.45972  0.94848  0.91997  1.0000
  C   C2563     1.0  0.11896  0.83071  0.48832  1.0000
  H   H2053     1.0  0.22828  0.80177  0.61923  1.0000
  C   C2564     1.0  0.46592  0.85911  0.96826  1.0000
  S   S354      1.0  0.38329  0.81800  0.71115  1.0000
  C   C2565     1.0  0.41308  0.83455  0.73951  1.0000
  P   P84       1.0  0.17815  0.78874  0.53619  1.0000
  H   H2054     1.0  0.44809  0.90043  0.92986  1.0000
  C   C2566     1.0  0.13574  0.88100  0.48214  1.0000
  C   C2567     1.0  0.45457  0.80168  0.85559  1.0000
  C   C2568     1.0  0.23951  0.78567  0.77975  1.0000
  H   H2055     1.0  0.34059  0.83625  0.88794  1.0000
  C   C2569     1.0  0.35195  0.81862  0.86760  1.0000
  C   C2570     1.0  0.34814  0.83544  0.87371  1.0000
  H   H2056     1.0  0.33856  0.80657  0.77523  1.0000
  S   S355      1.0  0.46810  0.82483  0.77504  1.0000
  H   H2057     1.0  0.01872  0.93778  0.49103  1.0000
  Fe  Fe182     1.0  0.36620  0.92846  0.88899  1.0000
  S   S356      1.0  0.38000  0.92740  0.91217  1.0000
  S   S357      1.0  0.36662  0.90321  0.87839  1.0000
  C   C2571     1.0  0.47904  0.81491  0.91739  1.0000
  H   H2058     1.0  0.00406  0.87395  0.58217  1.0000
  S   S358      1.0  0.43535  0.83708  0.81116  1.0000
  Fe  Fe183     1.0  0.38803  0.95442  0.89498  1.0000
  H   H2059     1.0  0.12257  0.78522  0.48306  1.0000
  Fe  Fe184     1.0  0.35281  0.94604  0.92263  1.0000
  S   S359      1.0  0.33732  0.93867  0.95253  1.0000
  S   S360      1.0  0.37704  0.95342  0.87062  1.0000
  S   S361      1.0  0.33848  0.94538  0.90036  1.0000
  C   C2572     1.0  0.42212  0.97500  0.89843  1.0000
  C   C2573     1.0  0.25421  0.88384  0.62369  1.0000
  C   C2574     1.0  0.47262  0.91585  0.75444  1.0000
  C   C2575     1.0  0.37881  0.90265  0.97632  1.0000
  H   H2060     1.0  0.39541  0.80084  0.80559  1.0000
  C   C2576     1.0  0.17686  0.90360  0.48480  1.0000
  H   H2061     1.0  0.40281  0.82777  0.96605  1.0000
  C   C2577     1.0  0.40553  0.82758  0.75836  1.0000
  H   H2062     1.0  0.06932  0.85954  0.48340  1.0000
  S   S362      1.0  0.17509  0.78684  0.67186  1.0000
  C   C2578     1.0  0.20040  0.84033  0.53510  1.0000
  S   S363      1.0  0.36194  0.97317  0.90732  1.0000
  H   H2063     1.0  0.20549  0.80446  0.65853  1.0000
  H   H2064     1.0  0.47162  0.88025  0.97907  1.0000
  C   C2579     1.0  0.20558  0.80941  0.52884  1.0000
  C   C2580     1.0  0.46018  0.89227  0.95418  1.0000
  C   C2581     1.0  0.29634  0.82851  0.63723  1.0000
  C   C2582     1.0  0.12494  0.89829  0.48602  1.0000
  H   H2065     1.0  0.42670  0.95882  0.76022  1.0000
  H   H2066     1.0  0.00824  0.91542  0.56021  1.0000
  H   H2067     1.0  0.47390  0.96993  0.83492  1.0000
  H   H2068     1.0  0.22473  0.85238  0.66024  1.0000
  H   H2069     1.0  0.45192  0.83809  0.87671  1.0000
  H   H2070     1.0  0.47593  0.86340  0.88996  1.0000
  H   H2071     1.0  0.19855  0.78896  0.56472  1.0000
  C   C2583     1.0  0.03613  0.82283  0.49286  1.0000
  H   H2072     1.0  0.26562  0.93065  0.69520  1.0000
  H   H2073     1.0  0.09922  0.96641  0.51720  1.0000
  H   H2074     1.0  0.30795  0.95796  0.84158  1.0000
  H   H2075     1.0  0.32805  0.96227  0.86068  1.0000
  C   C2584     1.0  0.34991  0.91934  0.96615  1.0000
  C   C2585     1.0  0.36923  0.91711  0.96413  1.0000
  H   H2076     1.0  0.22527  0.82488  0.79844  1.0000
  C   C2586     1.0  0.46695  0.80408  0.91669  1.0000
  Fe  Fe185     1.0  0.47606  0.85264  0.77159  1.0000
  C   C2587     1.0  0.42196  0.78999  0.81331  1.0000
  H   H2077     1.0  0.37661  0.92704  0.95373  1.0000
  C   C2588     1.0  0.18578  0.88850  0.49686  1.0000
  C   C2589     1.0  0.48494  0.97930  0.76236  1.0000
  C   C2590     1.0  0.39976  0.97669  0.76615  1.0000
  C   C2591     1.0  0.41910  0.89290  0.83334  1.0000
  C   C2592     1.0  0.40390  0.88515  0.83445  1.0000
  C   C2593     1.0  0.38774  0.88831  0.84844  1.0000
  C   C2594     1.0  0.38684  0.89917  0.86117  1.0000
  C   C2595     1.0  0.40202  0.90696  0.85997  1.0000
  C   C2596     1.0  0.41810  0.90392  0.84596  1.0000
  H   H2078     1.0  0.40461  0.87682  0.82453  1.0000
  H   H2079     1.0  0.37585  0.88257  0.84932  1.0000
  H   H2080     1.0  0.40141  0.91523  0.86990  1.0000
  H   H2081     1.0  0.42988  0.90994  0.84500  1.0000
  C   C2597     1.0  0.39239  0.82083  0.72939  1.0000
  C   C2598     1.0  0.38520  0.81356  0.74822  1.0000
  H   H2082     1.0  0.42493  0.94697  0.84702  1.0000
  C   C2599     1.0  0.46581  0.94961  0.75057  1.0000
  C   C2600     1.0  0.26428  0.87422  0.65864  1.0000
  H   H2083     1.0  0.10212  0.93516  0.61302  1.0000
  C   C2601     1.0  0.42668  0.97780  0.77739  1.0000
  S   S364      1.0  0.35082  0.79000  0.69837  1.0000
  H   H2084     1.0  0.00686  0.83378  0.49279  1.0000
  H   H2085     1.0  0.41196  0.83711  0.71057  1.0000
  S   S365      1.0  0.47556  0.84871  0.80194  1.0000
  C   C2602     1.0  0.35666  0.78824  0.79326  1.0000
  H   H2086     1.0  0.21534  0.79721  0.52456  1.0000
  C   C2603     1.0  0.46257  0.85819  0.85275  1.0000
  C   C2604     1.0  0.35866  0.97958  0.68287  1.0000
  C   C2605     1.0  0.12680  0.79679  0.65416  1.0000
  C   C2606     1.0  0.14435  0.79792  0.65618  1.0000
  H   H2087     1.0  0.01359  0.78975  0.57753  1.0000
  H   H2088     1.0  0.34016  0.82708  0.82243  1.0000
  H   H2089     1.0  0.47060  0.84766  0.97925  1.0000
  H   H2090     1.0  0.12019  0.80669  0.64340  1.0000
  H   H2091     1.0  0.15126  0.80886  0.64703  1.0000
  H   H2092     1.0  0.43610  0.80666  0.88171  1.0000
  H   H2093     1.0  0.05679  0.89138  0.50207  1.0000
  C   C2607     1.0  0.01790  0.87212  0.62215  1.0000
  C   C2608     1.0  0.00447  0.88726  0.62814  1.0000
  H   H2094     1.0  0.45801  0.84128  0.95523  1.0000
  C   C2609     1.0  0.12116  0.79925  0.55435  1.0000
  C   C2610     1.0  0.11739  0.94989  0.62261  1.0000
  C   C2611     1.0  0.01770  0.86734  0.60554  1.0000
  H   H2095     1.0  0.00451  0.89091  0.64101  1.0000
  S   S366      1.0  0.18978  0.89105  0.51815  1.0000
  C   C2612     1.0  0.21154  0.97084  0.56754  1.0000
  H   H2096     1.0  0.02780  0.85558  0.60090  1.0000
  P   P85       1.0  0.26350  0.83625  0.66437  1.0000
  H   H2097     1.0  0.27362  0.94737  0.66217  1.0000
  S   S367      1.0  0.47798  0.79457  0.82250  1.0000
  C   C2613     1.0  0.34507  0.81622  0.81434  1.0000
  H   H2098     1.0  0.43856  0.80358  0.91711  1.0000
  H   H2099     1.0  0.41865  0.85985  0.95932  1.0000
  C   C2614     1.0  0.11433  0.89590  0.57742  1.0000
  C   C2615     1.0  0.13015  0.88518  0.56790  1.0000
  C   C2616     1.0  0.13017  0.86681  0.56738  1.0000
  C   C2617     1.0  0.11463  0.85892  0.57673  1.0000
  C   C2618     1.0  0.09858  0.86976  0.58591  1.0000
  C   C2619     1.0  0.09840  0.88834  0.58611  1.0000
  H   H2100     1.0  0.14244  0.89099  0.56095  1.0000
  H   H2101     1.0  0.14240  0.85847  0.56019  1.0000
  H   H2102     1.0  0.08637  0.86382  0.59292  1.0000
  H   H2103     1.0  0.08608  0.89674  0.59329  1.0000
  H   H2104     1.0  0.05793  0.81004  0.56705  1.0000
  H   H2105     1.0  0.42975  0.79339  0.79898  1.0000
  H   H2106     1.0  0.40555  0.87084  0.77887  1.0000
  H   H2107     1.0  0.25035  0.88761  0.61012  1.0000
  C   C2620     1.0  0.45993  0.94787  0.77013  1.0000
  C   C2621     1.0  0.25629  0.86522  0.63370  1.0000
  C   C2622     1.0  0.45948  0.93607  0.90929  1.0000
  H   H2108     1.0  0.26827  0.87082  0.67209  1.0000
  H   H2109     1.0  0.19611  0.95327  0.61379  1.0000
  H   H2110     1.0  0.44620  0.93363  0.90866  1.0000
  H   H2111     1.0  0.46327  0.91644  0.85279  1.0000
  P   P86       1.0  0.04813  0.91690  0.54655  1.0000
  C   C2623     1.0  0.19173  0.78856  0.49816  1.0000
  C   C2624     1.0  0.04813  0.87900  0.55293  1.0000
  H   H2112     1.0  0.32820  0.83129  0.79390  1.0000
  H   H2113     1.0  0.47653  0.96310  0.92748  1.0000
  C   C2625     1.0  0.25715  0.89765  0.63113  1.0000
  H   H2114     1.0  0.08776  0.89666  0.53482  1.0000
  H   H2115     1.0  0.26459  0.90355  0.65427  1.0000
  H   H2116     1.0  0.11350  0.91477  0.50757  1.0000
  C   C2626     1.0  0.31381  0.81772  0.63060  1.0000
  H   H2117     1.0  0.06381  0.80973  0.53312  1.0000
  H   H2118     1.0  0.46779  0.90004  0.78286  1.0000
  C   C2627     1.0  0.03949  0.91894  0.57074  1.0000
  C   C2628     1.0  0.02526  0.93420  0.57537  1.0000
  C   C2629     1.0  0.01836  0.93571  0.59411  1.0000
  C   C2630     1.0  0.02592  0.92225  0.60829  1.0000
  C   C2631     1.0  0.04034  0.90726  0.60375  1.0000
  C   C2632     1.0  0.04709  0.90553  0.58507  1.0000
  H   H2119     1.0  0.04650  0.95402  0.51991  1.0000
  H   H2120     1.0  0.01921  0.94480  0.56461  1.0000
  H   H2121     1.0  0.00716  0.94736  0.59760  1.0000
  H   H2122     1.0  0.02035  0.92316  0.62282  1.0000
  H   H2123     1.0  0.04576  0.89654  0.61479  1.0000
  H   H2124     1.0  0.05803  0.89357  0.58198  1.0000
  H   H2125     1.0  0.08325  0.86177  0.50851  1.0000
  H   H2126     1.0  0.48220  0.81659  0.87737  1.0000
  Fe  Fe186     1.0  0.17684  0.93982  0.55932  1.0000
  C   C2633     1.0  0.23414  0.79925  0.66092  1.0000
  H   H2127     1.0  0.98994  0.96116  0.63664  1.0000
  H   H2128     1.0  0.48419  0.88547  0.86034  1.0000
  H   H2129     1.0  0.02208  0.90396  0.67528  1.0000
  C   C2634     1.0  0.32080  0.97432  0.85202  1.0000
  H   H2130     1.0  0.35671  0.95944  0.97570  1.0000
  C   C2635     1.0  0.01496  0.91669  0.66723  1.0000
  H   H2131     1.0  0.34756  0.80650  0.87742  1.0000
  C   C2636     1.0  0.25805  0.78745  0.77124  1.0000
  C   C2637     1.0  0.29386  0.80607  0.66691  1.0000
  C   C2638     1.0  0.23446  0.81436  0.79095  1.0000
  C   C2639     1.0  0.46415  0.84163  0.86645  1.0000
  C   C2640     1.0  0.19220  0.87097  0.49165  1.0000
  P   P87       1.0  0.45085  0.96878  0.77973  1.0000
  H   H2132     1.0  0.47674  0.93497  0.72772  1.0000
  Fe  Fe187     1.0  0.35038  0.97048  0.88381  1.0000
  C   C2641     1.0  0.06065  0.79691  0.56262  1.0000
  H   H2133     1.0  0.19964  0.83850  0.65778  1.0000
  C   C2642     1.0  0.18623  0.80978  0.53436  1.0000
  H   H2134     1.0  0.47710  0.87534  0.82868  1.0000
  C   C2643     1.0  0.39222  0.78993  0.83565  1.0000
  C   C2644     1.0  0.41214  0.79917  0.96287  1.0000
  C   C2645     1.0  0.10896  0.84244  0.50071  1.0000
  H   H2135     1.0  0.44911  0.86768  0.85236  1.0000
  H   H2136     1.0  0.07625  0.93532  0.59392  1.0000
  H   H2137     1.0  0.13264  0.96696  0.62839  1.0000
  C   C2646     1.0  0.21260  0.82458  0.52930  1.0000
  C   C2647     1.0  0.41188  0.78619  0.95290  1.0000
  C   C2648     1.0  0.21658  0.81060  0.65930  1.0000
  S   S368      1.0  0.41185  0.83258  0.77728  1.0000
  C   C2649     1.0  0.21395  0.97342  0.60324  1.0000
  H   H2138     1.0  0.17404  0.80414  0.73451  1.0000
  C   C2650     1.0  0.14030  0.79774  0.55282  1.0000
  H   H2139     1.0  0.25842  0.82710  0.78432  1.0000
  H   H2140     1.0  0.45205  0.81626  0.84845  1.0000
  C   C2651     1.0  0.05720  0.95718  0.57943  1.0000
  H   H2141     1.0  0.38048  0.95758  0.67271  1.0000
  C   C2652     1.0  0.99577  0.92511  0.53615  1.0000
  H   H2142     1.0  0.32816  0.79558  0.85907  1.0000
  H   H2143     1.0  0.20610  0.81060  0.72350  1.0000
  C   C2653     1.0  0.33809  0.81861  0.79826  1.0000
  C   C2654     1.0  0.39268  0.81037  0.93339  1.0000
  C   C2655     1.0  0.39345  0.82343  0.94325  1.0000
  P   P88       1.0  0.37928  0.81766  0.91501  1.0000
  C   C2656     1.0  0.39402  0.82704  0.89330  1.0000
  C   C2657     1.0  0.00426  0.87779  0.59491  1.0000
  C   C2658     1.0  0.39608  0.82111  0.87660  1.0000
  C   C2659     1.0  0.40726  0.82896  0.85995  1.0000
  C   C2660     1.0  0.41605  0.84312  0.85975  1.0000
  C   C2661     1.0  0.41342  0.84966  0.87609  1.0000
  C   C2662     1.0  0.40263  0.84151  0.89282  1.0000
  C   C2663     1.0  0.35991  0.83628  0.92180  1.0000
  C   C2664     1.0  0.34898  0.83364  0.94010  1.0000
  C   C2665     1.0  0.33514  0.84835  0.94628  1.0000
  C   C2666     1.0  0.33199  0.86586  0.93418  1.0000
  C   C2667     1.0  0.34262  0.86861  0.91585  1.0000
  C   C2668     1.0  0.35655  0.85393  0.90965  1.0000
  H   H2144     1.0  0.38609  0.83780  0.94002  1.0000
  H   H2145     1.0  0.34190  0.80777  0.92574  1.0000
  H   H2146     1.0  0.38901  0.81064  0.87619  1.0000
  H   H2147     1.0  0.40910  0.82405  0.84720  1.0000
  H   H2148     1.0  0.42473  0.84922  0.84688  1.0000
  H   H2149     1.0  0.41955  0.86123  0.87568  1.0000
  H   H2150     1.0  0.40041  0.84687  0.90530  1.0000
  H   H2151     1.0  0.35143  0.82023  0.94972  1.0000
  H   H2152     1.0  0.32710  0.84618  0.96061  1.0000
  H   H2153     1.0  0.32146  0.87738  0.93906  1.0000
  H   H2154     1.0  0.34034  0.88229  0.90654  1.0000
  H   H2155     1.0  0.36483  0.85665  0.89553  1.0000
  H   H2156     1.0  0.32160  0.82218  0.61652  1.0000
  C   C2669     1.0  0.99728  0.91751  0.66426  1.0000
  C   C2670     1.0  0.04259  0.96921  0.65044  1.0000
  H   H2157     1.0  0.11504  0.84336  0.51184  1.0000
  C   C2671     1.0  0.33829  0.95126  0.70112  1.0000
  C   C2672     1.0  0.35639  0.94691  0.69016  1.0000
  P   P89       1.0  0.32407  0.93370  0.71070  1.0000
  C   C2673     1.0  0.30989  0.93731  0.73342  1.0000
  C   C2674     1.0  0.30867  0.93698  0.69493  1.0000
  C   C2675     1.0  0.31323  0.94620  0.67605  1.0000
  C   C2676     1.0  0.30072  0.94968  0.66423  1.0000
  C   C2677     1.0  0.28367  0.94390  0.67110  1.0000
  C   C2678     1.0  0.27915  0.93448  0.68977  1.0000
  C   C2679     1.0  0.29163  0.93093  0.70164  1.0000
  C   C2680     1.0  0.29371  0.95167  0.73446  1.0000
  C   C2681     1.0  0.28288  0.95489  0.75188  1.0000
  C   C2682     1.0  0.28792  0.94368  0.76845  1.0000
  C   C2683     1.0  0.30374  0.92911  0.76759  1.0000
  C   C2684     1.0  0.31471  0.92592  0.75018  1.0000
  C   C2685     1.0  0.33873  0.91033  0.71302  1.0000
  C   C2686     1.0  0.35454  0.90609  0.72102  1.0000
  C   C2687     1.0  0.36585  0.88802  0.72292  1.0000
  C   C2688     1.0  0.36152  0.87408  0.71679  1.0000
  C   C2689     1.0  0.34586  0.87817  0.70880  1.0000
  C   C2690     1.0  0.33447  0.89619  0.70692  1.0000
  H   H2158     1.0  0.44891  0.95592  0.85791  1.0000
  H   H2159     1.0  0.12278  0.78760  0.51342  1.0000
  C   C2691     1.0  0.15334  0.79272  0.53693  1.0000
  H   H2160     1.0  0.47747  0.90348  0.74840  1.0000
  H   H2161     1.0  0.36248  0.93278  0.68797  1.0000
  H   H2162     1.0  0.32619  0.95112  0.67046  1.0000
  H   H2163     1.0  0.30396  0.95738  0.64986  1.0000
  C   C2692     1.0  0.14686  0.78887  0.52280  1.0000
  C   C2693     1.0  0.41863  0.97011  0.76717  1.0000
  H   H2164     1.0  0.28773  0.92395  0.71617  1.0000
  H   H2165     1.0  0.28943  0.96051  0.72180  1.0000
  H   H2166     1.0  0.27059  0.96618  0.75254  1.0000
  H   H2167     1.0  0.27960  0.94641  0.78192  1.0000
  H   H2168     1.0  0.30758  0.92036  0.78044  1.0000
  H   H2169     1.0  0.32688  0.91460  0.75001  1.0000
  H   H2170     1.0  0.35809  0.91673  0.72584  1.0000
  H   H2171     1.0  0.37803  0.88473  0.72911  1.0000
  H   H2172     1.0  0.37032  0.86007  0.71817  1.0000
  H   H2173     1.0  0.34265  0.86727  0.70401  1.0000
  H   H2174     1.0  0.32245  0.89899  0.70066  1.0000
  C   C2694     1.0  0.18114  0.84116  0.53990  1.0000
  C   C2695     1.0  0.37950  0.96957  0.82536  1.0000
  C   C2696     1.0  0.46706  0.91396  0.77391  1.0000
  Fe  Fe188     1.0  0.43800  0.84059  0.77998  1.0000
  H   H2175     1.0  0.14233  0.81705  0.60813  1.0000
  C   C2697     1.0  0.37101  0.79786  0.91321  1.0000
  H   H2176     1.0  0.38532  0.81201  0.77704  1.0000
  H   H2177     1.0  0.11115  0.80309  0.56665  1.0000
  S   S369      1.0  0.29975  0.79054  0.73095  1.0000
  C   C2698     1.0  0.08323  0.85146  0.48456  1.0000
  C   C2699     1.0  0.40304  0.81783  0.95797  1.0000
  C   C2700     1.0  0.13009  0.88819  0.51790  1.0000
  C   C2701     1.0  0.99109  0.89320  0.60071  1.0000
  C   C2702     1.0  0.45108  0.96376  0.80442  1.0000
  P   P90       1.0  0.36701  0.79610  0.84077  1.0000
  C   C2703     1.0  0.47661  0.95270  0.91991  1.0000
  C   C2704     1.0  0.99118  0.89788  0.61740  1.0000
  H   H2178     1.0  0.44670  0.95537  0.92780  1.0000
  C   C2705     1.0  0.06382  0.79672  0.54349  1.0000
  H   H2179     1.0  0.22750  0.82425  0.52500  1.0000
  C   C2706     1.0  0.06369  0.89939  0.48913  1.0000
  S   S370      1.0  0.44626  0.86869  0.77320  1.0000
  S   S371      1.0  0.43961  0.88913  0.81644  1.0000
  C   C2707     1.0  0.21618  0.79182  0.74735  1.0000
  H   H2180     1.0  0.39825  0.97269  0.92132  1.0000
  C   C2708     1.0  0.40241  0.79408  0.81713  1.0000
  C   C2709     1.0  0.05446  0.82390  0.48337  1.0000
  C   C2710     1.0  0.03850  0.96555  0.67015  1.0000
  H   H2181     1.0  0.19614  0.79545  0.63105  1.0000
  C   C2711     1.0  0.14376  0.86750  0.49605  1.0000
  C   C2712     1.0  0.08211  0.90593  0.64612  1.0000
  C   C2713     1.0  0.07076  0.89723  0.64080  1.0000
  C   C2714     1.0  0.07872  0.88127  0.63319  1.0000
  C   C2715     1.0  0.09801  0.87413  0.63063  1.0000
  C   C2716     1.0  0.10954  0.88269  0.63596  1.0000
  C   C2717     1.0  0.10139  0.89857  0.64392  1.0000
  P   P91       1.0  0.13402  0.87203  0.63533  1.0000
  C   C2718     1.0  0.13638  0.85525  0.65704  1.0000
  C   C2719     1.0  0.14407  0.85836  0.61727  1.0000
  C   C2720     1.0  0.15840  0.86340  0.60195  1.0000
  C   C2721     1.0  0.16683  0.85181  0.58900  1.0000
  C   C2722     1.0  0.16112  0.83506  0.59125  1.0000
  C   C2723     1.0  0.14703  0.82986  0.60650  1.0000
  C   C2724     1.0  0.13868  0.84136  0.61950  1.0000
  C   C2725     1.0  0.15430  0.84560  0.65992  1.0000
  C   C2726     1.0  0.15638  0.83170  0.67608  1.0000
  C   C2727     1.0  0.14061  0.82679  0.68912  1.0000
  C   C2728     1.0  0.12271  0.83610  0.68623  1.0000
  C   C2729     1.0  0.12056  0.85036  0.67031  1.0000
  C   C2730     1.0  0.14614  0.89079  0.63156  1.0000
  C   C2731     1.0  0.15548  0.89189  0.64490  1.0000
  C   C2732     1.0  0.16476  0.90659  0.64155  1.0000
  C   C2733     1.0  0.16459  0.92034  0.62501  1.0000
  C   C2734     1.0  0.15490  0.91957  0.61196  1.0000
  C   C2735     1.0  0.14551  0.90502  0.61531  1.0000
  H   H2182     1.0  0.07595  0.91818  0.65224  1.0000
  H   H2183     1.0  0.05578  0.90265  0.64268  1.0000
  H   H2184     1.0  0.06995  0.87431  0.62926  1.0000
  H   H2185     1.0  0.10377  0.86196  0.62448  1.0000
  H   H2186     1.0  0.10988  0.90514  0.64863  1.0000
  H   H2187     1.0  0.16333  0.87611  0.59986  1.0000
  H   H2188     1.0  0.17763  0.85600  0.57706  1.0000
  H   H2189     1.0  0.16737  0.82626  0.58106  1.0000
  C   C2736     1.0  0.08152  0.90241  0.48765  1.0000
  H   H2190     1.0  0.12804  0.83689  0.63142  1.0000
  H   H2191     1.0  0.16663  0.84857  0.64945  1.0000
  H   H2192     1.0  0.17021  0.82406  0.67815  1.0000
  H   H2193     1.0  0.14229  0.81532  0.70114  1.0000
  H   H2194     1.0  0.11050  0.83191  0.69610  1.0000
  H   H2195     1.0  0.10654  0.85702  0.66819  1.0000
  H   H2196     1.0  0.15561  0.88158  0.65790  1.0000
  H   H2197     1.0  0.17220  0.90730  0.65170  1.0000
  H   H2198     1.0  0.17202  0.93158  0.62219  1.0000
  H   H2199     1.0  0.15468  0.93030  0.59917  1.0000
  H   H2200     1.0  0.13803  0.90467  0.60504  1.0000
  H   H2201     1.0  0.25553  0.91208  0.62335  1.0000
  C   C2737     1.0  0.36431  0.85006  0.84335  1.0000
  C   C2738     1.0  0.35422  0.85119  0.86157  1.0000
  C   C2739     1.0  0.26121  0.86028  0.65133  1.0000
  H   H2202     1.0  0.36939  0.86210  0.83405  1.0000
  H   H2203     1.0  0.35130  0.86422  0.86633  1.0000
  C   C2740     1.0  0.22394  0.98370  0.58729  1.0000
  C   C2741     1.0  0.46064  0.92989  0.78179  1.0000
  H   H2204     1.0  0.46538  0.96332  0.74131  1.0000
  C   C2742     1.0  0.10357  0.96242  0.59531  1.0000
  H   H2205     1.0  0.38444  0.86356  0.96927  1.0000
  C   C2743     1.0  0.46652  0.87747  0.96815  1.0000
  C   C2744     1.0  0.02108  0.83460  0.48534  1.0000
  C   C2745     1.0  0.12770  0.79053  0.52436  1.0000
  C   C2746     1.0  0.14099  0.87112  0.51389  1.0000
  S   S372      1.0  0.34709  0.78778  0.74349  1.0000
  C   C2747     1.0  0.99858  0.93146  0.51668  1.0000
  H   H2206     1.0  0.17857  0.97763  0.63654  1.0000
  H   H2207     1.0  0.43450  0.92590  0.87606  1.0000
  H   H2208     1.0  0.14755  0.86086  0.52450  1.0000
  H   H2209     1.0  0.47586  0.91739  0.89122  1.0000
  H   H2210     1.0  0.48160  0.84185  0.91963  1.0000
  C   C2748     1.0  0.36164  0.81757  0.84913  1.0000
  H   H2211     1.0  0.21082  0.96980  0.55374  1.0000
  S   S373      1.0  0.18500  0.94393  0.52762  1.0000
  S   S374      1.0  0.18904  0.94412  0.58231  1.0000
  S   S375      1.0  0.14694  0.95466  0.55962  1.0000
  C   C2749     1.0  0.20194  0.96020  0.58352  1.0000
  S   S376      1.0  0.09480  0.79359  0.61057  1.0000
  C   C2750     1.0  0.01431  0.94860  0.64911  1.0000
  C   C2751     1.0  0.34390  0.80464  0.78773  1.0000
  H   H2212     1.0  0.10597  0.93799  0.54183  1.0000
  C   C2752     1.0  0.39567  0.88262  0.78387  1.0000
  H   H2213     1.0  0.31624  0.97399  0.71001  1.0000
  H   H2214     1.0  0.12821  0.89120  0.53157  1.0000
  H   H2215     1.0  0.25409  0.85467  0.62766  1.0000
  H   H2216     1.0  0.42651  0.90475  0.90638  1.0000
  H   H2217     1.0  0.34960  0.95330  0.73627  1.0000
  C   C2753     1.0  0.26223  0.89283  0.64857  1.0000
  C   C2754     1.0  0.08940  0.95712  0.52280  1.0000
  Fe  Fe189     1.0  0.15436  0.95699  0.52848  1.0000
  H   H2218     1.0  0.08825  0.89648  0.49949  1.0000
  C   C2755     1.0  0.40633  0.83139  0.72510  1.0000
  C   C2756     1.0  0.43608  0.95289  0.83684  1.0000
  C   C2757     1.0  0.35821  0.79994  0.81975  1.0000
  H   H2219     1.0  0.14486  0.80034  0.56417  1.0000
  C   C2758     1.0  0.06857  0.97138  0.66988  1.0000
  C   C2759     1.0  0.38781  0.95070  0.82565  1.0000
  C   C2760     1.0  0.38018  0.93986  0.81852  1.0000
  C   C2761     1.0  0.36427  0.94790  0.81067  1.0000
  C   C2762     1.0  0.35571  0.96680  0.81086  1.0000
  P   P92       1.0  0.35312  0.93323  0.80369  1.0000
  C   C2763     1.0  0.34262  0.94658  0.78396  1.0000
  C   C2764     1.0  0.36997  0.91317  0.79664  1.0000
  C   C2765     1.0  0.38814  0.91504  0.78674  1.0000
  C   C2766     1.0  0.44948  0.95799  0.84303  1.0000
  C   C2767     1.0  0.22765  0.79954  0.78920  1.0000
  C   C2768     1.0  0.36476  0.89587  0.80000  1.0000
  C   C2769     1.0  0.32541  0.95917  0.78706  1.0000
  C   C2770     1.0  0.31702  0.96958  0.77206  1.0000
  C   C2771     1.0  0.40226  0.79173  0.93823  1.0000
  C   C2772     1.0  0.34295  0.95502  0.75046  1.0000
  C   C2773     1.0  0.35139  0.94458  0.76548  1.0000
  C   C2774     1.0  0.33569  0.92549  0.82382  1.0000
  C   C2775     1.0  0.33874  0.92242  0.84205  1.0000
  C   C2776     1.0  0.32502  0.91714  0.85770  1.0000
  C   C2777     1.0  0.30817  0.91479  0.85530  1.0000
  C   C2778     1.0  0.30514  0.91750  0.83721  1.0000
  C   C2779     1.0  0.31889  0.92270  0.82151  1.0000
  H   H2220     1.0  0.03372  0.81276  0.50606  1.0000
  C   C2780     1.0  0.26950  0.78563  0.72080  1.0000
  H   H2221     1.0  0.39948  0.94408  0.83247  1.0000
  H   H2222     1.0  0.38629  0.92502  0.81992  1.0000
  H   H2223     1.0  0.13283  0.82266  0.48975  1.0000
  H   H2224     1.0  0.39241  0.92830  0.78373  1.0000
  H   H2225     1.0  0.35078  0.89414  0.80741  1.0000
  H   H2226     1.0  0.31843  0.96085  0.80116  1.0000
  C   C2781     1.0  0.47840  0.86259  0.83947  1.0000
  C   C2782     1.0  0.07256  0.97546  0.65024  1.0000
  C   C2783     1.0  0.26482  0.80225  0.77304  1.0000
  H   H2227     1.0  0.36465  0.93495  0.76256  1.0000
  H   H2228     1.0  0.35154  0.92441  0.84434  1.0000
  H   H2229     1.0  0.32736  0.91527  0.87171  1.0000
  H   H2230     1.0  0.29738  0.91116  0.86747  1.0000
  H   H2231     1.0  0.29194  0.91599  0.83536  1.0000
  H   H2232     1.0  0.31620  0.92492  0.80765  1.0000
  C   C2784     1.0  0.26097  0.83550  0.68904  1.0000
  C   C2785     1.0  0.27652  0.83521  0.69602  1.0000
  C   C2786     1.0  0.27458  0.83478  0.71505  1.0000
  C   C2787     1.0  0.25712  0.83477  0.72724  1.0000
  C   C2788     1.0  0.24156  0.83513  0.72044  1.0000
  C   C2789     1.0  0.24345  0.83547  0.70141  1.0000
  H   H2233     1.0  0.29088  0.84125  0.62805  1.0000
  H   H2234     1.0  0.21310  0.79884  0.79523  1.0000
  H   H2235     1.0  0.29022  0.83506  0.68685  1.0000
  H   H2236     1.0  0.28680  0.83387  0.72044  1.0000
  H   H2237     1.0  0.25578  0.83414  0.74202  1.0000
  H   H2238     1.0  0.22808  0.83489  0.72996  1.0000
  H   H2239     1.0  0.23125  0.83559  0.69648  1.0000
  C   C2790     1.0  0.33042  0.97000  0.70247  1.0000
  C   C2791     1.0  0.35209  0.79669  0.91988  1.0000
  C   C2792     1.0  0.44796  0.81200  0.91755  1.0000
  C   C2793     1.0  0.44099  0.83070  0.91910  1.0000
  C   C2794     1.0  0.45295  0.84172  0.91988  1.0000
  H   H2240     1.0  0.41502  0.90126  0.77309  1.0000
  P   P93       1.0  0.44376  0.86589  0.92225  1.0000
  C   C2795     1.0  0.45029  0.88208  0.90040  1.0000
  C   C2796     1.0  0.41851  0.86965  0.92965  1.0000
  C   C2797     1.0  0.40699  0.87620  0.91640  1.0000
  C   C2798     1.0  0.38751  0.87898  0.92231  1.0000
  C   C2799     1.0  0.37937  0.87484  0.94140  1.0000
  C   C2800     1.0  0.39076  0.86748  0.95454  1.0000
  C   C2801     1.0  0.41021  0.86519  0.94879  1.0000
  C   C2802     1.0  0.43902  0.90009  0.89639  1.0000
  C   C2803     1.0  0.44360  0.91231  0.87922  1.0000
  C   C2804     1.0  0.45981  0.90700  0.86617  1.0000
  H   H2241     1.0  0.34273  0.97314  0.80613  1.0000
  C   C2805     1.0  0.46679  0.87702  0.88736  1.0000
  C   C2806     1.0  0.45281  0.87031  0.94018  1.0000
  C   C2807     1.0  0.45891  0.85554  0.95447  1.0000
  H   H2242     1.0  0.38497  0.97775  0.83165  1.0000
  C   C2808     1.0  0.22763  0.83758  0.66016  1.0000
  H   H2243     1.0  0.27919  0.80340  0.76643  1.0000
  C   C2809     1.0  0.45330  0.88873  0.94029  1.0000
  H   H2244     1.0  0.47221  0.78954  0.91542  1.0000
  H   H2245     1.0  0.28628  0.80126  0.68097  1.0000
  C   C2810     1.0  0.12475  0.96597  0.61884  1.0000
  H   H2246     1.0  0.42622  0.83636  0.91991  1.0000
  H   H2247     1.0  0.18234  0.80212  0.49555  1.0000
  H   H2248     1.0  0.41289  0.87926  0.90149  1.0000
  H   H2249     1.0  0.37865  0.88447  0.91212  1.0000
  H   H2250     1.0  0.36425  0.87715  0.94601  1.0000
  C   C2811     1.0  0.03782  0.96366  0.61504  1.0000
  C   C2812     1.0  0.47209  0.83368  0.91896  1.0000
  C   C2813     1.0  0.05984  0.94965  0.52409  1.0000
  C   C2814     1.0  0.01080  0.92056  0.54513  1.0000
  Fe  Fe190     1.0  0.36814  0.79405  0.71678  1.0000
  C   C2815     1.0  0.20324  0.96159  0.60134  1.0000
  H   H2251     1.0  0.11536  0.97016  0.54271  1.0000
  C   C2816     1.0  0.07871  0.88675  0.54039  1.0000
  C   C2817     1.0  0.05922  0.89260  0.54610  1.0000
  C   C2818     1.0  0.02879  0.92261  0.53475  1.0000
  H   H2252     1.0  0.10206  0.86316  0.53874  1.0000
  H   H2253     1.0  0.17192  0.85390  0.54350  1.0000
  C   C2819     1.0  0.36331  0.97754  0.81822  1.0000
  C   C2820     1.0  0.31129  0.79536  0.66025  1.0000
  H   H2254     1.0  0.42378  0.84270  0.73604  1.0000
  P   P94       1.0  0.02579  0.96805  0.63795  1.0000
  H   H2255     1.0  0.12011  0.93869  0.63454  1.0000
  S   S377      1.0  0.14610  0.93038  0.52939  1.0000
  C   C2821     1.0  0.28622  0.82275  0.65550  1.0000
  C   C2822     1.0  0.08695  0.86765  0.54224  1.0000
  C   C2823     1.0  0.24543  0.82629  0.66157  1.0000
  Fe  Fe191     1.0  0.17583  0.91671  0.53114  1.0000
  C   C2824     1.0  0.44559  0.79623  0.87436  1.0000
  C   C2825     1.0  0.41079  0.97835  0.91560  1.0000
  H   H2256     1.0  0.42666  0.95151  0.81286  1.0000
  C   C2826     1.0  0.05636  0.85995  0.55419  1.0000
  C   C2827     1.0  0.07579  0.85425  0.54912  1.0000
  C   C2828     1.0  0.06422  0.93274  0.53699  1.0000
  C   C2829     1.0  0.07254  0.96159  0.51680  1.0000
  H   H2257     1.0  0.08226  0.83943  0.55089  1.0000
  H   H2258     1.0  0.03313  0.88306  0.55782  1.0000
  C   C2830     1.0  0.18448  0.79743  0.74296  1.0000
  C   C2831     1.0  0.03164  0.92826  0.51510  1.0000
  C   C2832     1.0  0.37760  0.88065  0.79357  1.0000
  H   H2259     1.0  0.04770  0.84954  0.55982  1.0000
  H   H2260     1.0  0.37444  0.80551  0.75173  1.0000
  H   H2261     1.0  0.20579  0.85229  0.53511  1.0000
  H   H2262     1.0  0.15262  0.85447  0.49275  1.0000
  C   C2833     1.0  0.36809  0.83331  0.83716  1.0000
  H   H2263     1.0  0.15900  0.82678  0.54383  1.0000
  Fe  Fe192     1.0  0.44577  0.86383  0.80378  1.0000
  C   C2834     1.0  0.46464  0.96861  0.81078  1.0000
  Fe  Fe193     1.0  0.46546  0.82247  0.80586  1.0000
  H   H2264     1.0  0.30356  0.97906  0.77474  1.0000
  C   C2835     1.0  0.17398  0.82590  0.53972  1.0000
  C   C2836     1.0  0.25310  0.81563  0.78299  1.0000
  H   H2265     1.0  0.02523  0.96201  0.67802  1.0000
  C   C2837     1.0  0.24850  0.80700  0.66216  1.0000
  H   H2266     1.0  0.23015  0.79454  0.74227  1.0000
  H   H2267     1.0  0.26185  0.79777  0.66379  1.0000
  C   C2838     1.0  0.47213  0.93364  0.74279  1.0000
  Fe  Fe194     1.0  0.14103  0.92700  0.56053  1.0000
  H   H2268     1.0  0.37613  0.83261  0.82304  1.0000
  H   H2269     1.0  0.09581  0.96089  0.58584  1.0000
  C   C2839     1.0  0.02351  0.93215  0.65962  1.0000
  C   C2840     1.0  0.08072  0.92898  0.54374  1.0000
  C   C2841     1.0  0.32579  0.96758  0.75376  1.0000
  H   H2270     1.0  0.17215  0.91724  0.48845  1.0000
  H   H2271     1.0  0.31909  0.97564  0.74224  1.0000
  C   C2842     1.0  0.36660  0.96099  0.68128  1.0000
  S   S378      1.0  0.41712  0.96039  0.88653  1.0000
  C   C2843     1.0  0.39150  0.81719  0.76258  1.0000
  H   H2272     1.0  0.39354  0.97049  0.75855  1.0000
  C   C2844     1.0  0.09333  0.94099  0.53649  1.0000
  H   H2273     1.0  0.06917  0.97455  0.50677  1.0000
  H   H2274     1.0  0.06479  0.95505  0.56562  1.0000
  H   H2275     1.0  0.05950  0.94119  0.62536  1.0000
  C   C2845     1.0  0.12192  0.90164  0.50413  1.0000
  H   H2276     1.0  0.21496  0.97412  0.61704  1.0000
  C   C2846     1.0  0.06372  0.94626  0.59538  1.0000
  C   C2847     1.0  0.32127  0.80114  0.64211  1.0000
  H   H2277     1.0  0.45622  0.92798  0.79690  1.0000
  C   C2848     1.0  0.10712  0.94795  0.61063  1.0000
  C   C2849     1.0  0.04057  0.97064  0.58134  1.0000
  H   H2278     1.0  0.08377  0.91692  0.55486  1.0000
  C   C2850     1.0  0.40096  0.89977  0.78052  1.0000
  H   H2279     1.0  0.37365  0.86729  0.79597  1.0000
  S   S379      1.0  0.17015  0.91147  0.56281  1.0000
  C   C2851     1.0  0.01654  0.93292  0.50613  1.0000
  H   H2280     1.0  0.04547  0.92933  0.50672  1.0000
  C   C2852     1.0  0.46368  0.96584  0.83003  1.0000
  H   H2281     1.0  0.26136  0.79553  0.72939  1.0000
  H   H2282     1.0  0.10008  0.79700  0.54125  1.0000
  H   H2283     1.0  0.03734  0.93113  0.66177  1.0000
  H   H2284     1.0  0.03498  0.97858  0.56918  1.0000
  H   H2285     1.0  0.06603  0.81475  0.48936  1.0000
  C   C2853     1.0  0.43696  0.95565  0.81759  1.0000
  C   C2854     1.0  0.03070  0.97359  0.59908  1.0000
  C   C2855     1.0  0.30951  0.97189  0.84112  1.0000
  C   C2856     1.0  0.21331  0.82976  0.65890  1.0000
  C   C2857     1.0  0.99688  0.94902  0.64557  1.0000
  H   H2286     1.0  0.47587  0.97474  0.80111  1.0000
  C   C2858     1.0  0.05956  0.97455  0.64053  1.0000
  C   C2859     1.0  0.11039  0.97873  0.59184  1.0000
  C   C2860     1.0  0.05152  0.96653  0.67982  1.0000
  C   C2861     1.0  0.43842  0.98231  0.89119  1.0000
  H   H2287     1.0  0.04831  0.96363  0.69505  1.0000
  H   H2288     1.0  0.39365  0.90127  0.97505  1.0000
  S   S380      1.0  0.24898  0.97979  0.68315  1.0000
  H   H2289     1.0  0.44743  0.97948  0.87807  1.0000
  H   H2290     1.0  0.02079  0.97520  0.54449  1.0000
  H   H2291     1.0  0.33479  0.79271  0.63703  1.0000
  H   H2292     1.0  0.07861  0.97218  0.67741  1.0000
  H   H2293     1.0  0.46033  0.90657  0.95425  1.0000
  H   H2294     1.0  0.08567  0.97943  0.64249  1.0000
  H   H2295     1.0  0.14104  0.96132  0.48388  1.0000
  C   C2862     1.0  0.22606  0.78773  0.62120  1.0000
  C   C2863     1.0  0.48150  0.82934  0.86673  1.0000
  C   C2864     1.0  0.47625  0.92720  0.89918  1.0000
  H   H2296     1.0  0.06277  0.97816  0.62531  1.0000
  C   C2865     1.0  0.20797  0.78420  0.62782  1.0000
  C   C2866     1.0  0.11487  0.79580  0.54006  1.0000
  H   H2297     1.0  0.41894  0.79459  0.97470  1.0000
  C   C2867     1.0  0.22262  0.98237  0.56944  1.0000
  H   H2298     1.0  0.16248  0.97723  0.61219  1.0000
  C   C2868     1.0  0.46686  0.78822  0.84608  1.0000
  H   H2299     1.0  0.36106  0.98342  0.72043  1.0000
  C   C2869     1.0  0.12169  0.98042  0.60310  1.0000
  H   H2300     1.0  0.15640  0.78428  0.51068  1.0000
  C   C2870     1.0  0.36375  0.78591  0.80923  1.0000
  H   H2301     1.0  0.23661  0.78432  0.66145  1.0000
  C   C2871     1.0  0.15309  0.78487  0.66992  1.0000
  H   H2302     1.0  0.99069  0.90551  0.67008  1.0000
  C   C2872     1.0  0.18006  0.78472  0.75983  1.0000
  H   H2303     1.0  0.01741  0.98345  0.60024  1.0000
  H   H2304     1.0  0.98977  0.97955  0.66296  1.0000
  C   C2873     1.0  0.34039  0.90653  0.97981  1.0000
  Fe  Fe195     1.0  0.96146  0.07701  0.42921  1.0000
  S   S381      1.0  0.96005  0.04787  0.44611  1.0000
  S   S382      1.0  0.98083  0.01048  0.41372  1.0000
  Fe  Fe196     1.0  0.93882  0.07414  0.40203  1.0000
  S   S383      1.0  0.93563  0.04508  0.41731  1.0000
  S   S384      1.0  0.92833  0.08327  0.37475  1.0000
  Fe  Fe197     1.0  0.93005  0.05545  0.44369  1.0000
  C   C2874     1.0  0.97734  0.00020  0.35780  1.0000
  Fe  Fe198     1.0  0.96575  0.03955  0.41830  1.0000
  C   C2875     1.0  0.97833  0.00677  0.39251  1.0000
  S   S385      1.0  0.93062  0.08523  0.42857  1.0000
  S   S386      1.0  0.96983  0.06810  0.40124  1.0000
  C   C2876     1.0  0.76738  0.15357  0.21049  1.0000
  H   H2305     1.0  0.56325  0.04703  0.27147  1.0000
  Fe  Fe199     1.0  0.57279  0.05078  0.02841  1.0000
  Fe  Fe200     1.0  0.60384  0.07198  0.00712  1.0000
  S   S387      1.0  0.62746  0.08563  0.00700  1.0000
  S   S388      1.0  0.57343  0.03836  0.00435  1.0000
  S   S389      1.0  0.60375  0.04359  0.02608  1.0000
  Fe  Fe201     1.0  0.80449  0.13228  0.31766  1.0000
  S   S390      1.0  0.81947  0.11659  0.29494  1.0000
  S   S391      1.0  0.77369  0.14570  0.31949  1.0000
  Fe  Fe202     1.0  0.84044  0.12715  0.33136  1.0000
  S   S392      1.0  0.85828  0.11155  0.30911  1.0000
  S   S393      1.0  0.85151  0.13259  0.35416  1.0000
  Fe  Fe203     1.0  0.84164  0.13302  0.28949  1.0000
  S   S394      1.0  0.85164  0.14274  0.25831  1.0000
  Fe  Fe204     1.0  0.83462  0.09653  0.31636  1.0000
  S   S395      1.0  0.84094  0.06549  0.31776  1.0000
  S   S396      1.0  0.82574  0.15029  0.31097  1.0000
  S   S397      1.0  0.81767  0.11061  0.33992  1.0000
  Fe  Fe205     1.0  0.65800  0.13341  0.31512  1.0000
  S   S398      1.0  0.68548  0.13444  0.29464  1.0000
  S   S399      1.0  0.64294  0.16070  0.32434  1.0000
  Fe  Fe206     1.0  0.65784  0.09429  0.31004  1.0000
  S   S400      1.0  0.68513  0.09263  0.28940  1.0000
  S   S401      1.0  0.64185  0.07088  0.31805  1.0000
  Fe  Fe207     1.0  0.69449  0.10461  0.30882  1.0000
  S   S402      1.0  0.72342  0.09246  0.31501  1.0000
  Fe  Fe208     1.0  0.67346  0.12254  0.27749  1.0000
  S   S403      1.0  0.67576  0.13366  0.24676  1.0000
  S   S404      1.0  0.66778  0.10411  0.33082  1.0000
  S   S405      1.0  0.64533  0.12357  0.29662  1.0000
  S   S406      1.0  0.79753  0.03408  0.22185  1.0000
  S   S407      1.0  0.82686  0.04421  0.17032  1.0000
  Fe  Fe209     1.0  0.81327  0.03850  0.24106  1.0000
  S   S408      1.0  0.79835  0.05933  0.25910  1.0000
  C   C2877     1.0  0.81517  0.99935  0.39778  1.0000
  H   H2306     1.0  0.53863  0.05313  0.98636  1.0000
  C   C2878     1.0  0.78485  0.06563  0.44620  1.0000
  S   S409      1.0  0.68367  0.01833  0.22344  1.0000
  H   H2307     1.0  0.85694  0.09120  0.46238  1.0000
  Fe  Fe210     1.0  0.66224  0.02037  0.20700  1.0000
  S   S410      1.0  0.65064  0.04824  0.19009  1.0000
  Fe  Fe211     1.0  0.80729  0.00352  0.23346  1.0000
  S   S411      1.0  0.64344  0.00474  0.23073  1.0000
  Fe  Fe212     1.0  0.84236  0.16123  0.07486  1.0000
  S   S412      1.0  0.84676  0.16740  0.10065  1.0000
  H   H2308     1.0  0.65687  0.16024  0.42063  1.0000
  Fe  Fe213     1.0  0.80859  0.14428  0.09582  1.0000
  S   S413      1.0  0.81039  0.14937  0.12306  1.0000
  S   S414      1.0  0.78671  0.12759  0.09956  1.0000
  H   H2309     1.0  0.62845  0.98487  0.13679  1.0000
  C   C2879     1.0  0.74350  0.98606  0.21307  1.0000
  Fe  Fe214     1.0  0.84120  0.13867  0.11468  1.0000
  S   S415      1.0  0.85664  0.11960  0.13686  1.0000
  C   C2880     1.0  0.71758  0.99741  0.15049  1.0000
  S   S416      1.0  0.83932  0.13155  0.08833  1.0000
  Fe  Fe215     1.0  0.65583  0.13283  0.07485  1.0000
  S   S417      1.0  0.68481  0.11651  0.06568  1.0000
  S   S418      1.0  0.63125  0.13597  0.06134  1.0000
  S   S419      1.0  0.69479  0.12282  0.10327  1.0000
  Fe  Fe216     1.0  0.69479  0.13836  0.07359  1.0000
  S   S420      1.0  0.71918  0.15200  0.05746  1.0000
  Fe  Fe217     1.0  0.68214  0.10267  0.09620  1.0000
  S   S421      1.0  0.69116  0.07135  0.10551  1.0000
  S   S422      1.0  0.65262  0.11782  0.10512  1.0000
  P   P95       1.0  0.59247  0.01361  0.27925  1.0000
  S   S423      1.0  0.62135  0.00489  0.99659  1.0000
  C   C2881     1.0  0.55058  0.17416  0.40266  1.0000
  C   C2882     1.0  0.76809  0.13523  0.08765  1.0000
  C   C2883     1.0  0.76486  0.15291  0.07575  1.0000
  C   C2884     1.0  0.74975  0.15813  0.06650  1.0000
  C   C2885     1.0  0.73787  0.14572  0.06925  1.0000
  C   C2886     1.0  0.74119  0.12813  0.08117  1.0000
  C   C2887     1.0  0.75616  0.12299  0.09035  1.0000
  H   H2310     1.0  0.77402  0.16243  0.07366  1.0000
  H   H2311     1.0  0.73252  0.11825  0.08293  1.0000
  H   H2312     1.0  0.75867  0.10936  0.09944  1.0000
  C   C2888     1.0  0.66342  0.05425  0.16712  1.0000
  C   C2889     1.0  0.67475  0.04051  0.15731  1.0000
  C   C2890     1.0  0.68328  0.04571  0.13832  1.0000
  C   C2891     1.0  0.68077  0.06467  0.12927  1.0000
  C   C2892     1.0  0.67013  0.07835  0.13935  1.0000
  C   C2893     1.0  0.66126  0.07315  0.15811  1.0000
  H   H2313     1.0  0.67647  0.02590  0.16411  1.0000
  H   H2314     1.0  0.69186  0.03511  0.13072  1.0000
  H   H2315     1.0  0.66895  0.09301  0.13286  1.0000
  H   H2316     1.0  0.65285  0.08390  0.16560  1.0000
  C   C2894     1.0  0.83753  0.06378  0.16026  1.0000
  C   C2895     1.0  0.84646  0.07034  0.17051  1.0000
  C   C2896     1.0  0.85318  0.08700  0.16279  1.0000
  C   C2897     1.0  0.85103  0.09722  0.14482  1.0000
  C   C2898     1.0  0.84297  0.09019  0.13418  1.0000
  C   C2899     1.0  0.83631  0.07350  0.14186  1.0000
  H   H2317     1.0  0.84766  0.06300  0.18459  1.0000
  H   H2318     1.0  0.85885  0.09266  0.17125  1.0000
  H   H2319     1.0  0.84125  0.09795  0.12028  1.0000
  H   H2320     1.0  0.82965  0.06851  0.13371  1.0000
  C   C2900     1.0  0.89398  0.03446  0.46449  1.0000
  C   C2901     1.0  0.63867  0.16424  0.34738  1.0000
  H   H2321     1.0  0.56511  0.17030  0.44273  1.0000
  C   C2902     1.0  0.62751  0.04901  0.24949  1.0000
  C   C2903     1.0  0.62802  0.17037  0.38434  1.0000
  C   C2904     1.0  0.63795  0.15271  0.38076  1.0000
  C   C2905     1.0  0.64345  0.14967  0.36230  1.0000
  H   H2322     1.0  0.58644  0.03260  0.24135  1.0000
  H   H2323     1.0  0.78086  0.02342  0.10818  1.0000
  H   H2324     1.0  0.64121  0.14133  0.39234  1.0000
  H   H2325     1.0  0.65089  0.13597  0.35967  1.0000
  C   C2906     1.0  0.64811  0.05237  0.30568  1.0000
  C   C2907     1.0  0.65846  0.05377  0.28706  1.0000
  C   C2908     1.0  0.66235  0.03860  0.27789  1.0000
  C   C2909     1.0  0.65608  0.02196  0.28743  1.0000
  C   C2910     1.0  0.64589  0.02073  0.30597  1.0000
  C   C2911     1.0  0.64179  0.03581  0.31491  1.0000
  H   H2326     1.0  0.66330  0.06655  0.27972  1.0000
  H   H2327     1.0  0.67029  0.03969  0.26359  1.0000
  H   H2328     1.0  0.93779  0.99038  0.37148  1.0000
  H   H2329     1.0  0.63382  0.03455  0.32921  1.0000
  C   C2912     1.0  0.81024  0.05993  0.27581  1.0000
  C   C2913     1.0  0.80164  0.07195  0.28829  1.0000
  C   C2914     1.0  0.81094  0.07303  0.30156  1.0000
  C   C2915     1.0  0.82887  0.06225  0.30237  1.0000
  C   C2916     1.0  0.83736  0.04984  0.29019  1.0000
  C   C2917     1.0  0.82805  0.04872  0.27683  1.0000
  H   H2330     1.0  0.78778  0.08048  0.28766  1.0000
  H   H2331     1.0  0.80425  0.08225  0.31122  1.0000
  H   H2332     1.0  0.85128  0.04155  0.29068  1.0000
  H   H2333     1.0  0.83471  0.03938  0.26722  1.0000
  C   C2918     1.0  0.85605  0.16549  0.25040  1.0000
  C   C2919     1.0  0.86222  0.17370  0.26157  1.0000
  H   H2334     1.0  0.62337  0.03104  0.27668  1.0000
  C   C2920     1.0  0.85454  0.17498  0.23206  1.0000
  H   H2335     1.0  0.86377  0.16624  0.27562  1.0000
  C   C2921     1.0  0.86061  0.99152  0.35908  1.0000
  H   H2336     1.0  0.85012  0.16842  0.22335  1.0000
  C   C2922     1.0  0.76008  0.13117  0.31702  1.0000
  C   C2923     1.0  0.74170  0.13873  0.31440  1.0000
  C   C2924     1.0  0.73050  0.12705  0.31327  1.0000
  C   C2925     1.0  0.73748  0.10772  0.31508  1.0000
  C   C2926     1.0  0.75589  0.10021  0.31760  1.0000
  C   C2927     1.0  0.76716  0.11192  0.31845  1.0000
  H   H2337     1.0  0.73604  0.15358  0.31345  1.0000
  H   H2338     1.0  0.71637  0.13293  0.31133  1.0000
  H   H2339     1.0  0.76142  0.08528  0.31902  1.0000
  H   H2340     1.0  0.78118  0.10602  0.32078  1.0000
  C   C2928     1.0  0.62799  0.09904  0.02289  1.0000
  C   C2929     1.0  0.61196  0.11097  0.03064  1.0000
  C   C2930     1.0  0.61326  0.12233  0.04218  1.0000
  C   C2931     1.0  0.63048  0.12154  0.04650  1.0000
  C   C2932     1.0  0.64648  0.10942  0.03890  1.0000
  C   C2933     1.0  0.64526  0.09844  0.02695  1.0000
  H   H2341     1.0  0.59864  0.11179  0.02741  1.0000
  H   H2342     1.0  0.60084  0.13172  0.04789  1.0000
  H   H2343     1.0  0.65981  0.10867  0.04204  1.0000
  H   H2344     1.0  0.65774  0.08937  0.02094  1.0000
  C   C2934     1.0  0.73031  0.03691  0.14798  1.0000
  C   C2935     1.0  0.90588  0.09581  0.37093  1.0000
  C   C2936     1.0  0.89923  0.09247  0.35670  1.0000
  C   C2937     1.0  0.88232  0.10325  0.35188  1.0000
  C   C2938     1.0  0.87198  0.11772  0.36106  1.0000
  C   C2939     1.0  0.87841  0.12089  0.37556  1.0000
  C   C2940     1.0  0.89534  0.11003  0.38045  1.0000
  H   H2345     1.0  0.90744  0.08177  0.34906  1.0000
  H   H2346     1.0  0.87757  0.10069  0.34070  1.0000
  H   H2347     1.0  0.87051  0.13210  0.38270  1.0000
  H   H2348     1.0  0.90053  0.11305  0.39112  1.0000
  C   C2941     1.0  0.61105  0.98517  0.09879  1.0000
  H   H2349     1.0  0.85057  0.04963  0.47666  1.0000
  H   H2350     1.0  0.78254  0.04286  0.47047  1.0000
  H   H2351     1.0  0.55027  0.07254  0.07549  1.0000
  C   C2942     1.0  0.59749  0.03753  0.24398  1.0000
  C   C2943     1.0  0.97713  0.98552  0.37367  1.0000
  C   C2944     1.0  0.73829  0.99135  0.12123  1.0000
  C   C2945     1.0  0.86837  0.01800  0.45681  1.0000
  C   C2946     1.0  0.59607  0.99993  0.33464  1.0000
  S   S424      1.0  0.82135  0.00817  0.25405  1.0000
  C   C2947     1.0  0.80891  0.02768  0.40970  1.0000
  C   C2948     1.0  0.87735  0.03079  0.44272  1.0000
  C   C2949     1.0  0.89054  0.03852  0.44643  1.0000
  H   H2352     1.0  0.62641  0.98815  0.28963  1.0000
  H   H2353     1.0  0.87430  0.03458  0.42883  1.0000
  H   H2354     1.0  0.89784  0.04787  0.43535  1.0000
  C   C2950     1.0  0.61438  0.01291  0.07436  1.0000
  C   C2951     1.0  0.79706  0.07511  0.43171  1.0000
  H   H2355     1.0  0.74030  0.13593  0.35709  1.0000
  H   H2356     1.0  0.70856  0.06848  0.00327  1.0000
  C   C2952     1.0  0.71218  0.06837  0.14983  1.0000
  C   C2953     1.0  0.55630  0.07174  0.08729  1.0000
  S   S425      1.0  0.90919  0.04558  0.46948  1.0000
  P   P96       1.0  0.58528  0.03061  0.12277  1.0000
  C   C2954     1.0  0.71838  0.14192  0.20440  1.0000
  C   C2955     1.0  0.75355  0.08494  0.38491  1.0000
  C   C2956     1.0  0.55504  0.08799  0.09345  1.0000
  C   C2957     1.0  0.72028  0.16353  0.26541  1.0000
  H   H2357     1.0  0.55413  0.99612  0.03537  1.0000
  Fe  Fe218     1.0  0.82525  0.03204  0.20137  1.0000
  C   C2958     1.0  0.68020  0.07476  0.22755  1.0000
  H   H2358     1.0  0.69178  0.06417  0.23212  1.0000
  H   H2359     1.0  0.67769  0.06028  0.20756  1.0000
  H   H2360     1.0  0.62908  0.12117  0.35051  1.0000
  H   H2361     1.0  0.59162  0.04513  0.29565  1.0000
  C   C2959     1.0  0.72765  0.15087  0.25341  1.0000
  P   P97       1.0  0.73464  0.13990  0.21900  1.0000
  C   C2960     1.0  0.74005  0.11604  0.23210  1.0000
  C   C2961     1.0  0.70765  0.12828  0.20803  1.0000
  C   C2962     1.0  0.69553  0.12965  0.19638  1.0000
  C   C2963     1.0  0.75725  0.10424  0.22646  1.0000
  C   C2964     1.0  0.76191  0.08606  0.23689  1.0000
  C   C2965     1.0  0.74970  0.07965  0.25336  1.0000
  C   C2966     1.0  0.73255  0.09127  0.25912  1.0000
  C   C2967     1.0  0.72752  0.10928  0.24837  1.0000
  C   C2968     1.0  0.67072  0.15818  0.24271  1.0000
  H   H2362     1.0  0.73524  0.13705  0.25884  1.0000
  H   H2363     1.0  0.70827  0.11674  0.22004  1.0000
  H   H2364     1.0  0.68710  0.11922  0.19947  1.0000
  H   H2365     1.0  0.76724  0.10913  0.21421  1.0000
  H   H2366     1.0  0.77523  0.07701  0.23254  1.0000
  H   H2367     1.0  0.75373  0.06581  0.26183  1.0000
  H   H2368     1.0  0.72342  0.08638  0.27220  1.0000
  H   H2369     1.0  0.71415  0.11812  0.25306  1.0000
  H   H2370     1.0  0.72173  0.08477  0.01972  1.0000
  C   C2969     1.0  0.53098  0.01886  0.03043  1.0000
  H   H2371     1.0  0.59445  0.14681  0.39459  1.0000
  C   C2970     1.0  0.97780  0.01812  0.35942  1.0000
  H   H2372     1.0  0.80580  0.16828  0.01527  1.0000
  C   C2971     1.0  0.86270  0.18335  0.17091  1.0000
  C   C2972     1.0  0.96543  0.09128  0.27029  1.0000
  C   C2973     1.0  0.95730  0.10329  0.28297  1.0000
  C   C2974     1.0  0.96769  0.11535  0.28483  1.0000
  S   S426      1.0  0.87555  0.99180  0.23493  1.0000
  C   C2975     1.0  0.92769  0.08173  0.30486  1.0000
  C   C2976     1.0  0.90894  0.07991  0.31109  1.0000
  C   C2977     1.0  0.90457  0.06217  0.31841  1.0000
  C   C2978     1.0  0.91890  0.04614  0.31937  1.0000
  C   C2979     1.0  0.93760  0.04786  0.31376  1.0000
  C   C2980     1.0  0.94200  0.06560  0.30688  1.0000
  H   H2373     1.0  0.89838  0.03323  0.17578  1.0000
  C   C2981     1.0  0.71435  0.04470  0.17827  1.0000
  C   C2982     1.0  0.98629  0.11452  0.27507  1.0000
  H   H2374     1.0  0.76314  0.05380  0.05700  1.0000
  H   H2375     1.0  0.56748  0.98714  0.28919  1.0000
  C   C2983     1.0  0.70244  0.17690  0.34661  1.0000
  H   H2376     1.0  0.89007  0.06083  0.32317  1.0000
  H   H2377     1.0  0.91558  0.03236  0.32462  1.0000
  H   H2378     1.0  0.94872  0.03540  0.31481  1.0000
  H   H2379     1.0  0.95657  0.06657  0.30319  1.0000
  S   S427      1.0  0.97125  0.09807  0.43931  1.0000
  H   H2380     1.0  0.95126  0.10179  0.32543  1.0000
  C   C2984     1.0  0.51120  0.99147  0.03317  1.0000
  C   C2985     1.0  0.75085  0.03032  0.10997  1.0000
  H   H2381     1.0  0.51479  0.02357  0.28148  1.0000
  H   H2382     1.0  0.53877  0.18134  0.39614  1.0000
  H   H2383     1.0  0.52956  0.05123  0.27236  1.0000
  H   H2384     1.0  0.49382  0.16334  0.36204  1.0000
  H   H2385     1.0  0.59871  0.00853  0.15660  1.0000
  C   C2986     1.0  0.91361  0.03833  0.38504  1.0000
  S   S428      1.0  0.57228  0.08036  0.01141  1.0000
  H   H2386     1.0  0.80873  0.05344  0.38882  1.0000
  C   C2987     1.0  0.91005  0.98934  0.26864  1.0000
  C   C2988     1.0  0.56529  0.05436  0.09633  1.0000
  H   H2387     1.0  0.71239  0.16106  0.37151  1.0000
  H   H2388     1.0  0.63814  0.03845  0.15994  1.0000
  C   C2989     1.0  0.58117  0.15715  0.41968  1.0000
  C   C2990     1.0  0.98402  0.09047  0.26055  1.0000
  C   C2991     1.0  0.82349  0.05366  0.44326  1.0000
  Fe  Fe219     1.0  0.57526  0.06704  0.98686  1.0000
  C   C2992     1.0  0.60122  0.98472  0.25980  1.0000
  H   H2389     1.0  0.64093  0.00803  0.31345  1.0000
  H   H2390     1.0  0.70463  0.01216  0.10527  1.0000
  C   C2993     1.0  0.59449  0.03337  0.32411  1.0000
  C   C2994     1.0  0.84428  0.18307  0.18079  1.0000
  C   C2995     1.0  0.74367  0.12187  0.36530  1.0000
  C   C2996     1.0  0.79196  0.05015  0.45915  1.0000
  H   H2391     1.0  0.61628  0.09448  0.34957  1.0000
  H   H2392     1.0  0.76720  0.16605  0.11974  1.0000
  H   H2393     1.0  0.60218  0.03922  0.08258  1.0000
  H   H2394     1.0  0.93269  0.08740  0.47060  1.0000
  C   C2997     1.0  0.87885  0.99446  0.35198  1.0000
  H   H2395     1.0  0.86715  0.02439  0.25155  1.0000
  C   C2998     1.0  0.61306  0.04681  0.12620  1.0000
  C   C2999     1.0  0.85659  0.03900  0.38290  1.0000
  C   C3000     1.0  0.85954  0.04873  0.36422  1.0000
  C   C3001     1.0  0.85474  0.06828  0.36003  1.0000
  C   C3002     1.0  0.84675  0.07815  0.37446  1.0000
  C   C3003     1.0  0.84302  0.06848  0.39327  1.0000
  C   C3004     1.0  0.84846  0.04880  0.39742  1.0000
  P   P98       1.0  0.83279  0.08138  0.41189  1.0000
  C   C3005     1.0  0.82120  0.10486  0.40222  1.0000
  C   C3006     1.0  0.81655  0.06914  0.43007  1.0000
  H   H2396     1.0  0.62609  0.09406  0.25269  1.0000
  H   H2397     1.0  0.59770  0.01787  0.35186  1.0000
  C   C3007     1.0  0.82581  0.12067  0.40490  1.0000
  C   C3008     1.0  0.81742  0.13874  0.39667  1.0000
  C   C3009     1.0  0.80440  0.14120  0.38568  1.0000
  C   C3010     1.0  0.79972  0.12559  0.38294  1.0000
  C   C3011     1.0  0.80818  0.10748  0.39101  1.0000
  C   C3012     1.0  0.85103  0.08289  0.42231  1.0000
  C   C3013     1.0  0.86966  0.08093  0.41231  1.0000
  C   C3014     1.0  0.88358  0.08254  0.42045  1.0000
  C   C3015     1.0  0.87903  0.08605  0.43854  1.0000
  C   C3016     1.0  0.86047  0.08837  0.44841  1.0000
  C   C3017     1.0  0.84649  0.08679  0.44036  1.0000
  H   H2398     1.0  0.86059  0.02384  0.38605  1.0000
  H   H2399     1.0  0.86563  0.04117  0.35296  1.0000
  H   H2400     1.0  0.72696  0.06023  0.12410  1.0000
  H   H2401     1.0  0.84365  0.09333  0.37081  1.0000
  H   H2402     1.0  0.84645  0.04094  0.41179  1.0000
  C   C3018     1.0  0.81127  0.04415  0.45764  1.0000
  H   H2403     1.0  0.79114  0.08719  0.42213  1.0000
  H   H2404     1.0  0.83630  0.11923  0.41279  1.0000
  H   H2405     1.0  0.82154  0.15082  0.39824  1.0000
  H   H2406     1.0  0.79836  0.15519  0.37885  1.0000
  H   H2407     1.0  0.78998  0.12760  0.37402  1.0000
  H   H2408     1.0  0.80495  0.09553  0.38816  1.0000
  H   H2409     1.0  0.87352  0.07828  0.39823  1.0000
  H   H2410     1.0  0.89803  0.08059  0.41285  1.0000
  H   H2411     1.0  0.88996  0.08660  0.44503  1.0000
  H   H2412     1.0  0.97800  0.02950  0.34720  1.0000
  H   H2413     1.0  0.83214  0.08864  0.44820  1.0000
  C   C3019     1.0  0.76921  0.07031  0.11351  1.0000
  C   C3020     1.0  0.78782  0.06059  0.11228  1.0000
  C   C3021     1.0  0.79692  0.05852  0.12678  1.0000
  C   C3022     1.0  0.78766  0.06673  0.14220  1.0000
  C   C3023     1.0  0.76926  0.07726  0.14312  1.0000
  C   C3024     1.0  0.75990  0.07853  0.12893  1.0000
  P   P99       1.0  0.75816  0.08968  0.16191  1.0000
  C   C3025     1.0  0.74702  0.07489  0.18250  1.0000
  C   C3026     1.0  0.77684  0.09570  0.16842  1.0000
  C   C3027     1.0  0.78091  0.08794  0.18642  1.0000
  C   C3028     1.0  0.79643  0.09105  0.19088  1.0000
  C   C3029     1.0  0.80786  0.10211  0.17759  1.0000
  C   C3030     1.0  0.80440  0.10925  0.15959  1.0000
  C   C3031     1.0  0.78929  0.10572  0.15480  1.0000
  C   C3032     1.0  0.73518  0.08310  0.19723  1.0000
  C   C3033     1.0  0.72884  0.07189  0.21455  1.0000
  C   C3034     1.0  0.73416  0.05236  0.21724  1.0000
  C   C3035     1.0  0.74594  0.04407  0.20264  1.0000
  C   C3036     1.0  0.75247  0.05528  0.18535  1.0000
  C   C3037     1.0  0.74108  0.10986  0.15317  1.0000
  C   C3038     1.0  0.72224  0.10851  0.15671  1.0000
  C   C3039     1.0  0.70942  0.12246  0.14758  1.0000
  C   C3040     1.0  0.71511  0.13822  0.13519  1.0000
  C   C3041     1.0  0.73366  0.13998  0.13186  1.0000
  C   C3042     1.0  0.74660  0.12588  0.14072  1.0000
  H   H2414     1.0  0.76215  0.07206  0.10221  1.0000
  H   H2415     1.0  0.79527  0.05483  0.10003  1.0000
  H   H2416     1.0  0.81130  0.05085  0.12596  1.0000
  H   H2417     1.0  0.79511  0.06524  0.15312  1.0000
  H   H2418     1.0  0.74571  0.08653  0.12929  1.0000
  H   H2419     1.0  0.77273  0.07881  0.19694  1.0000
  H   H2420     1.0  0.79997  0.08440  0.20444  1.0000
  H   H2421     1.0  0.82012  0.10423  0.18080  1.0000
  H   H2422     1.0  0.81415  0.11665  0.14908  1.0000
  H   H2423     1.0  0.78813  0.10988  0.14023  1.0000
  H   H2424     1.0  0.73169  0.09819  0.19555  1.0000
  H   H2425     1.0  0.72027  0.07838  0.22606  1.0000
  H   H2426     1.0  0.72951  0.04360  0.23075  1.0000
  H   H2427     1.0  0.75036  0.02895  0.20490  1.0000
  H   H2428     1.0  0.76225  0.04862  0.17456  1.0000
  H   H2429     1.0  0.71752  0.09642  0.16609  1.0000
  H   H2430     1.0  0.69501  0.12110  0.14995  1.0000
  H   H2431     1.0  0.73819  0.15196  0.12181  1.0000
  H   H2432     1.0  0.76093  0.12739  0.13710  1.0000
  C   C3043     1.0  0.69332  0.10615  0.37691  1.0000
  C   C3044     1.0  0.69305  0.14391  0.34534  1.0000
  H   H2433     1.0  0.88731  0.02641  0.21037  1.0000
  C   C3045     1.0  0.70214  0.09410  0.36438  1.0000
  C   C3046     1.0  0.69345  0.08040  0.36322  1.0000
  C   C3047     1.0  0.67574  0.07880  0.37435  1.0000
  C   C3048     1.0  0.66674  0.09092  0.38668  1.0000
  C   C3049     1.0  0.67550  0.10453  0.38802  1.0000
  H   H2434     1.0  0.68912  0.13141  0.34455  1.0000
  H   H2435     1.0  0.59648  0.98912  0.18744  1.0000
  H   H2436     1.0  0.71568  0.09541  0.35529  1.0000
  H   H2437     1.0  0.70027  0.07141  0.35323  1.0000
  H   H2438     1.0  0.66887  0.06843  0.37310  1.0000
  H   H2439     1.0  0.65289  0.08985  0.39510  1.0000
  H   H2440     1.0  0.66826  0.11374  0.39764  1.0000
  C   C3050     1.0  0.89687  0.06373  0.26281  1.0000
  C   C3051     1.0  0.88276  0.07019  0.27719  1.0000
  C   C3052     1.0  0.86732  0.08405  0.27283  1.0000
  C   C3053     1.0  0.86560  0.09110  0.25420  1.0000
  C   C3054     1.0  0.87910  0.08383  0.23975  1.0000
  C   C3055     1.0  0.89510  0.07057  0.24410  1.0000
  P   P100      1.0  0.87666  0.09241  0.21569  1.0000
  C   C3056     1.0  0.85232  0.10121  0.21448  1.0000
  C   C3057     1.0  0.88971  0.11086  0.20628  1.0000
  C   C3058     1.0  0.88169  0.12886  0.21002  1.0000
  C   C3059     1.0  0.89171  0.14322  0.20283  1.0000
  C   C3060     1.0  0.91005  0.13952  0.19257  1.0000
  C   C3061     1.0  0.91834  0.12153  0.18924  1.0000
  C   C3062     1.0  0.90826  0.10719  0.19618  1.0000
  C   C3063     1.0  0.83864  0.09165  0.22656  1.0000
  C   C3064     1.0  0.81971  0.09898  0.22629  1.0000
  C   C3065     1.0  0.81431  0.11575  0.21391  1.0000
  C   C3066     1.0  0.82791  0.12492  0.20130  1.0000
  C   C3067     1.0  0.84686  0.11750  0.20133  1.0000
  C   C3068     1.0  0.88466  0.07350  0.20318  1.0000
  C   C3069     1.0  0.88325  0.05509  0.21274  1.0000
  C   C3070     1.0  0.54032  0.00365  0.28578  1.0000
  C   C3071     1.0  0.86848  0.01859  0.32638  1.0000
  C   C3072     1.0  0.89600  0.06275  0.17376  1.0000
  C   C3073     1.0  0.89096  0.07724  0.18360  1.0000
  H   H2441     1.0  0.88362  0.06429  0.29172  1.0000
  H   H2442     1.0  0.85644  0.08916  0.28391  1.0000
  H   H2443     1.0  0.85363  0.10209  0.25123  1.0000
  H   H2444     1.0  0.90598  0.06516  0.23312  1.0000
  H   H2445     1.0  0.86773  0.13178  0.21864  1.0000
  H   H2446     1.0  0.88538  0.15713  0.20561  1.0000
  H   H2447     1.0  0.91794  0.15052  0.18757  1.0000
  H   H2448     1.0  0.93264  0.11864  0.18143  1.0000
  H   H2449     1.0  0.91504  0.09322  0.19386  1.0000
  H   H2450     1.0  0.84252  0.07863  0.23635  1.0000
  H   H2451     1.0  0.80919  0.09169  0.23578  1.0000
  H   H2452     1.0  0.79961  0.12129  0.21381  1.0000
  H   H2453     1.0  0.82388  0.13754  0.19118  1.0000
  H   H2454     1.0  0.85716  0.12451  0.19102  1.0000
  H   H2455     1.0  0.87775  0.05190  0.22774  1.0000
  C   C3074     1.0  0.60467  0.02417  0.08732  1.0000
  C   C3075     1.0  0.71607  0.17453  0.22814  1.0000
  H   H2456     1.0  0.90029  0.06582  0.15858  1.0000
  H   H2457     1.0  0.89128  0.09145  0.17583  1.0000
  C   C3076     1.0  0.70370  0.12346  0.41590  1.0000
  H   H2458     1.0  0.78718  0.99473  0.20602  1.0000
  C   C3077     1.0  0.59357  0.01503  0.30244  1.0000
  H   H2459     1.0  0.72994  0.05380  0.07314  1.0000
  C   C3078     1.0  0.88852  0.04059  0.20290  1.0000
  H   H2460     1.0  0.76984  0.07038  0.44752  1.0000
  H   H2461     1.0  0.97823  0.03539  0.37784  1.0000
  C   C3079     1.0  0.86276  0.98770  0.41411  1.0000
  P   P101      1.0  0.74465  0.01963  0.13456  1.0000
  H   H2462     1.0  0.58932  0.99207  0.25349  1.0000
  H   H2463     1.0  0.96150  0.12551  0.29368  1.0000
  C   C3080     1.0  0.55823  0.00860  0.13478  1.0000
  H   H2464     1.0  0.85725  0.07583  0.34554  1.0000
  C   C3081     1.0  0.61827  0.03664  0.26383  1.0000
  C   C3082     1.0  0.80476  0.01471  0.30991  1.0000
  C   C3083     1.0  0.81009  0.03838  0.39139  1.0000
  C   C3084     1.0  0.70411  0.07643  0.04662  1.0000
  C   C3085     1.0  0.71081  0.07712  0.02742  1.0000
  C   C3086     1.0  0.70337  0.06798  0.01819  1.0000
  C   C3087     1.0  0.68916  0.05826  0.02813  1.0000
  C   C3088     1.0  0.68200  0.05780  0.04743  1.0000
  C   C3089     1.0  0.68970  0.06701  0.05653  1.0000
  P   P102      1.0  0.66316  0.04570  0.06053  1.0000
  C   C3090     1.0  0.64208  0.06271  0.06725  1.0000
  C   C3091     1.0  0.65935  0.03104  0.04692  1.0000
  C   C3092     1.0  0.65316  0.03923  0.03004  1.0000
  C   C3093     1.0  0.65054  0.02807  0.01925  1.0000
  C   C3094     1.0  0.65382  0.00860  0.02533  1.0000
  C   C3095     1.0  0.66001  0.00024  0.04208  1.0000
  C   C3096     1.0  0.66283  0.01138  0.05284  1.0000
  C   C3097     1.0  0.62530  0.06373  0.06198  1.0000
  C   C3098     1.0  0.60900  0.07637  0.06806  1.0000
  C   C3099     1.0  0.60927  0.08815  0.07939  1.0000
  C   C3100     1.0  0.62575  0.08709  0.08495  1.0000
  C   C3101     1.0  0.64201  0.07431  0.07911  1.0000
  C   C3102     1.0  0.66856  0.03125  0.08243  1.0000
  C   C3103     1.0  0.68696  0.02588  0.08535  1.0000
  C   C3104     1.0  0.88272  0.00800  0.33563  1.0000
  H   H2465     1.0  0.81113  0.99985  0.42706  1.0000
  C   C3105     1.0  0.65765  0.01508  0.11435  1.0000
  C   C3106     1.0  0.65399  0.02545  0.09695  1.0000
  H   H2466     1.0  0.70997  0.08339  0.05386  1.0000
  H   H2467     1.0  0.86465  0.99912  0.29426  1.0000
  H   H2468     1.0  0.82679  0.99439  0.32142  1.0000
  H   H2469     1.0  0.68395  0.05125  0.02050  1.0000
  H   H2470     1.0  0.68484  0.06673  0.07138  1.0000
  H   H2471     1.0  0.65038  0.05432  0.02519  1.0000
  H   H2472     1.0  0.64562  0.03458  0.00629  1.0000
  C   C3107     1.0  0.81594  0.01005  0.37937  1.0000
  H   H2473     1.0  0.66767  0.00456  0.06571  1.0000
  H   H2474     1.0  0.62455  0.05499  0.05311  1.0000
  H   H2475     1.0  0.59630  0.07748  0.06341  1.0000
  H   H2476     1.0  0.59690  0.09858  0.08331  1.0000
  H   H2477     1.0  0.62611  0.09666  0.09325  1.0000
  H   H2478     1.0  0.65445  0.07368  0.08387  1.0000
  H   H2479     1.0  0.69851  0.02990  0.07433  1.0000
  H   H2480     1.0  0.62094  0.01271  0.17322  1.0000
  C   C3108     1.0  0.62848  0.03673  0.15256  1.0000
  C   C3109     1.0  0.92304  0.17713  0.15431  1.0000
  H   H2481     1.0  0.63972  0.02922  0.09491  1.0000
  H   H2482     1.0  0.81554  0.03804  0.36206  1.0000
  H   H2483     1.0  0.78693  0.02736  0.35904  1.0000
  C   C3110     1.0  0.60147  0.99638  0.11184  1.0000
  H   H2484     1.0  0.71301  0.00469  0.16198  1.0000
  Fe  Fe220     1.0  0.69735  0.99154  0.21340  1.0000
  C   C3111     1.0  0.61240  0.09620  0.24970  1.0000
  H   H2485     1.0  0.80437  0.17700  0.27426  1.0000
  H   H2486     1.0  0.60186  0.08092  0.27724  1.0000
  H   H2487     1.0  0.57701  0.06876  0.13004  1.0000
  C   C3112     1.0  0.75975  0.04699  0.07168  1.0000
  S   S429      1.0  0.65997  0.00223  0.27724  1.0000
  S   S430      1.0  0.55601  0.04057  0.05697  1.0000
  C   C3113     1.0  0.71677  0.15696  0.18882  1.0000
  H   H2488     1.0  0.80029  0.11056  0.26239  1.0000
  S   S431      1.0  0.84014  0.03940  0.21968  1.0000
  C   C3114     1.0  0.54419  0.00049  0.14792  1.0000
  C   C3115     1.0  0.76536  0.00961  0.14430  1.0000
  H   H2489     1.0  0.80114  0.16017  0.17069  1.0000
  H   H2490     1.0  0.89670  0.01043  0.32995  1.0000
  H   H2491     1.0  0.83841  0.04896  0.44255  1.0000
  C   C3116     1.0  0.62178  0.05563  0.23242  1.0000
  H   H2492     1.0  0.60782  0.14954  0.35995  1.0000
  Fe  Fe221     1.0  0.84690  0.00833  0.23088  1.0000
  H   H2493     1.0  0.96916  0.06109  0.47888  1.0000
  H   H2494     1.0  0.56998  0.08536  0.27152  1.0000
  C   C3117     1.0  0.71100  0.18172  0.25875  1.0000
  C   C3118     1.0  0.55703  0.03481  0.27526  1.0000
  H   H2495     1.0  0.68065  0.10708  0.99516  1.0000
  C   C3119     1.0  0.59772  0.01601  0.10604  1.0000
  H   H2496     1.0  0.75734  0.07054  0.39225  1.0000
  H   H2497     1.0  0.53841  0.02945  0.03004  1.0000
  C   C3120     1.0  0.90140  0.11921  0.25465  1.0000
  C   C3121     1.0  0.57594  0.18074  0.35308  1.0000
  H   H2498     1.0  0.65141  0.00009  0.01704  1.0000
  H   H2499     1.0  0.98860  0.99456  0.45459  1.0000
  H   H2500     1.0  0.75692  0.15929  0.26896  1.0000
  H   H2501     1.0  0.76727  0.12491  0.27423  1.0000
  H   H2502     1.0  0.60296  0.05456  0.21601  1.0000
  C   C3122     1.0  0.90560  0.13991  0.33097  1.0000
  C   C3123     1.0  0.98738  0.00879  0.47633  1.0000
  C   C3124     1.0  0.90245  0.12575  0.13808  1.0000
  C   C3125     1.0  0.91740  0.12409  0.12270  1.0000
  C   C3126     1.0  0.92518  0.13965  0.11281  1.0000
  C   C3127     1.0  0.91780  0.15695  0.11811  1.0000
  C   C3128     1.0  0.90252  0.15882  0.13333  1.0000
  C   C3129     1.0  0.89514  0.14299  0.14355  1.0000
  P   P103      1.0  0.89195  0.18166  0.13879  1.0000
  C   C3130     1.0  0.90256  0.09488  0.47586  1.0000
  H   H2503     1.0  0.81009  0.98915  0.16532  1.0000
  H   H2504     1.0  0.97989  0.11715  0.46322  1.0000
  C   C3131     1.0  0.75996  0.18032  0.12071  1.0000
  H   H2505     1.0  0.79710  0.02334  0.15983  1.0000
  H   H2506     1.0  0.67211  0.14671  0.44792  1.0000
  C   C3132     1.0  0.55942  0.00117  0.28521  1.0000
  C   C3133     1.0  0.76070  0.99090  0.20351  1.0000
  Fe  Fe222     1.0  0.81559  0.17739  0.10684  1.0000
  H   H2507     1.0  0.88076  0.00631  0.41137  1.0000
  H   H2508     1.0  0.89597  0.11388  0.14529  1.0000
  H   H2509     1.0  0.92267  0.11086  0.11817  1.0000
  H   H2510     1.0  0.93651  0.13849  0.10062  1.0000
  H   H2511     1.0  0.92358  0.16903  0.10987  1.0000
  H   H2512     1.0  0.88329  0.14399  0.15526  1.0000
  H   H2513     1.0  0.92907  0.16486  0.14822  1.0000
  C   C3134     1.0  0.66308  0.17183  0.13633  1.0000
  C   C3135     1.0  0.56056  0.02479  0.15751  1.0000
  C   C3136     1.0  0.77276  0.99020  0.14752  1.0000
  C   C3137     1.0  0.53793  0.03725  0.27585  1.0000
  H   H2514     1.0  0.51224  0.04212  0.98204  1.0000
  C   C3138     1.0  0.79769  0.99481  0.15936  1.0000
  H   H2515     1.0  0.70518  0.14895  0.12799  1.0000
  C   C3139     1.0  0.97789  0.02149  0.37679  1.0000
  H   H2516     1.0  0.91423  0.14351  0.35455  1.0000
  H   H2517     1.0  0.67905  0.16160  0.21277  1.0000
  C   C3140     1.0  0.60302  0.03103  0.26132  1.0000
  H   H2518     1.0  0.63945  0.05310  0.25139  1.0000
  C   C3141     1.0  0.60207  0.13793  0.35986  1.0000
  H   H2519     1.0  0.54204  0.01962  0.18461  1.0000
  H   H2520     1.0  0.94165  0.00340  0.42081  1.0000
  C   C3142     1.0  0.68601  0.10417  0.98116  1.0000
  C   C3143     1.0  0.85023  0.01578  0.33348  1.0000
  H   H2521     1.0  0.56587  0.04191  0.09150  1.0000
  C   C3144     1.0  0.93876  0.11279  0.32648  1.0000
  C   C3145     1.0  0.61869  0.02222  0.16010  1.0000
  S   S432      1.0  0.66596  0.15630  0.08011  1.0000
  H   H2522     1.0  0.62941  0.06467  0.22123  1.0000
  C   C3146     1.0  0.88199  0.17480  0.04785  1.0000
  C   C3147     1.0  0.83142  0.17997  0.17230  1.0000
  H   H2523     1.0  0.90883  0.05289  0.26625  1.0000
  H   H2524     1.0  0.67914  0.09243  0.24624  1.0000
  H   H2525     1.0  0.88445  0.15577  0.07438  1.0000
  C   C3148     1.0  0.78244  0.03316  0.33104  1.0000
  C   C3149     1.0  0.69396  0.14469  0.18104  1.0000
  C   C3150     1.0  0.75597  0.14594  0.20390  1.0000
  C   C3151     1.0  0.69054  0.01559  0.10285  1.0000
  H   H2526     1.0  0.94342  0.11921  0.35081  1.0000
  H   H2527     1.0  0.80647  0.03440  0.42141  1.0000
  C   C3152     1.0  0.53983  0.99990  0.03347  1.0000
  C   C3153     1.0  0.61413  0.12183  0.35455  1.0000
  C   C3154     1.0  0.76746  0.09430  0.37337  1.0000
  C   C3155     1.0  0.76961  0.02995  0.10072  1.0000
  Fe  Fe223     1.0  0.66560  0.13953  0.10958  1.0000
  H   H2528     1.0  0.54809  0.10145  0.08637  1.0000
  C   C3156     1.0  0.60681  0.04991  0.22959  1.0000
  C   C3157     1.0  0.76163  0.14250  0.18562  1.0000
  C   C3158     1.0  0.86822  0.18122  0.15213  1.0000
  H   H2529     1.0  0.75354  0.13587  0.18043  1.0000
  C   C3159     1.0  0.55005  0.17647  0.42057  1.0000
  C   C3160     1.0  0.67862  0.14244  0.43466  1.0000
  S   S433      1.0  0.60674  0.06111  0.98120  1.0000
  C   C3161     1.0  0.77017  0.98563  0.23310  1.0000
  C   C3162     1.0  0.77392  0.99099  0.21349  1.0000
  H   H2530     1.0  0.67152  0.15071  0.39039  1.0000
  C   C3163     1.0  0.80841  0.00986  0.34200  1.0000
  C   C3164     1.0  0.93292  0.18175  0.16514  1.0000
  H   H2531     1.0  0.72404  0.08646  0.39539  1.0000
  H   H2532     1.0  0.63392  0.05981  0.12946  1.0000
  H   H2533     1.0  0.75003  0.99402  0.10978  1.0000
  C   C3165     1.0  0.60689  0.10684  0.35402  1.0000
  C   C3166     1.0  0.78367  0.15865  0.19859  1.0000
  H   H2534     1.0  0.58983  0.16554  0.33073  1.0000
  H   H2535     1.0  0.58196  0.09625  0.35863  1.0000
  C   C3167     1.0  0.67838  0.14464  0.40215  1.0000
  C   C3168     1.0  0.70153  0.14398  0.35975  1.0000
  C   C3169     1.0  0.51243  0.02418  0.02825  1.0000
  C   C3170     1.0  0.84621  0.00200  0.34969  1.0000
  C   C3171     1.0  0.68935  0.16021  0.33169  1.0000
  C   C3172     1.0  0.77426  0.02146  0.14877  1.0000
  H   H2536     1.0  0.66064  0.15948  0.27194  1.0000
  C   C3173     1.0  0.72506  0.15606  0.23479  1.0000
  C   C3174     1.0  0.56537  0.16804  0.42906  1.0000
  P   P104      1.0  0.70502  0.12351  0.37838  1.0000
  H   H2537     1.0  0.68451  0.14578  0.17208  1.0000
  C   C3175     1.0  0.69523  0.13122  0.40033  1.0000
  H   H2538     1.0  0.88999  0.98614  0.35912  1.0000
  H   H2539     1.0  0.61129  0.05620  0.11290  1.0000
  C   C3176     1.0  0.56253  0.08681  0.10888  1.0000
  H   H2540     1.0  0.65142  0.11531  0.23747  1.0000
  C   C3177     1.0  0.56796  0.01672  0.27962  1.0000
  S   S434      1.0  0.81124  0.17346  0.07997  1.0000
  H   H2541     1.0  0.88254  0.03211  0.27293  1.0000
  H   H2542     1.0  0.56129  0.09940  0.11382  1.0000
  C   C3178     1.0  0.74109  0.04697  0.08071  1.0000
  C   C3179     1.0  0.62590  0.04886  0.13548  1.0000
  H   H2543     1.0  0.83933  0.02465  0.32640  1.0000
  C   C3180     1.0  0.92064  0.00423  0.39384  1.0000
  C   C3181     1.0  0.65729  0.10359  0.23050  1.0000
  H   H2544     1.0  0.92569  0.05039  0.35665  1.0000
  C   C3182     1.0  0.81149  0.00818  0.41289  1.0000
  H   H2545     1.0  0.68261  0.16010  0.32073  1.0000
  C   C3183     1.0  0.93067  0.00357  0.37546  1.0000
  C   C3184     1.0  0.58754  0.10791  0.35903  1.0000
  P   P105      1.0  0.82253  0.99890  0.35947  1.0000
  C   C3185     1.0  0.77785  0.14769  0.17377  1.0000
  C   C3186     1.0  0.56687  0.02042  0.13962  1.0000
  H   H2546     1.0  0.89410  0.11246  0.24868  1.0000
  H   H2547     1.0  0.54872  0.01528  0.09291  1.0000
  P   P106      1.0  0.56735  0.16109  0.36954  1.0000
  C   C3187     1.0  0.69544  0.12914  0.43297  1.0000
  C   C3188     1.0  0.56511  0.01657  0.06473  1.0000
  C   C3189     1.0  0.60597  0.02006  0.15077  1.0000
  C   C3190     1.0  0.57159  0.06943  0.11793  1.0000
  C   C3191     1.0  0.58264  0.13939  0.36437  1.0000
  H   H2548     1.0  0.65199  0.17295  0.19772  1.0000
  C   C3192     1.0  0.58179  0.15480  0.40174  1.0000
  C   C3193     1.0  0.61745  0.99342  0.08007  1.0000
  P   P107      1.0  0.93303  0.10469  0.29475  1.0000
  C   C3194     1.0  0.81435  0.00509  0.32429  1.0000
  C   C3195     1.0  0.53014  0.98607  0.03439  1.0000
  C   C3196     1.0  0.70612  0.16064  0.36034  1.0000
  C   C3197     1.0  0.72958  0.11256  0.37679  1.0000
  C   C3198     1.0  0.73469  0.09402  0.38663  1.0000
  H   H2549     1.0  0.78849  0.03829  0.07458  1.0000
  C   C3199     1.0  0.57349  0.05313  0.11136  1.0000
  C   C3200     1.0  0.57543  0.12411  0.36421  1.0000
  C   C3201     1.0  0.90335  0.00638  0.27454  1.0000
  H   H2550     1.0  0.95738  0.08247  0.26798  1.0000
  H   H2551     1.0  0.67850  0.00282  0.13110  1.0000
  C   C3202     1.0  0.78887  0.02880  0.31324  1.0000
  H   H2552     1.0  0.52783  0.99774  0.17618  1.0000
  H   H2553     1.0  0.94060  0.01951  0.34812  1.0000
  H   H2554     1.0  0.78190  0.14544  0.15953  1.0000
  H   H2555     1.0  0.77601  0.99322  0.29524  1.0000
  C   C3203     1.0  0.88007  0.99189  0.41276  1.0000
  H   H2556     1.0  0.72491  0.16766  0.18556  1.0000
  C   C3204     1.0  0.57839  0.00637  0.05235  1.0000
  H   H2557     1.0  0.60110  0.17331  0.23959  1.0000
  H   H2558     1.0  0.58287  0.01302  0.03790  1.0000
  C   C3205     1.0  0.67225  0.07252  0.21379  1.0000
  S   S435      1.0  0.67739  0.99525  0.19483  1.0000
  H   H2559     1.0  0.65074  0.08352  0.19798  1.0000
  C   C3206     1.0  0.88469  0.02196  0.47878  1.0000
  C   C3207     1.0  0.54407  0.16187  0.36705  1.0000
  H   H2560     1.0  0.90737  0.05183  0.38885  1.0000
  C   C3208     1.0  0.59619  0.01713  0.33821  1.0000
  H   H2561     1.0  0.50569  0.03892  0.02572  1.0000
  H   H2562     1.0  0.61900  0.01929  0.05976  1.0000
  C   C3209     1.0  0.60254  0.03278  0.13414  1.0000
  H   H2563     1.0  0.71663  0.11306  0.41499  1.0000
  C   C3210     1.0  0.67296  0.09051  0.23562  1.0000
  C   C3211     1.0  0.91214  0.02176  0.39850  1.0000
  C   C3212     1.0  0.55924  0.00753  0.08338  1.0000
  C   C3213     1.0  0.67410  0.16863  0.22436  1.0000
  C   C3214     1.0  0.77711  0.13382  0.26640  1.0000
  C   C3215     1.0  0.90667  0.17129  0.06438  1.0000
  C   C3216     1.0  0.77133  0.15334  0.26353  1.0000
  H   H2564     1.0  0.59733  0.98736  0.34560  1.0000
  C   C3217     1.0  0.72367  0.05548  0.13916  1.0000
  C   C3218     1.0  0.64874  0.10100  0.21724  1.0000
  H   H2565     1.0  0.94642  0.17314  0.16725  1.0000
  H   H2566     1.0  0.56657  0.03437  0.16136  1.0000
  S   S436      1.0  0.65868  0.14985  0.13677  1.0000
  C   C3219     1.0  0.79210  0.02366  0.34543  1.0000
  C   C3220     1.0  0.66383  0.16738  0.25774  1.0000
  C   C3221     1.0  0.65677  0.08573  0.20845  1.0000
  C   C3222     1.0  0.59857  0.08870  0.26380  1.0000
  H   H2567     1.0  0.64625  0.01116  0.12562  1.0000
  H   H2568     1.0  0.59651  0.98969  0.12629  1.0000
  C   C3223     1.0  0.62658  0.17510  0.21882  1.0000
  S   S437      1.0  0.93011  0.98720  0.33559  1.0000
  C   C3224     1.0  0.76251  0.11276  0.36371  1.0000
  H   H2569     1.0  0.77327  0.11986  0.35444  1.0000
  C   C3225     1.0  0.79903  0.18299  0.01398  1.0000
  H   H2570     1.0  0.89232  0.14977  0.33328  1.0000
  C   C3226     1.0  0.70461  0.15831  0.17721  1.0000
  H   H2571     1.0  0.61568  0.08787  0.20000  1.0000
  S   S438      1.0  0.86092  0.16977  0.04663  1.0000
  Fe  Fe224     1.0  0.60448  0.03338  0.00071  1.0000
  C   C3227     1.0  0.79571  0.12571  0.25968  1.0000
  C   C3228     1.0  0.73668  0.03843  0.09969  1.0000
  H   H2572     1.0  0.76369  0.15565  0.22477  1.0000
  H   H2573     1.0  0.76375  0.99463  0.18836  1.0000
  C   C3229     1.0  0.60847  0.10618  0.23212  1.0000
  H   H2574     1.0  0.56052  0.12470  0.36776  1.0000
  C   C3230     1.0  0.58066  0.09119  0.26057  1.0000
  C   C3231     1.0  0.59293  0.03239  0.30637  1.0000
  H   H2575     1.0  0.90229  0.10355  0.46194  1.0000
  C   C3232     1.0  0.72612  0.03188  0.16766  1.0000
  P   P108      1.0  0.62636  0.11568  0.21361  1.0000
  C   C3233     1.0  0.93441  0.12272  0.34082  1.0000
  S   S439      1.0  0.97857  0.99656  0.33537  1.0000
  H   H2576     1.0  0.60033  0.14182  0.23670  1.0000
  C   C3234     1.0  0.91953  0.13706  0.27039  1.0000
  H   H2577     1.0  0.56242  0.00551  0.12092  1.0000
  C   C3235     1.0  0.56643  0.16319  0.39311  1.0000
  C   C3236     1.0  0.92385  0.03754  0.36685  1.0000
  C   C3237     1.0  0.56708  0.98852  0.08971  1.0000
  C   C3238     1.0  0.59463  0.99889  0.31686  1.0000
  C   C3239     1.0  0.54655  0.01659  0.17067  1.0000
  H   H2578     1.0  0.90867  0.16246  0.25194  1.0000
  C   C3240     1.0  0.91790  0.13635  0.34299  1.0000
  C   C3241     1.0  0.90997  0.13013  0.31651  1.0000
  C   C3242     1.0  0.90055  0.13850  0.24866  1.0000
  S   S440      1.0  0.91379  0.01195  0.29006  1.0000
  C   C3243     1.0  0.88595  0.99766  0.25023  1.0000
  H   H2579     1.0  0.89991  0.13270  0.30779  1.0000
  C   C3244     1.0  0.79034  0.01410  0.15629  1.0000
  C   C3245     1.0  0.57651  0.10139  0.24327  1.0000
  C   C3246     1.0  0.67586  0.01031  0.11739  1.0000
  H   H2580     1.0  0.53625  0.14505  0.39484  1.0000
  C   C3247     1.0  0.52959  0.02167  0.28103  1.0000
  H   H2581     1.0  0.70332  0.16998  0.16529  1.0000
  H   H2582     1.0  0.69780  0.07277  0.17746  1.0000
  C   C3248     1.0  0.78420  0.16493  0.25408  1.0000
  C   C3249     1.0  0.93226  0.02017  0.36206  1.0000
  H   H2583     1.0  0.59478  0.04667  0.32682  1.0000
  C   C3250     1.0  0.80854  0.13713  0.24998  1.0000
  C   C3251     1.0  0.69407  0.17665  0.33229  1.0000
  H   H2584     1.0  0.88226  0.17927  0.10434  1.0000
  C   C3252     1.0  0.59030  0.10895  0.22913  1.0000
  H   H2585     1.0  0.89254  0.14663  0.23822  1.0000
  H   H2586     1.0  0.74716  0.17178  0.05733  1.0000
  C   C3253     1.0  0.64078  0.16603  0.20621  1.0000
  H   H2587     1.0  0.77017  0.04422  0.33348  1.0000
  C   C3254     1.0  0.53849  0.00432  0.16592  1.0000
  C   C3255     1.0  0.87917  0.01468  0.25617  1.0000
  C   C3256     1.0  0.89480  0.04442  0.18341  1.0000
  H   H2588     1.0  0.82308  0.13082  0.24511  1.0000
  H   H2589     1.0  0.56256  0.10352  0.24081  1.0000
  C   C3257     1.0  0.53809  0.17137  0.35029  1.0000
  H   H2590     1.0  0.79229  0.16472  0.20371  1.0000
  Fe  Fe225     1.0  0.66620  0.00080  0.24646  1.0000
  C   C3258     1.0  0.80282  0.15667  0.24712  1.0000
  C   C3259     1.0  0.62207  0.11559  0.19108  1.0000
  C   C3260     1.0  0.73264  0.00147  0.13568  1.0000
  C   C3261     1.0  0.61701  0.09991  0.18863  1.0000
  C   C3262     1.0  0.61170  0.14837  0.22807  1.0000
  H   H2591     1.0  0.78173  0.03656  0.30192  1.0000
  S   S441      1.0  0.85209  0.00842  0.45158  1.0000
  C   C3263     1.0  0.58579  0.98733  0.05851  1.0000
  C   C3264     1.0  0.50250  0.01049  0.02972  1.0000
  C   C3265     1.0  0.93515  0.99962  0.45085  1.0000
  H   H2592     1.0  0.61072  0.08704  0.16938  1.0000
  H   H2593     1.0  0.81304  0.16526  0.23982  1.0000
  C   C3266     1.0  0.61397  0.09946  0.17129  1.0000
  H   H2594     1.0  0.53382  0.99159  0.28995  1.0000
  C   C3267     1.0  0.61568  0.11478  0.15627  1.0000
  C   C3268     1.0  0.62353  0.13102  0.17593  1.0000
  H   H2595     1.0  0.62736  0.14340  0.17710  1.0000
  S   S442      1.0  0.83369  0.00081  0.21122  1.0000
  H   H2596     1.0  0.66257  0.98512  0.04673  1.0000
  H   H2597     1.0  0.62419  0.98472  0.06985  1.0000
  H   H2598     1.0  0.58678  0.11701  0.21589  1.0000
  C   C3269     1.0  0.92010  0.11772  0.27681  1.0000
  H   H2599     1.0  0.78206  0.08719  0.37157  1.0000
  C   C3270     1.0  0.77402  0.03832  0.08163  1.0000
  C   C3271     1.0  0.81382  0.02960  0.37626  1.0000
  C   C3272     1.0  0.90144  0.98506  0.25640  1.0000
  C   C3273     1.0  0.62023  0.13060  0.15867  1.0000
  H   H2600     1.0  0.61369  0.11438  0.14269  1.0000
  H   H2601     1.0  0.70662  0.08248  0.14281  1.0000
  C   C3274     1.0  0.78873  0.15598  0.18013  1.0000
  C   C3275     1.0  0.87213  0.01349  0.47485  1.0000
  H   H2602     1.0  0.66995  0.18023  0.10623  1.0000
  H   H2603     1.0  0.76867  0.03641  0.14645  1.0000
  C   C3276     1.0  0.62612  0.13906  0.21559  1.0000
  C   C3277     1.0  0.92688  0.11688  0.31382  1.0000
  H   H2604     1.0  0.62163  0.14248  0.14697  1.0000
  H   H2605     1.0  0.89774  0.09223  0.31024  1.0000
  H   H2606     1.0  0.76488  0.17729  0.29026  1.0000
  H   H2607     1.0  0.59324  0.15101  0.42609  1.0000
  C   C3278     1.0  0.93317  0.99720  0.43379  1.0000
  C   C3279     1.0  0.64075  0.14797  0.20479  1.0000
  H   H2608     1.0  0.65209  0.14098  0.19522  1.0000
  C   C3280     1.0  0.88799  0.01909  0.26816  1.0000
  H   H2609     1.0  0.92653  0.14416  0.27633  1.0000
  H   H2610     1.0  0.72213  0.03860  0.10649  1.0000
  C   C3281     1.0  0.92465  0.99138  0.46777  1.0000
  H   H2611     1.0  0.87160  0.02915  0.31376  1.0000
  C   C3282     1.0  0.92042  0.98680  0.43352  1.0000
  C   C3283     1.0  0.91126  0.10877  0.26860  1.0000
  H   H2612     1.0  0.71078  0.04046  0.19343  1.0000
  H   H2613     1.0  0.90479  0.02260  0.41268  1.0000
  C   C3284     1.0  0.67008  0.15014  0.41926  1.0000
  C   C3285     1.0  0.53183  0.15265  0.38187  1.0000
  H   H2614     1.0  0.73179  0.01795  0.17481  1.0000
  C   C3286     1.0  0.60565  0.99155  0.27334  1.0000
  H   H2615     1.0  0.91302  0.16480  0.07642  1.0000
  C   C3287     1.0  0.70721  0.06289  0.16933  1.0000
  H   H2616     1.0  0.80985  0.01156  0.29603  1.0000
  H   H2617     1.0  0.65629  0.16793  0.16638  1.0000
  H   H2618     1.0  0.94470  0.00806  0.45089  1.0000
  H   H2619     1.0  0.70201  0.12314  0.44496  1.0000
  H   H2620     1.0  0.76057  0.17656  0.14983  1.0000
  C   C3288     1.0  0.89042  0.16626  0.06330  1.0000
  H   H2621     1.0  0.53786  0.99106  0.14418  1.0000
  H   H2622     1.0  0.64495  0.98451  0.16128  1.0000
  H   H2623     1.0  0.91186  0.09382  0.27290  1.0000
  S   S443      1.0  0.62168  0.17401  0.40751  1.0000
  H   H2624     1.0  0.85041  0.99885  0.41394  1.0000
  C   C3289     1.0  0.51376  0.15322  0.38006  1.0000
  C   C3290     1.0  0.90962  0.14743  0.25648  1.0000
  H   H2625     1.0  0.81685  0.03215  0.46768  1.0000
  H   H2626     1.0  0.71410  0.17915  0.21384  1.0000
  C   C3291     1.0  0.61204  0.16628  0.22974  1.0000
  H   H2627     1.0  0.72174  0.15917  0.27993  1.0000
  C   C3292     1.0  0.85520  0.17771  0.14397  1.0000
  H   H2628     1.0  0.62138  0.98612  0.20455  1.0000
  Fe  Fe226     1.0  0.93260  0.98752  0.30526  1.0000
  C   C3293     1.0  0.83694  0.17704  0.15398  1.0000
  C   C3294     1.0  0.66088  0.17719  0.15335  1.0000
  H   H2629     1.0  0.82700  0.17474  0.14724  1.0000
  C   C3295     1.0  0.50785  0.16286  0.36340  1.0000
  H   H2630     1.0  0.50434  0.14622  0.39161  1.0000
  H   H2631     1.0  0.66279  0.09228  0.98216  1.0000
  C   C3296     1.0  0.97784  0.98879  0.39097  1.0000
  H   H2632     1.0  0.84452  0.98496  0.28366  1.0000
  C   C3297     1.0  0.52002  0.17188  0.34851  1.0000
  H   H2633     1.0  0.85907  0.17547  0.12984  1.0000
  H   H2634     1.0  0.70224  0.18117  0.08725  1.0000
  H   H2635     1.0  0.81715  0.17998  0.17984  1.0000
  H   H2636     1.0  0.77846  0.17819  0.03956  1.0000
  C   C3298     1.0  0.62904  0.18195  0.35097  1.0000
  C   C3299     1.0  0.58654  0.17879  0.33508  1.0000
  H   H2637     1.0  0.54731  0.17840  0.33857  1.0000
  H   H2638     1.0  0.51544  0.17931  0.33558  1.0000
  S   S444      1.0  0.72803  0.98433  0.20015  1.0000
  H   H2639     1.0  0.59461  0.98545  0.31432  1.0000
  H   H2640     1.0  0.81793  0.98418  0.40055  1.0000
  C   C3300     1.0  0.86489  0.98425  0.29901  1.0000
  S   S445      1.0  0.78713  0.98383  0.24590  1.0000
  H   H2641     1.0  0.76628  0.98503  0.33001  1.0000
  Fe  Fe227     1.0  0.65990  0.06297  0.76075  1.0000
  S   S446      1.0  0.63380  0.08015  0.75140  1.0000
  S   S447      1.0  0.66296  0.05671  0.79072  1.0000
  Fe  Fe228     1.0  0.67882  0.05438  0.72210  1.0000
  S   S448      1.0  0.65379  0.07060  0.70965  1.0000
  S   S449      1.0  0.70764  0.04044  0.70788  1.0000
  Fe  Fe229     1.0  0.65319  0.09204  0.72565  1.0000
  Fe  Fe230     1.0  0.63646  0.05695  0.73666  1.0000
  S   S450      1.0  0.60833  0.04880  0.74171  1.0000
  S   S451      1.0  0.67904  0.07686  0.73630  1.0000
  S   S452      1.0  0.66163  0.03899  0.74771  1.0000
  Fe  Fe231     1.0  0.73300  0.08442  0.82339  1.0000
  S   S453      1.0  0.74086  0.07904  0.85130  1.0000
  S   S454      1.0  0.70754  0.10381  0.81383  1.0000
  Fe  Fe232     1.0  0.76921  0.06082  0.80638  1.0000
  S   S455      1.0  0.78066  0.05277  0.83266  1.0000
  S   S456      1.0  0.78203  0.05343  0.77815  1.0000
  Fe  Fe233     1.0  0.75152  0.04924  0.84759  1.0000
  S   S457      1.0  0.74511  0.02691  0.87334  1.0000
  Fe  Fe234     1.0  0.76931  0.08297  0.83454  1.0000
  S   S458      1.0  0.78681  0.09899  0.84160  1.0000
  S   S459      1.0  0.74114  0.05426  0.82111  1.0000
  S   S460      1.0  0.76046  0.09126  0.80699  1.0000
  Fe  Fe235     1.0  0.89777  0.05562  0.67964  1.0000
  S   S461      1.0  0.87171  0.04761  0.69923  1.0000
  S   S462      1.0  0.92422  0.03739  0.66668  1.0000
  Fe  Fe236     1.0  0.88311  0.09741  0.67752  1.0000
  S   S463      1.0  0.85570  0.09330  0.69673  1.0000
  H   H2642     1.0  0.58884  0.12111  0.72175  1.0000
  Fe  Fe237     1.0  0.87266  0.06953  0.71390  1.0000
  S   S464      1.0  0.86419  0.06769  0.74515  1.0000
  Fe  Fe238     1.0  0.85647  0.07198  0.68072  1.0000
  S   S465      1.0  0.82854  0.07206  0.67551  1.0000
  S   S466      1.0  0.90028  0.07538  0.69606  1.0000
  S   S467      1.0  0.88236  0.07818  0.65978  1.0000
  Fe  Fe239     1.0  0.77836  0.09825  0.57378  1.0000
  S   S468      1.0  0.77761  0.08475  0.60417  1.0000
  Fe  Fe240     1.0  0.77899  0.06128  0.56310  1.0000
  S   S469      1.0  0.77834  0.04461  0.59268  1.0000
  S   S470      1.0  0.78268  0.05220  0.53583  1.0000
  Fe  Fe241     1.0  0.75692  0.06976  0.60102  1.0000
  S   S471      1.0  0.72811  0.07003  0.61963  1.0000
  Fe  Fe242     1.0  0.79897  0.06106  0.59329  1.0000
  S   S472      1.0  0.82701  0.04960  0.60126  1.0000
  S   S473      1.0  0.75605  0.08527  0.57119  1.0000
  S   S474      1.0  0.80118  0.07568  0.56321  1.0000
  H   H2643     1.0  0.58744  0.03991  0.95980  1.0000
  H   H2644     1.0  0.95588  0.14520  0.51784  1.0000
  C   C3301     1.0  0.84484  0.05797  0.48732  1.0000
  C   C3302     1.0  0.98159  0.16792  0.55584  1.0000
  H   H2645     1.0  0.97998  0.08221  0.53125  1.0000
  H   H2646     1.0  0.82348  0.17485  0.62614  1.0000
  C   C3303     1.0  0.53786  0.07548  0.94102  1.0000
  C   C3304     1.0  0.79494  0.98840  0.59659  1.0000
  C   C3305     1.0  0.69895  0.14960  0.89487  1.0000
  C   C3306     1.0  0.56189  0.02179  0.80857  1.0000
  H   H2647     1.0  0.73325  0.06771  0.94333  1.0000
  C   C3307     1.0  0.59244  0.01659  0.81543  1.0000
  H   H2648     1.0  0.73796  0.10343  0.88781  1.0000
  H   H2649     1.0  0.54939  0.99926  0.76537  1.0000
  H   H2650     1.0  0.88792  0.99229  0.53068  1.0000
  C   C3308     1.0  0.68158  0.04918  0.91157  1.0000
  C   C3309     1.0  0.65518  0.16940  0.86942  1.0000
  C   C3310     1.0  0.72419  0.01104  0.79518  1.0000
  C   C3311     1.0  0.50484  0.00996  0.79029  1.0000
  C   C3312     1.0  0.83258  0.17281  0.65120  1.0000
  S   S475      1.0  0.65322  0.01225  0.90972  1.0000
  H   H2651     1.0  0.66351  0.01597  0.80404  1.0000
  H   H2652     1.0  0.81342  0.17179  0.55987  1.0000
  S   S476      1.0  0.56202  0.07866  0.96115  1.0000
  H   H2653     1.0  0.63322  0.03511  0.79793  1.0000
  C   C3313     1.0  0.52895  0.09589  0.78593  1.0000
  C   C3314     1.0  0.96482  0.08415  0.49217  1.0000
  H   H2654     1.0  0.87266  0.09882  0.48437  1.0000
  H   H2655     1.0  0.92589  0.99355  0.48098  1.0000
  C   C3315     1.0  0.69928  0.99115  0.75309  1.0000
  C   C3316     1.0  0.64534  0.00927  0.93404  1.0000
  H   H2656     1.0  0.67906  0.00719  0.96563  1.0000
  C   C3317     1.0  0.77490  0.14166  0.64224  1.0000
  H   H2657     1.0  0.85569  0.16270  0.60298  1.0000
  H   H2658     1.0  0.97083  0.03622  0.63566  1.0000
  H   H2659     1.0  0.95420  0.06316  0.60961  1.0000
  C   C3318     1.0  0.74317  0.14387  0.76806  1.0000
  H   H2660     1.0  0.76626  0.04320  0.73817  1.0000
  H   H2661     1.0  0.61286  0.16706  0.72025  1.0000
  C   C3319     1.0  0.95775  0.16080  0.67552  1.0000
  C   C3320     1.0  0.73297  0.08658  0.91619  1.0000
  C   C3321     1.0  0.68251  0.09245  0.95561  1.0000
  C   C3322     1.0  0.53446  0.05753  0.97297  1.0000
  C   C3323     1.0  0.51695  0.10807  0.81437  1.0000
  C   C3324     1.0  0.98089  0.05252  0.50383  1.0000
  H   H2662     1.0  0.65588  0.06994  0.91310  1.0000
  H   H2663     1.0  0.96334  0.10486  0.50764  1.0000
  C   C3325     1.0  0.63904  0.02233  0.79264  1.0000
  H   H2664     1.0  0.95601  0.05369  0.57715  1.0000
  H   H2665     1.0  0.61595  0.13844  0.80994  1.0000
  H   H2666     1.0  0.64867  0.15927  0.66209  1.0000
  H   H2667     1.0  0.94389  0.01891  0.63649  1.0000
  C   C3326     1.0  0.78735  0.02845  0.53419  1.0000
  C   C3327     1.0  0.78326  0.01419  0.54985  1.0000
  C   C3328     1.0  0.78645  0.99556  0.54766  1.0000
  C   C3329     1.0  0.69006  0.99017  0.94483  1.0000
  C   C3330     1.0  0.79869  0.00527  0.51439  1.0000
  C   C3331     1.0  0.79497  0.02391  0.51647  1.0000
  H   H2668     1.0  0.77724  0.01760  0.56351  1.0000
  C   C3332     1.0  0.83472  0.99454  0.54708  1.0000
  H   H2669     1.0  0.80466  0.00196  0.50066  1.0000
  H   H2670     1.0  0.79816  0.03485  0.50434  1.0000
  C   C3333     1.0  0.92227  0.01665  0.66165  1.0000
  C   C3334     1.0  0.90955  0.00589  0.67345  1.0000
  C   C3335     1.0  0.70917  0.98776  0.73545  1.0000
  P   P109      1.0  0.98390  0.17445  0.68511  1.0000
  C   C3336     1.0  0.90356  0.07211  0.51158  1.0000
  C   C3337     1.0  0.93410  0.01061  0.64573  1.0000
  H   H2671     1.0  0.90051  0.01040  0.68587  1.0000
  H   H2672     1.0  0.49305  0.00333  0.79704  1.0000
  C   C3338     1.0  0.82842  0.06547  0.65499  1.0000
  C   C3339     1.0  0.84480  0.06222  0.64145  1.0000
  C   C3340     1.0  0.84440  0.05653  0.62534  1.0000
  C   C3341     1.0  0.82742  0.05533  0.62216  1.0000
  C   C3342     1.0  0.81096  0.05879  0.63563  1.0000
  C   C3343     1.0  0.81155  0.06347  0.65222  1.0000
  H   H2673     1.0  0.85782  0.06387  0.64349  1.0000
  H   H2674     1.0  0.85721  0.05339  0.61517  1.0000
  H   H2675     1.0  0.79786  0.05745  0.63347  1.0000
  H   H2676     1.0  0.79888  0.06574  0.66283  1.0000
  C   C3344     1.0  0.73764  0.00849  0.86931  1.0000
  C   C3345     1.0  0.74413  0.00284  0.85211  1.0000
  H   H2677     1.0  0.69054  0.16929  0.59450  1.0000
  C   C3346     1.0  0.75767  0.15283  0.75723  1.0000
  H   H2678     1.0  0.51933  0.09801  0.58489  1.0000
  C   C3347     1.0  0.72516  0.99921  0.88364  1.0000
  H   H2679     1.0  0.75373  0.00999  0.84100  1.0000
  C   C3348     1.0  0.92630  0.01994  0.53360  1.0000
  C   C3349     1.0  0.98590  0.05069  0.57267  1.0000
  H   H2680     1.0  0.72015  0.00345  0.89699  1.0000
  C   C3350     1.0  0.80452  0.05813  0.76893  1.0000
  C   C3351     1.0  0.81315  0.06500  0.77916  1.0000
  C   C3352     1.0  0.83146  0.06797  0.77177  1.0000
  C   C3353     1.0  0.84105  0.06443  0.75403  1.0000
  C   C3354     1.0  0.83213  0.05814  0.74359  1.0000
  C   C3355     1.0  0.81404  0.05463  0.75120  1.0000
  H   H2681     1.0  0.80585  0.06779  0.79285  1.0000
  H   H2682     1.0  0.83808  0.07321  0.77972  1.0000
  H   H2683     1.0  0.83926  0.05574  0.72975  1.0000
  H   H2684     1.0  0.80731  0.04937  0.74329  1.0000
  C   C3356     1.0  0.60542  0.02548  0.74534  1.0000
  C   C3357     1.0  0.59160  0.01895  0.76039  1.0000
  C   C3358     1.0  0.58788  0.00103  0.76287  1.0000
  H   H2685     1.0  0.91705  0.15293  0.63367  1.0000
  C   C3359     1.0  0.86372  0.16827  0.74110  1.0000
  C   C3360     1.0  0.61539  0.01397  0.73265  1.0000
  H   H2686     1.0  0.58377  0.02783  0.77017  1.0000
  H   H2687     1.0  0.71952  0.99994  0.77396  1.0000
  C   C3361     1.0  0.88918  0.13386  0.57251  1.0000
  H   H2688     1.0  0.62588  0.01892  0.72084  1.0000
  C   C3362     1.0  0.71354  0.04799  0.68325  1.0000
  C   C3363     1.0  0.69956  0.05629  0.67292  1.0000
  C   C3364     1.0  0.70436  0.06231  0.65335  1.0000
  C   C3365     1.0  0.72318  0.06051  0.64396  1.0000
  C   C3366     1.0  0.73728  0.05198  0.65418  1.0000
  C   C3367     1.0  0.73244  0.04561  0.67381  1.0000
  H   H2689     1.0  0.68500  0.05790  0.67998  1.0000
  H   H2690     1.0  0.69343  0.06869  0.64547  1.0000
  H   H2691     1.0  0.75182  0.05063  0.64703  1.0000
  H   H2692     1.0  0.74331  0.03923  0.68175  1.0000
  C   C3368     1.0  0.67527  0.07028  0.79648  1.0000
  C   C3369     1.0  0.67597  0.08872  0.78669  1.0000
  C   C3370     1.0  0.68556  0.09927  0.79225  1.0000
  C   C3371     1.0  0.69485  0.09115  0.80719  1.0000
  C   C3372     1.0  0.69430  0.07266  0.81663  1.0000
  C   C3373     1.0  0.68430  0.06237  0.81153  1.0000
  H   H2693     1.0  0.66902  0.09486  0.77500  1.0000
  H   H2694     1.0  0.68610  0.11352  0.78475  1.0000
  H   H2695     1.0  0.70148  0.06627  0.82801  1.0000
  H   H2696     1.0  0.68387  0.04810  0.81906  1.0000
  H   H2697     1.0  0.80365  0.00458  0.68605  1.0000
  H   H2698     1.0  0.91204  0.01902  0.54054  1.0000
  H   H2699     1.0  0.55143  0.01651  0.80526  1.0000
  H   H2700     1.0  0.89307  0.09298  0.61803  1.0000
  H   H2701     1.0  0.52764  0.09556  0.77208  1.0000
  H   H2702     1.0  0.79855  0.15470  0.66506  1.0000
  H   H2703     1.0  0.85939  0.99376  0.72761  1.0000
  H   H2704     1.0  0.82091  0.14062  0.55201  1.0000
  H   H2705     1.0  0.88732  0.01867  0.49282  1.0000
  S   S477      1.0  0.51956  0.02284  0.86964  1.0000
  H   H2706     1.0  0.56551  0.14295  0.70406  1.0000
  C   C3374     1.0  0.83060  0.02826  0.54151  1.0000
  H   H2707     1.0  0.72529  0.02128  0.81887  1.0000
  H   H2708     1.0  0.72752  0.12018  0.53442  1.0000
  C   C3375     1.0  0.60293  0.03769  0.86609  1.0000
  C   C3376     1.0  0.61412  0.02784  0.85241  1.0000
  C   C3377     1.0  0.63148  0.03198  0.84276  1.0000
  C   C3378     1.0  0.63775  0.04597  0.84680  1.0000
  C   C3379     1.0  0.62694  0.05547  0.86103  1.0000
  C   C3380     1.0  0.60923  0.05158  0.87031  1.0000
  P   P110      1.0  0.63508  0.07365  0.86599  1.0000
  C   C3381     1.0  0.62403  0.07726  0.88944  1.0000
  C   C3382     1.0  0.65981  0.06684  0.86585  1.0000
  C   C3383     1.0  0.66883  0.04782  0.86882  1.0000
  C   C3384     1.0  0.68802  0.04270  0.86849  1.0000
  C   C3385     1.0  0.69821  0.05649  0.86574  1.0000
  C   C3386     1.0  0.68926  0.07540  0.86333  1.0000
  C   C3387     1.0  0.67008  0.08057  0.86359  1.0000
  C   C3388     1.0  0.61798  0.09542  0.89312  1.0000
  C   C3389     1.0  0.60923  0.09800  0.91134  1.0000
  C   C3390     1.0  0.60678  0.08249  0.92601  1.0000
  C   C3391     1.0  0.61329  0.06438  0.92253  1.0000
  C   C3392     1.0  0.62202  0.06174  0.90436  1.0000
  C   C3393     1.0  0.62924  0.09440  0.84838  1.0000
  C   C3394     1.0  0.64294  0.10032  0.83285  1.0000
  C   C3395     1.0  0.63816  0.11626  0.81917  1.0000
  C   C3396     1.0  0.61962  0.12617  0.82066  1.0000
  C   C3397     1.0  0.60578  0.12004  0.83576  1.0000
  C   C3398     1.0  0.61054  0.10415  0.84952  1.0000
  H   H2709     1.0  0.58939  0.03453  0.87343  1.0000
  H   H2710     1.0  0.60928  0.01712  0.84902  1.0000
  H   H2711     1.0  0.64012  0.02427  0.83219  1.0000
  H   H2712     1.0  0.65111  0.04924  0.83889  1.0000
  H   H2713     1.0  0.60027  0.05918  0.88082  1.0000
  H   H2714     1.0  0.66112  0.03683  0.87158  1.0000
  H   H2715     1.0  0.69492  0.02801  0.87065  1.0000
  H   H2716     1.0  0.71305  0.05252  0.86548  1.0000
  H   H2717     1.0  0.69730  0.08605  0.86078  1.0000
  H   H2718     1.0  0.66336  0.09528  0.86174  1.0000
  H   H2719     1.0  0.61995  0.10760  0.88200  1.0000
  H   H2720     1.0  0.60423  0.11201  0.91416  1.0000
  H   H2721     1.0  0.59981  0.08448  0.94010  1.0000
  C   C3399     1.0  0.59718  0.98989  0.74966  1.0000
  H   H2722     1.0  0.62711  0.04758  0.90197  1.0000
  H   H2723     1.0  0.65725  0.09249  0.83102  1.0000
  H   H2724     1.0  0.64883  0.12076  0.80725  1.0000
  H   H2725     1.0  0.59135  0.12755  0.83672  1.0000
  H   H2726     1.0  0.59966  0.09941  0.86103  1.0000
  C   C3400     1.0  0.88623  0.00824  0.62120  1.0000
  C   C3401     1.0  0.89349  0.02165  0.62504  1.0000
  C   C3402     1.0  0.88512  0.02892  0.64117  1.0000
  C   C3403     1.0  0.86972  0.02251  0.65368  1.0000
  C   C3404     1.0  0.86230  0.00904  0.64991  1.0000
  C   C3405     1.0  0.87058  0.00215  0.63344  1.0000
  P   P111      1.0  0.84332  0.99950  0.66666  1.0000
  H   H2727     1.0  0.87312  0.11011  0.54982  1.0000
  C   C3406     1.0  0.84057  0.00642  0.68855  1.0000
  C   C3407     1.0  0.97028  0.02461  0.57878  1.0000
  H   H2728     1.0  0.74442  0.99609  0.73851  1.0000
  C   C3408     1.0  0.83754  0.01793  0.72186  1.0000
  C   C3409     1.0  0.82649  0.02865  0.70902  1.0000
  C   C3410     1.0  0.82808  0.02300  0.69237  1.0000
  C   C3411     1.0  0.94084  0.09143  0.59867  1.0000
  H   H2729     1.0  0.96876  0.08332  0.65267  1.0000
  H   H2730     1.0  0.69929  0.16276  0.89785  1.0000
  C   C3412     1.0  0.65635  0.17861  0.61815  1.0000
  H   H2731     1.0  0.86339  0.13852  0.56329  1.0000
  C   C3413     1.0  0.59058  0.99343  0.88311  1.0000
  C   C3414     1.0  0.82189  0.01041  0.63897  1.0000
  C   C3415     1.0  0.80515  0.01503  0.63264  1.0000
  C   C3416     1.0  0.63157  0.00604  0.97276  1.0000
  C   C3417     1.0  0.95747  0.13930  0.53221  1.0000
  H   H2732     1.0  0.69093  0.00503  0.75414  1.0000
  H   H2733     1.0  0.79431  0.16000  0.63067  1.0000
  H   H2734     1.0  0.90590  0.02605  0.61580  1.0000
  H   H2735     1.0  0.89090  0.03915  0.64430  1.0000
  H   H2736     1.0  0.86377  0.02817  0.66623  1.0000
  H   H2737     1.0  0.76323  0.15286  0.64581  1.0000
  H   H2738     1.0  0.54243  0.98485  0.82264  1.0000
  H   H2739     1.0  0.48911  0.08369  0.64175  1.0000
  H   H2740     1.0  0.83659  0.02248  0.73458  1.0000
  H   H2741     1.0  0.81712  0.04173  0.71159  1.0000
  H   H2742     1.0  0.81992  0.03188  0.68229  1.0000
  H   H2743     1.0  0.83445  0.01301  0.51994  1.0000
  H   H2744     1.0  0.51035  0.05801  0.84410  1.0000
  C   C3418     1.0  0.97536  0.13267  0.53614  1.0000
  H   H2745     1.0  0.69622  0.13184  0.85896  1.0000
  C   C3419     1.0  0.67058  0.06685  0.91358  1.0000
  H   H2746     1.0  0.83487  0.01007  0.62865  1.0000
  H   H2747     1.0  0.80552  0.01816  0.61770  1.0000
  C   C3420     1.0  0.69370  0.99661  0.81875  1.0000
  H   H2748     1.0  0.82157  0.00490  0.76593  1.0000
  C   C3421     1.0  0.61107  0.99640  0.73465  1.0000
  C   C3422     1.0  0.53226  0.09667  0.82176  1.0000
  C   C3423     1.0  0.51969  0.03661  0.78196  1.0000
  C   C3424     1.0  0.53607  0.02606  0.77288  1.0000
  C   C3425     1.0  0.51370  0.05696  0.95321  1.0000
  C   C3426     1.0  0.82021  0.01488  0.79038  1.0000
  C   C3427     1.0  0.69720  0.13219  0.87293  1.0000
  H   H2749     1.0  0.57746  0.99609  0.77469  1.0000
  H   H2750     1.0  0.74556  0.02969  0.72708  1.0000
  H   H2751     1.0  0.89306  0.00219  0.60901  1.0000
  C   C3428     1.0  0.81813  0.07580  0.50538  1.0000
  C   C3429     1.0  0.85201  0.99601  0.70129  1.0000
  H   H2752     1.0  0.83553  0.11721  0.83797  1.0000
  H   H2753     1.0  0.51924  0.05107  0.78193  1.0000
  H   H2754     1.0  0.54823  0.03223  0.76609  1.0000
  C   C3430     1.0  0.76501  0.99031  0.75546  1.0000
  H   H2755     1.0  0.49627  0.05574  0.75873  1.0000
  C   C3431     1.0  0.76170  0.11432  0.76077  1.0000
  C   C3432     1.0  0.53215  0.00105  0.84390  1.0000
  C   C3433     1.0  0.80784  0.13123  0.62901  1.0000
  C   C3434     1.0  0.85040  0.00171  0.71793  1.0000
  H   H2756     1.0  0.69598  0.16199  0.86646  1.0000
  C   C3435     1.0  0.50054  0.06336  0.83481  1.0000
  H   H2757     1.0  0.98098  0.10839  0.69030  1.0000
  C   C3436     1.0  0.50383  0.02871  0.79044  1.0000
  H   H2758     1.0  0.72225  0.16846  0.68547  1.0000
  H   H2759     1.0  0.54535  0.00491  0.84217  1.0000
  C   C3437     1.0  0.54355  0.06990  0.95835  1.0000
  C   C3438     1.0  0.70286  0.10888  0.97041  1.0000
  C   C3439     1.0  0.95398  0.17668  0.71618  1.0000
  C   C3440     1.0  0.82974  0.02699  0.56050  1.0000
  C   C3441     1.0  0.53611  0.98916  0.94685  1.0000
  S   S478      1.0  0.65254  0.12232  0.71157  1.0000
  P   P112      1.0  0.92316  0.12780  0.58391  1.0000
  C   C3442     1.0  0.92021  0.07451  0.49865  1.0000
  H   H2760     1.0  0.82882  0.04182  0.53208  1.0000
  C   C3443     1.0  0.74160  0.07337  0.92999  1.0000
  H   H2761     1.0  0.80979  0.14832  0.58992  1.0000
  C   C3444     1.0  0.94946  0.14674  0.67445  1.0000
  H   H2762     1.0  0.82791  0.03954  0.56568  1.0000
  C   C3445     1.0  0.71428  0.14956  0.53081  1.0000
  H   H2763     1.0  0.87577  0.13967  0.78102  1.0000
  H   H2764     1.0  0.60502  0.99360  0.87613  1.0000
  C   C3446     1.0  0.49831  0.99031  0.84901  1.0000
  H   H2765     1.0  0.93346  0.06715  0.50241  1.0000
  H   H2766     1.0  0.90443  0.06296  0.52515  1.0000
  H   H2767     1.0  0.65690  0.16220  0.85830  1.0000
  C   C3447     1.0  0.86597  0.11169  0.61955  1.0000
  C   C3448     1.0  0.77200  0.12353  0.64523  1.0000
  C   C3449     1.0  0.57785  0.99285  0.87300  1.0000
  S   S479      1.0  0.93484  0.98642  0.59484  1.0000
  H   H2768     1.0  0.73602  0.01667  0.78607  1.0000
  C   C3450     1.0  0.94167  0.13808  0.54677  1.0000
  C   C3451     1.0  0.68214  0.99316  0.96300  1.0000
  C   C3452     1.0  0.79258  0.14564  0.63362  1.0000
  H   H2769     1.0  0.86523  0.99165  0.63039  1.0000
  C   C3453     1.0  0.69663  0.15414  0.81711  1.0000
  C   C3454     1.0  0.89970  0.12920  0.69405  1.0000
  H   H2770     1.0  0.71063  0.11542  0.97610  1.0000
  C   C3455     1.0  0.70062  0.15591  0.68339  1.0000
  C   C3456     1.0  0.59021  0.17424  0.70544  1.0000
  C   C3457     1.0  0.98356  0.05861  0.51881  1.0000
  C   C3458     1.0  0.51951  0.05126  0.97045  1.0000
  C   C3459     1.0  0.69769  0.15723  0.65172  1.0000
  C   C3460     1.0  0.69162  0.15208  0.67129  1.0000
  P   P113      1.0  0.68456  0.15510  0.63583  1.0000
  C   C3461     1.0  0.81094  0.01575  0.80886  1.0000
  C   C3462     1.0  0.70107  0.14670  0.61619  1.0000
  C   C3463     1.0  0.70042  0.15624  0.59759  1.0000
  C   C3464     1.0  0.71281  0.14901  0.58260  1.0000
  C   C3465     1.0  0.72564  0.13207  0.58602  1.0000
  C   C3466     1.0  0.72638  0.12257  0.60447  1.0000
  C   C3467     1.0  0.71466  0.13022  0.61947  1.0000
  C   C3468     1.0  0.92204  0.16528  0.58361  1.0000
  C   C3469     1.0  0.50605  0.08949  0.61388  1.0000
  C   C3470     1.0  0.84015  0.13028  0.83453  1.0000
  C   C3471     1.0  0.83141  0.00951  0.57282  1.0000
  C   C3472     1.0  0.77702  0.99775  0.76152  1.0000
  C   C3473     1.0  0.66902  0.13897  0.64768  1.0000
  C   C3474     1.0  0.65230  0.14508  0.65995  1.0000
  C   C3475     1.0  0.64041  0.13278  0.66994  1.0000
  C   C3476     1.0  0.64509  0.11422  0.66775  1.0000
  C   C3477     1.0  0.66142  0.10810  0.65521  1.0000
  C   C3478     1.0  0.67328  0.12043  0.64507  1.0000
  H   H2771     1.0  0.69565  0.15220  0.69848  1.0000
  C   C3479     1.0  0.77396  0.14517  0.80205  1.0000
  C   C3480     1.0  0.96228  0.17202  0.62361  1.0000
  H   H2772     1.0  0.83147  0.02234  0.78363  1.0000
  H   H2773     1.0  0.67983  0.14528  0.67734  1.0000
  C   C3481     1.0  0.97888  0.00810  0.65100  1.0000
  H   H2774     1.0  0.71245  0.15651  0.56833  1.0000
  H   H2775     1.0  0.73521  0.12641  0.57441  1.0000
  H   H2776     1.0  0.73621  0.10933  0.60714  1.0000
  H   H2777     1.0  0.71585  0.12298  0.63364  1.0000
  C   C3482     1.0  0.62960  0.01715  0.78189  1.0000
  H   H2778     1.0  0.96853  0.01584  0.54368  1.0000
  C   C3483     1.0  0.89660  0.15197  0.60519  1.0000
  C   C3484     1.0  0.71477  0.00149  0.78837  1.0000
  H   H2779     1.0  0.88953  0.15864  0.75090  1.0000
  H   H2780     1.0  0.94246  0.98941  0.62922  1.0000
  H   H2781     1.0  0.62793  0.13739  0.67998  1.0000
  H   H2782     1.0  0.63617  0.10452  0.67595  1.0000
  H   H2783     1.0  0.66500  0.09369  0.65351  1.0000
  H   H2784     1.0  0.68566  0.11519  0.63540  1.0000
  C   C3485     1.0  0.84572  0.10660  0.60217  1.0000
  C   C3486     1.0  0.85945  0.09158  0.59653  1.0000
  C   C3487     1.0  0.87646  0.08658  0.60236  1.0000
  H   H2785     1.0  0.83267  0.11037  0.59740  1.0000
  H   H2786     1.0  0.85666  0.08360  0.58797  1.0000
  H   H2787     1.0  0.88704  0.07479  0.59818  1.0000
  H   H2788     1.0  0.82372  0.08803  0.52519  1.0000
  C   C3488     1.0  0.95778  0.12788  0.67982  1.0000
  C   C3489     1.0  0.70049  0.10480  0.68377  1.0000
  C   C3490     1.0  0.71308  0.09796  0.66873  1.0000
  C   C3491     1.0  0.73222  0.09292  0.66857  1.0000
  C   C3492     1.0  0.73878  0.09456  0.68359  1.0000
  C   C3493     1.0  0.72629  0.10213  0.69848  1.0000
  C   C3494     1.0  0.70703  0.10699  0.69855  1.0000
  P   P114      1.0  0.73459  0.10334  0.71841  1.0000
  C   C3495     1.0  0.73002  0.08360  0.73722  1.0000
  C   C3496     1.0  0.75932  0.10355  0.71161  1.0000
  C   C3497     1.0  0.77186  0.09186  0.72273  1.0000
  C   C3498     1.0  0.79099  0.09193  0.71697  1.0000
  C   C3499     1.0  0.79779  0.10331  0.70002  1.0000
  C   C3500     1.0  0.78549  0.11467  0.68872  1.0000
  C   C3501     1.0  0.76629  0.11509  0.69462  1.0000
  C   C3502     1.0  0.72479  0.06840  0.73402  1.0000
  C   C3503     1.0  0.71854  0.05466  0.74922  1.0000
  C   C3504     1.0  0.71798  0.05578  0.76751  1.0000
  C   C3505     1.0  0.72450  0.07006  0.77064  1.0000
  C   C3506     1.0  0.73014  0.08413  0.75561  1.0000
  C   C3507     1.0  0.72155  0.12442  0.72673  1.0000
  C   C3508     1.0  0.70338  0.12482  0.73787  1.0000
  C   C3509     1.0  0.69284  0.14118  0.74382  1.0000
  C   C3510     1.0  0.70037  0.15723  0.73890  1.0000
  C   C3511     1.0  0.71858  0.15684  0.72828  1.0000
  C   C3512     1.0  0.72918  0.14052  0.72222  1.0000
  H   H2789     1.0  0.68557  0.10812  0.68416  1.0000
  H   H2790     1.0  0.70796  0.09607  0.65742  1.0000
  H   H2791     1.0  0.74188  0.08715  0.65707  1.0000
  H   H2792     1.0  0.75355  0.08958  0.68363  1.0000
  H   H2793     1.0  0.69688  0.11207  0.71012  1.0000
  H   H2794     1.0  0.76708  0.08257  0.73576  1.0000
  H   H2795     1.0  0.80068  0.08300  0.72549  1.0000
  H   H2796     1.0  0.81269  0.10296  0.69542  1.0000
  H   H2797     1.0  0.79096  0.12288  0.67526  1.0000
  H   H2798     1.0  0.75689  0.12416  0.68578  1.0000
  H   H2799     1.0  0.72447  0.06757  0.72000  1.0000
  H   H2800     1.0  0.71330  0.04364  0.74682  1.0000
  H   H2801     1.0  0.71186  0.04602  0.77932  1.0000
  H   H2802     1.0  0.72443  0.07068  0.78482  1.0000
  H   H2803     1.0  0.73391  0.09577  0.75843  1.0000
  H   H2804     1.0  0.69720  0.11254  0.74184  1.0000
  H   H2805     1.0  0.67872  0.14148  0.75213  1.0000
  S   S480      1.0  0.48923  0.01956  0.92010  1.0000
  H   H2806     1.0  0.72436  0.16933  0.72453  1.0000
  H   H2807     1.0  0.74319  0.14067  0.71398  1.0000
  C   C3513     1.0  0.64867  0.16979  0.72815  1.0000
  C   C3514     1.0  0.85674  0.06186  0.49652  1.0000
  C   C3515     1.0  0.84939  0.07273  0.51028  1.0000
  P   P115      1.0  0.86466  0.07686  0.52290  1.0000
  C   C3516     1.0  0.85248  0.09722  0.53279  1.0000
  C   C3517     1.0  0.87000  0.05672  0.54137  1.0000
  C   C3518     1.0  0.87435  0.05894  0.55755  1.0000
  C   C3519     1.0  0.87776  0.04347  0.57215  1.0000
  C   C3520     1.0  0.87726  0.02565  0.57052  1.0000
  C   C3521     1.0  0.87373  0.02325  0.55418  1.0000
  C   C3522     1.0  0.87038  0.03864  0.53953  1.0000
  C   C3523     1.0  0.85330  0.11544  0.52216  1.0000
  C   C3524     1.0  0.84226  0.13108  0.52926  1.0000
  C   C3525     1.0  0.83021  0.12863  0.54688  1.0000
  C   C3526     1.0  0.82945  0.11061  0.55760  1.0000
  C   C3527     1.0  0.84050  0.09497  0.55062  1.0000
  C   C3528     1.0  0.88621  0.08092  0.50666  1.0000
  C   C3529     1.0  0.83703  0.15660  0.76190  1.0000
  C   C3530     1.0  0.87486  0.15802  0.75401  1.0000
  C   C3531     1.0  0.97616  0.10849  0.63391  1.0000
  H   H2808     1.0  0.96317  0.16559  0.58293  1.0000
  C   C3532     1.0  0.98299  0.13707  0.68706  1.0000
  H   H2809     1.0  0.87490  0.07263  0.55897  1.0000
  H   H2810     1.0  0.88053  0.04527  0.58486  1.0000
  H   H2811     1.0  0.87969  0.01360  0.58179  1.0000
  H   H2812     1.0  0.87340  0.00940  0.55300  1.0000
  H   H2813     1.0  0.86784  0.03630  0.52698  1.0000
  H   H2814     1.0  0.86211  0.11768  0.50829  1.0000
  H   H2815     1.0  0.84261  0.14509  0.52087  1.0000
  H   H2816     1.0  0.81956  0.10873  0.57094  1.0000
  H   H2817     1.0  0.83902  0.08113  0.55888  1.0000
  H   H2818     1.0  0.88950  0.14041  0.61145  1.0000
  H   H2819     1.0  0.84859  0.16749  0.79871  1.0000
  H   H2820     1.0  0.62992  0.99680  0.76646  1.0000
  C   C3533     1.0  0.84512  0.07608  0.81546  1.0000
  C   C3534     1.0  0.86115  0.06936  0.80289  1.0000
  C   C3535     1.0  0.86985  0.08196  0.78823  1.0000
  C   C3536     1.0  0.86285  0.10130  0.78641  1.0000
  C   C3537     1.0  0.84698  0.10821  0.79926  1.0000
  C   C3538     1.0  0.83801  0.09537  0.81360  1.0000
  P   P116      1.0  0.83775  0.13319  0.79742  1.0000
  C   C3539     1.0  0.84245  0.14102  0.81609  1.0000
  C   C3540     1.0  0.84805  0.14636  0.77502  1.0000
  C   C3541     1.0  0.94692  0.14794  0.62295  1.0000
  H   H2821     1.0  0.70822  0.99896  0.72306  1.0000
  C   C3542     1.0  0.67592  0.09586  0.97381  1.0000
  H   H2822     1.0  0.69304  0.00184  0.93335  1.0000
  H   H2823     1.0  0.64748  0.03711  0.93404  1.0000
  C   C3543     1.0  0.70298  0.00642  0.82541  1.0000
  H   H2824     1.0  0.56291  0.08923  0.87950  1.0000
  H   H2825     1.0  0.78659  0.02300  0.75944  1.0000
  H   H2826     1.0  0.77504  0.02015  0.64043  1.0000
  C   C3544     1.0  0.84761  0.15839  0.81251  1.0000
  C   C3545     1.0  0.64370  0.02417  0.94246  1.0000
  C   C3546     1.0  0.82555  0.06485  0.49182  1.0000
  H   H2827     1.0  0.83792  0.06635  0.82647  1.0000
  H   H2828     1.0  0.86643  0.05439  0.80406  1.0000
  H   H2829     1.0  0.88177  0.07670  0.77797  1.0000
  H   H2830     1.0  0.86971  0.11061  0.77472  1.0000
  H   H2831     1.0  0.82527  0.10024  0.82317  1.0000
  C   C3547     1.0  0.74526  0.12458  0.77000  1.0000
  C   C3548     1.0  0.79040  0.99661  0.80751  1.0000
  C   C3549     1.0  0.96171  0.12398  0.56926  1.0000
  C   C3550     1.0  0.84864  0.11646  0.61414  1.0000
  S   S481      1.0  0.49391  0.04963  0.95146  1.0000
  C   C3551     1.0  0.82995  0.07974  0.51459  1.0000
  H   H2832     1.0  0.93603  0.01313  0.55934  1.0000
  H   H2833     1.0  0.63605  0.03396  0.96819  1.0000
  H   H2834     1.0  0.58044  0.98383  0.96746  1.0000
  H   H2835     1.0  0.61643  0.02589  0.77898  1.0000
  H   H2836     1.0  0.86893  0.11938  0.62824  1.0000
  C   C3552     1.0  0.57430  0.03537  0.93980  1.0000
  C   C3553     1.0  0.57843  0.99815  0.95971  1.0000
  C   C3554     1.0  0.74658  0.13726  0.53344  1.0000
  H   H2837     1.0  0.70078  0.14725  0.53070  1.0000
  H   H2838     1.0  0.75808  0.12070  0.65106  1.0000
  H   H2839     1.0  0.66787  0.16687  0.82587  1.0000
  C   C3555     1.0  0.80430  0.00769  0.67108  1.0000
  H   H2840     1.0  0.81629  0.06158  0.48497  1.0000
  H   H2841     1.0  0.70929  0.03178  0.90950  1.0000
  H   H2842     1.0  0.58212  0.99560  0.80897  1.0000
  C   C3556     1.0  0.57911  0.00994  0.81078  1.0000
  S   S482      1.0  0.98561  0.07487  0.56774  1.0000
  C   C3557     1.0  0.90676  0.12199  0.57381  1.0000
  C   C3558     1.0  0.57603  0.14823  0.70728  1.0000
  S   S483      1.0  0.49135  0.06242  0.89531  1.0000
  C   C3559     1.0  0.76355  0.08713  0.89547  1.0000
  C   C3560     1.0  0.87980  0.09678  0.61365  1.0000
  H   H2843     1.0  0.60574  0.00743  0.81743  1.0000
  H   H2844     1.0  0.76630  0.00144  0.60658  1.0000
  C   C3561     1.0  0.58906  0.13595  0.71734  1.0000
  H   H2845     1.0  0.63935  0.11999  0.75202  1.0000
  H   H2846     1.0  0.69851  0.00825  0.83980  1.0000
  H   H2847     1.0  0.84144  0.12828  0.86318  1.0000
  C   C3562     1.0  0.66434  0.99528  0.78855  1.0000
  H   H2848     1.0  0.78474  0.09509  0.64278  1.0000
  C   C3563     1.0  0.78702  0.10914  0.64047  1.0000
  C   C3564     1.0  0.77438  0.17462  0.58000  1.0000
  C   C3565     1.0  0.55780  0.04008  0.81154  1.0000
  C   C3566     1.0  0.60224  0.14284  0.72199  1.0000
  H   H2849     1.0  0.61211  0.13331  0.73006  1.0000
  H   H2850     1.0  0.76347  0.09928  0.76243  1.0000
  H   H2851     1.0  0.81346  0.11412  0.78801  1.0000
  H   H2852     1.0  0.50622  0.11707  0.82263  1.0000
  C   C3567     1.0  0.72930  0.13432  0.53291  1.0000
  C   C3568     1.0  0.58884  0.03517  0.81730  1.0000
  H   H2853     1.0  0.76229  0.12538  0.59849  1.0000
  C   C3569     1.0  0.64206  0.13383  0.74539  1.0000
  C   C3570     1.0  0.80499  0.11282  0.63288  1.0000
  H   H2854     1.0  0.84242  0.10361  0.75486  1.0000
  C   C3571     1.0  0.74892  0.15542  0.53181  1.0000
  C   C3572     1.0  0.51519  0.10755  0.79656  1.0000
  C   C3573     1.0  0.90870  0.98912  0.66924  1.0000
  C   C3574     1.0  0.82063  0.15637  0.58637  1.0000
  C   C3575     1.0  0.61841  0.09633  0.79314  1.0000
  C   C3576     1.0  0.76602  0.02838  0.74285  1.0000
  C   C3577     1.0  0.71817  0.01368  0.81363  1.0000
  H   H2855     1.0  0.95761  0.01943  0.58143  1.0000
  H   H2856     1.0  0.81650  0.10119  0.63030  1.0000
  H   H2857     1.0  0.49121  0.17833  0.57117  1.0000
  C   C3578     1.0  0.75428  0.02082  0.73674  1.0000
  C   C3579     1.0  0.92870  0.17564  0.63465  1.0000
  C   C3580     1.0  0.69945  0.99415  0.80015  1.0000
  H   H2858     1.0  0.92049  0.02718  0.50585  1.0000
  C   C3581     1.0  0.64932  0.13814  0.72603  1.0000
  C   C3582     1.0  0.76716  0.17297  0.70876  1.0000
  H   H2859     1.0  0.77284  0.16858  0.81385  1.0000
  H   H2860     1.0  0.51862  0.08004  0.61768  1.0000
  H   H2861     1.0  0.72250  0.10946  0.94399  1.0000
  C   C3583     1.0  0.83233  0.15399  0.59881  1.0000
  S   S484      1.0  0.66946  0.98978  0.86803  1.0000
  H   H2862     1.0  0.78540  0.16561  0.76804  1.0000
  H   H2863     1.0  0.54476  0.08509  0.92966  1.0000
  C   C3584     1.0  0.77269  0.15039  0.85445  1.0000
  H   H2864     1.0  0.67430  0.08605  0.95039  1.0000
  C   C3585     1.0  0.63691  0.02252  0.96178  1.0000
  C   C3586     1.0  0.71528  0.15491  0.81512  1.0000
  C   C3587     1.0  0.78756  0.01257  0.66466  1.0000
  S   S485      1.0  0.78174  0.12793  0.55989  1.0000
  H   H2865     1.0  0.54388  0.04847  0.81105  1.0000
  H   H2866     1.0  0.57070  0.09260  0.84496  1.0000
  P   P117      1.0  0.83095  0.13641  0.62032  1.0000
  H   H2867     1.0  0.53928  0.99084  0.90812  1.0000
  C   C3588     1.0  0.81566  0.14132  0.73094  1.0000
  H   H2868     1.0  0.77422  0.01357  0.67457  1.0000
  C   C3589     1.0  0.92970  0.15830  0.63071  1.0000
  C   C3590     1.0  0.89653  0.16814  0.68243  1.0000
  H   H2869     1.0  0.85993  0.14422  0.70591  1.0000
  C   C3591     1.0  0.98172  0.02360  0.63646  1.0000
  H   H2870     1.0  0.80966  0.12012  0.75616  1.0000
  H   H2871     1.0  0.58232  0.99289  0.85810  1.0000
  H   H2872     1.0  0.96371  0.11796  0.58347  1.0000
  C   C3592     1.0  0.88858  0.16920  0.61049  1.0000
  C   C3593     1.0  0.58271  0.02977  0.95533  1.0000
  C   C3594     1.0  0.83893  0.11598  0.74423  1.0000
  H   H2873     1.0  0.80891  0.14422  0.69508  1.0000
  H   H2874     1.0  0.86763  0.11521  0.72965  1.0000
  H   H2875     1.0  0.70079  0.10238  0.88264  1.0000
  C   C3595     1.0  0.64895  0.16046  0.88797  1.0000
  C   C3596     1.0  0.81451  0.00501  0.78038  1.0000
  S   S486      1.0  0.88947  0.12598  0.66287  1.0000
  C   C3597     1.0  0.51676  0.00771  0.85706  1.0000
  H   H2876     1.0  0.77974  0.15992  0.85693  1.0000
  C   C3598     1.0  0.85319  0.12259  0.73006  1.0000
  C   C3599     1.0  0.64058  0.99245  0.94507  1.0000
  H   H2877     1.0  0.61156  0.05237  0.93395  1.0000
  H   H2878     1.0  0.90098  0.11418  0.69862  1.0000
  C   C3600     1.0  0.60274  0.16192  0.71623  1.0000
  H   H2879     1.0  0.76765  0.05682  0.93713  1.0000
  C   C3601     1.0  0.79576  0.15410  0.69429  1.0000
  C   C3602     1.0  0.77746  0.01687  0.75507  1.0000
  C   C3603     1.0  0.84341  0.13658  0.84897  1.0000
  H   H2880     1.0  0.75575  0.16781  0.75563  1.0000
  H   H2881     1.0  0.63147  0.14464  0.77086  1.0000
  H   H2882     1.0  0.59965  0.03999  0.82034  1.0000
  C   C3604     1.0  0.57145  0.04709  0.81554  1.0000
  C   C3605     1.0  0.83366  0.01201  0.53471  1.0000
  H   H2883     1.0  0.57267  0.04984  0.93221  1.0000
  H   H2884     1.0  0.78874  0.00752  0.83171  1.0000
  C   C3606     1.0  0.79247  0.17607  0.73817  1.0000
  P   P118      1.0  0.79187  0.15470  0.73215  1.0000
  C   C3607     1.0  0.56039  0.07898  0.87329  1.0000
  C   C3608     1.0  0.63755  0.14780  0.75600  1.0000
  H   H2885     1.0  0.93483  0.16423  0.57301  1.0000
  C   C3609     1.0  0.82027  0.12532  0.74475  1.0000
  C   C3610     1.0  0.74411  0.09339  0.89886  1.0000
  C   C3611     1.0  0.78177  0.15692  0.80785  1.0000
  H   H2886     1.0  0.74761  0.11636  0.84483  1.0000
  C   C3612     1.0  0.49978  0.00231  0.85973  1.0000
  C   C3613     1.0  0.61808  0.08265  0.80970  1.0000
  C   C3614     1.0  0.70129  0.13299  0.90844  1.0000
  C   C3615     1.0  0.96800  0.09024  0.50675  1.0000
  H   H2887     1.0  0.84348  0.11880  0.65597  1.0000
  H   H2888     1.0  0.78813  0.11533  0.74167  1.0000
  C   C3616     1.0  0.84882  0.13880  0.71659  1.0000
  C   C3617     1.0  0.50645  0.09961  0.59542  1.0000
  C   C3618     1.0  0.56482  0.08080  0.85375  1.0000
  H   H2889     1.0  0.70336  0.13364  0.92185  1.0000
  C   C3619     1.0  0.73407  0.17088  0.52917  1.0000
  C   C3620     1.0  0.53681  0.00749  0.77251  1.0000
  C   C3621     1.0  0.56754  0.02248  0.93444  1.0000
  C   C3622     1.0  0.73847  0.98762  0.84945  1.0000
  C   C3623     1.0  0.76527  0.13921  0.59315  1.0000
  C   C3624     1.0  0.77484  0.14407  0.57467  1.0000
  H   H2890     1.0  0.61835  0.98791  0.72434  1.0000
  C   C3625     1.0  0.83017  0.14821  0.71713  1.0000
  H   H2891     1.0  0.92592  0.09711  0.56575  1.0000
  C   C3626     1.0  0.77592  0.12338  0.74941  1.0000
  H   H2892     1.0  0.54861  0.06287  0.89998  1.0000
  H   H2893     1.0  0.51861  0.07358  0.92516  1.0000
  C   C3627     1.0  0.55233  0.06413  0.88487  1.0000
  C   C3628     1.0  0.78976  0.15976  0.67726  1.0000
  C   C3629     1.0  0.83322  0.99323  0.56631  1.0000
  C   C3630     1.0  0.82952  0.16531  0.63752  1.0000
  C   C3631     1.0  0.79604  0.00664  0.81742  1.0000
  H   H2894     1.0  0.63045  0.07750  0.81569  1.0000
  H   H2895     1.0  0.90870  0.13198  0.71782  1.0000
  C   C3632     1.0  0.65283  0.15603  0.71757  1.0000
  C   C3633     1.0  0.84899  0.15366  0.84515  1.0000
  H   H2896     1.0  0.60200  0.06498  0.83123  1.0000
  H   H2897     1.0  0.82707  0.16108  0.70700  1.0000
  C   C3634     1.0  0.56141  0.06760  0.84567  1.0000
  H   H2898     1.0  0.94188  0.06576  0.64293  1.0000
  C   C3635     1.0  0.77388  0.12053  0.84714  1.0000
  H   H2899     1.0  0.82241  0.15625  0.76466  1.0000
  C   C3636     1.0  0.91341  0.14982  0.59167  1.0000
  H   H2900     1.0  0.63100  0.10177  0.78645  1.0000
  H   H2901     1.0  0.95094  0.11706  0.67952  1.0000
  P   P119      1.0  0.56617  0.07036  0.82042  1.0000
  C   C3637     1.0  0.58637  0.08103  0.80991  1.0000
  C   C3638     1.0  0.60203  0.07533  0.81826  1.0000
  H   H2902     1.0  0.75125  0.14864  0.61872  1.0000
  C   C3639     1.0  0.55369  0.99141  0.90151  1.0000
  C   C3640     1.0  0.58678  0.09491  0.79326  1.0000
  C   C3641     1.0  0.52314  0.06889  0.93839  1.0000
  C   C3642     1.0  0.64075  0.16590  0.74733  1.0000
  S   S487      1.0  0.90915  0.17081  0.71249  1.0000
  C   C3643     1.0  0.60268  0.10265  0.78505  1.0000
  C   C3644     1.0  0.96344  0.15454  0.61975  1.0000
  H   H2903     1.0  0.73020  0.15186  0.77479  1.0000
  C   C3645     1.0  0.88251  0.11347  0.55634  1.0000
  C   C3646     1.0  0.89404  0.13850  0.67719  1.0000
  C   C3647     1.0  0.75464  0.12563  0.84775  1.0000
  H   H2904     1.0  0.55514  0.07592  0.78461  1.0000
  C   C3648     1.0  0.54870  0.05109  0.87692  1.0000
  C   C3649     1.0  0.80481  0.12620  0.79344  1.0000
  C   C3650     1.0  0.93843  0.07761  0.63178  1.0000
  H   H2905     1.0  0.92189  0.09552  0.65073  1.0000
  C   C3651     1.0  0.75945  0.15227  0.60474  1.0000
  C   C3652     1.0  0.69930  0.09742  0.94454  1.0000
  C   C3653     1.0  0.81274  0.13773  0.79955  1.0000
  C   C3654     1.0  0.83437  0.14584  0.63850  1.0000
  H   H2906     1.0  0.69331  0.14278  0.81321  1.0000
  H   H2907     1.0  0.64615  0.14651  0.89095  1.0000
  C   C3655     1.0  0.55315  0.05283  0.85741  1.0000
  C   C3656     1.0  0.57643  0.16734  0.70155  1.0000
  C   C3657     1.0  0.77203  0.07400  0.90926  1.0000
  H   H2908     1.0  0.98560  0.06300  0.62993  1.0000
  C   C3658     1.0  0.94530  0.07613  0.61305  1.0000
  H   H2909     1.0  0.73363  0.17695  0.65091  1.0000
  H   H2910     1.0  0.54209  0.03975  0.88583  1.0000
  H   H2911     1.0  0.57502  0.09974  0.78642  1.0000
  C   C3659     1.0  0.48943  0.09155  0.62743  1.0000
  H   H2912     1.0  0.96876  0.11715  0.64402  1.0000
  C   C3660     1.0  0.54610  0.08484  0.81121  1.0000
  C   C3661     1.0  0.54443  0.08469  0.79314  1.0000
  C   C3662     1.0  0.58477  0.01120  0.96528  1.0000
  Fe  Fe243     1.0  0.49422  0.03392  0.88981  1.0000
  H   H2913     1.0  0.86968  0.17688  0.72809  1.0000
  C   C3663     1.0  0.92725  0.09442  0.63615  1.0000
  H   H2914     1.0  0.60304  0.11316  0.77208  1.0000
  H   H2915     1.0  0.64164  0.16250  0.91707  1.0000
  C   C3664     1.0  0.77429  0.14261  0.74804  1.0000
  H   H2916     1.0  0.65842  0.15938  0.70268  1.0000
  H   H2917     1.0  0.67549  0.03868  0.90936  1.0000
  C   C3665     1.0  0.84068  0.13393  0.65430  1.0000
  H   H2918     1.0  0.54993  0.04270  0.85158  1.0000
  H   H2919     1.0  0.95762  0.09407  0.48179  1.0000
  C   C3666     1.0  0.63374  0.99082  0.96452  1.0000
  C   C3667     1.0  0.70952  0.10549  0.95221  1.0000
  H   H2920     1.0  0.72347  0.05531  0.91423  1.0000
  H   H2921     1.0  0.85510  0.17793  0.82392  1.0000
  C   C3668     1.0  0.78468  0.16111  0.71002  1.0000
  C   C3669     1.0  0.78942  0.17708  0.75702  1.0000
  C   C3670     1.0  0.64642  0.16945  0.90268  1.0000
  C   C3671     1.0  0.97159  0.06546  0.49044  1.0000
  C   C3672     1.0  0.90406  0.13929  0.70492  1.0000
  C   C3673     1.0  0.92279  0.10977  0.62179  1.0000
  C   C3674     1.0  0.90011  0.10184  0.55710  1.0000
  H   H2922     1.0  0.96595  0.00893  0.66157  1.0000
  C   C3675     1.0  0.56656  0.99156  0.91183  1.0000
  C   C3676     1.0  0.67010  0.17764  0.62793  1.0000
  H   H2923     1.0  0.79842  0.00172  0.58903  1.0000
  C   C3677     1.0  0.96938  0.04396  0.57649  1.0000
  P   P120      1.0  0.98581  0.02785  0.50402  1.0000
  C   C3678     1.0  0.77895  0.16200  0.56791  1.0000
  H   H2924     1.0  0.79777  0.12892  0.85028  1.0000
  C   C3679     1.0  0.78287  0.13280  0.85077  1.0000
  C   C3680     1.0  0.49956  0.05253  0.82281  1.0000
  C   C3681     1.0  0.52617  0.00235  0.95793  1.0000
  H   H2925     1.0  0.94670  0.08997  0.58430  1.0000
  H   H2926     1.0  0.76223  0.15719  0.53306  1.0000
  H   H2927     1.0  0.75899  0.14768  0.80347  1.0000
  C   C3682     1.0  0.77234  0.17167  0.67607  1.0000
  P   P121      1.0  0.70776  0.09397  0.92060  1.0000
  H   H2928     1.0  0.77206  0.09236  0.88205  1.0000
  H   H2929     1.0  0.73411  0.11759  0.77865  1.0000
  H   H2930     1.0  0.88477  0.14666  0.57770  1.0000
  H   H2931     1.0  0.95258  0.03046  0.48989  1.0000
  C   C3683     1.0  0.74445  0.14293  0.85192  1.0000
  H   H2932     1.0  0.72968  0.14681  0.85218  1.0000
  C   C3684     1.0  0.53061  0.98936  0.83309  1.0000
  H   H2933     1.0  0.69201  0.17000  0.74322  1.0000
  C   C3685     1.0  0.86705  0.14723  0.77098  1.0000
  C   C3686     1.0  0.98772  0.01213  0.57697  1.0000
  C   C3687     1.0  0.71571  0.16492  0.67608  1.0000
  H   H2934     1.0  0.77951  0.12096  0.79002  1.0000
  P   P122      1.0  0.56092  0.98723  0.93722  1.0000
  H   H2935     1.0  0.91422  0.12251  0.62578  1.0000
  C   C3688     1.0  0.84038  0.16098  0.66601  1.0000
  C   C3689     1.0  0.92943  0.10842  0.60285  1.0000
  H   H2936     1.0  0.84957  0.13242  0.67960  1.0000
  C   C3690     1.0  0.76106  0.06712  0.92652  1.0000
  C   C3691     1.0  0.70061  0.04523  0.91177  1.0000
  H   H2937     1.0  0.90447  0.08959  0.55086  1.0000
  H   H2938     1.0  0.78710  0.06908  0.90645  1.0000
  C   C3692     1.0  0.84385  0.14155  0.66788  1.0000
  C   C3693     1.0  0.97730  0.16135  0.57532  1.0000
  H   H2939     1.0  0.78597  0.16598  0.55344  1.0000
  C   C3694     1.0  0.89231  0.15801  0.67147  1.0000
  C   C3695     1.0  0.80111  0.15322  0.80662  1.0000
  C   C3696     1.0  0.91219  0.10607  0.56578  1.0000
  H   H2940     1.0  0.84379  0.16689  0.67594  1.0000
  C   C3697     1.0  0.90262  0.15875  0.69908  1.0000
  H   H2941     1.0  0.85145  0.15856  0.85636  1.0000
  C   C3698     1.0  0.87704  0.12947  0.56400  1.0000
  C   C3699     1.0  0.76483  0.16962  0.59856  1.0000
  C   C3700     1.0  0.94368  0.13015  0.56538  1.0000
  C   C3701     1.0  0.79423  0.99105  0.52991  1.0000
  H   H2942     1.0  0.98761  0.13338  0.52482  1.0000
  H   H2943     1.0  0.81510  0.02377  0.81644  1.0000
  H   H2944     1.0  0.88770  0.16531  0.65855  1.0000
  C   C3702     1.0  0.78799  0.01623  0.64544  1.0000
  C   C3703     1.0  0.70167  0.11579  0.90434  1.0000
  C   C3704     1.0  0.75342  0.15549  0.85499  1.0000
  H   H2945     1.0  0.56055  0.02719  0.92270  1.0000
  C   C3705     1.0  0.56964  0.00374  0.94433  1.0000
  C   C3706     1.0  0.69760  0.07642  0.91689  1.0000
  C   C3707     1.0  0.70863  0.05875  0.91441  1.0000
  C   C3708     1.0  0.71659  0.16775  0.52912  1.0000
  C   C3709     1.0  0.63729  0.00091  0.77469  1.0000
  H   H2946     1.0  0.66990  0.09416  0.91749  1.0000
  C   C3710     1.0  0.69968  0.11553  0.88642  1.0000
  H   H2947     1.0  0.80311  0.08082  0.50915  1.0000
  H   H2948     1.0  0.83059  0.00882  0.58753  1.0000
  C   C3711     1.0  0.84479  0.16764  0.74510  1.0000
  H   H2949     1.0  0.92790  0.14315  0.54345  1.0000
  C   C3712     1.0  0.67858  0.08050  0.91606  1.0000
  H   H2950     1.0  0.94728  0.13482  0.61950  1.0000
  H   H2951     1.0  0.49959  0.01316  0.97463  1.0000
  C   C3713     1.0  0.78551  0.13000  0.79460  1.0000
  H   H2952     1.0  0.49077  0.11953  0.57610  1.0000
  C   C3714     1.0  0.97462  0.12304  0.68597  1.0000
  C   C3715     1.0  0.82274  0.16946  0.56928  1.0000
  C   C3716     1.0  0.75368  0.00184  0.74315  1.0000
  H   H2953     1.0  0.80688  0.16227  0.81150  1.0000
  C   C3717     1.0  0.85108  0.16454  0.82692  1.0000
  C   C3718     1.0  0.65634  0.01143  0.79600  1.0000
  C   C3719     1.0  0.93989  0.01657  0.54419  1.0000
  H   H2954     1.0  0.87166  0.05631  0.49296  1.0000
  C   C3720     1.0  0.71321  0.16581  0.64450  1.0000
  C   C3721     1.0  0.72208  0.16973  0.65665  1.0000
  C   C3722     1.0  0.52130  0.99942  0.78141  1.0000
  C   C3723     1.0  0.84643  0.16441  0.59367  1.0000
  C   C3724     1.0  0.50729  0.00272  0.96637  1.0000
  C   C3725     1.0  0.71882  0.98464  0.88063  1.0000
  C   C3726     1.0  0.82165  0.00677  0.65826  1.0000
  C   C3727     1.0  0.95834  0.01781  0.53524  1.0000
  C   C3728     1.0  0.96330  0.02231  0.51556  1.0000
  H   H2955     1.0  0.94840  0.16749  0.71131  1.0000
  H   H2956     1.0  0.53316  0.09711  0.83570  1.0000
  C   C3729     1.0  0.69698  0.14918  0.87714  1.0000
  H   H2957     1.0  0.93621  0.15047  0.67006  1.0000
  S   S488      1.0  0.74032  0.17760  0.85895  1.0000
  C   C3730     1.0  0.65469  0.99013  0.77780  1.0000
  H   H2958     1.0  0.73394  0.17055  0.81831  1.0000
  H   H2959     1.0  0.53278  0.01250  0.96003  1.0000
  H   H2960     1.0  0.72637  0.14382  0.81018  1.0000
  Fe  Fe244     1.0  0.65716  0.98649  0.89867  1.0000
  C   C3731     1.0  0.93109  0.02445  0.51404  1.0000
  C   C3732     1.0  0.97091  0.18212  0.70649  1.0000
  H   H2961     1.0  0.62759  0.17515  0.68502  1.0000
  C   C3733     1.0  0.79967  0.99563  0.78890  1.0000
  H   H2962     1.0  0.52202  0.98489  0.78155  1.0000
  H   H2963     1.0  0.87553  0.17079  0.62082  1.0000
  H   H2964     1.0  0.74071  0.18031  0.56663  1.0000
  C   C3734     1.0  0.93314  0.99398  0.64145  1.0000
  H   H2965     1.0  0.50312  0.11614  0.79105  1.0000
  C   C3735     1.0  0.49026  0.11184  0.59050  1.0000
  C   C3736     1.0  0.97747  0.07749  0.51999  1.0000
  C   C3737     1.0  0.71951  0.16983  0.81974  1.0000
  H   H2966     1.0  0.97804  0.00068  0.48673  1.0000
  H   H2967     1.0  0.71813  0.17004  0.62947  1.0000
  H   H2968     1.0  0.50844  0.03864  0.82330  1.0000
  C   C3738     1.0  0.58490  0.99320  0.90234  1.0000
  H   H2969     1.0  0.75813  0.12540  0.53553  1.0000
  H   H2970     1.0  0.86511  0.00388  0.48592  1.0000
  C   C3739     1.0  0.84831  0.17761  0.57675  1.0000
  C   C3740     1.0  0.76093  0.17791  0.69198  1.0000
  C   C3741     1.0  0.94945  0.02591  0.50504  1.0000
  H   H2971     1.0  0.65443  0.16599  0.61530  1.0000
  H   H2972     1.0  0.51160  0.98714  0.74986  1.0000
  C   C3742     1.0  0.88584  0.09224  0.48864  1.0000
  C   C3743     1.0  0.48885  0.01133  0.74967  1.0000
  C   C3744     1.0  0.68222  0.16780  0.82445  1.0000
  H   H2973     1.0  0.68196  0.99097  0.82802  1.0000
  C   C3745     1.0  0.97457  0.15609  0.68189  1.0000
  C   C3746     1.0  0.98562  0.07783  0.62610  1.0000
  H   H2974     1.0  0.77879  0.98977  0.81451  1.0000
  H   H2975     1.0  0.83612  0.17584  0.73524  1.0000
  H   H2976     1.0  0.49794  0.02125  0.74308  1.0000
  H   H2977     1.0  0.59508  0.99339  0.91001  1.0000
  C   C3747     1.0  0.55941  0.99194  0.88222  1.0000
  H   H2978     1.0  0.95062  0.17533  0.67207  1.0000
  C   C3748     1.0  0.83650  0.18010  0.56452  1.0000
  H   H2979     1.0  0.56581  0.17666  0.69433  1.0000
  H   H2980     1.0  0.54954  0.99128  0.87448  1.0000
  H   H2981     1.0  0.76769  0.17610  0.66285  1.0000
  H   H2982     1.0  0.78292  0.98466  0.55972  1.0000
  C   C3749     1.0  0.49807  0.99031  0.96348  1.0000
  C   C3750     1.0  0.49656  0.99212  0.75351  1.0000
  H   H2983     1.0  0.97083  0.17700  0.54862  1.0000
  C   C3751     1.0  0.97618  0.08930  0.63891  1.0000
  H   H2984     1.0  0.70470  0.17940  0.52795  1.0000
  C   C3752     1.0  0.77652  0.98832  0.60653  1.0000
  H   H2985     1.0  0.59128  0.00698  0.97733  1.0000
  P   P123      1.0  0.98588  0.14120  0.60995  1.0000
  C   C3753     1.0  0.98558  0.11639  0.61602  1.0000
  H   H2986     1.0  0.75823  0.17843  0.72075  1.0000
  H   H2987     1.0  0.77169  0.18095  0.50310  1.0000
  C   C3754     1.0  0.97747  0.12504  0.55464  1.0000
  H   H2988     1.0  0.75511  0.98386  0.79861  1.0000
  C   C3755     1.0  0.94376  0.18334  0.73230  1.0000
  H   H2989     1.0  0.65921  0.18226  0.67291  1.0000
  H   H2990     1.0  0.93048  0.17939  0.73941  1.0000
  C   C3756     1.0  0.68631  0.18243  0.82991  1.0000
  H   H2991     1.0  0.97472  0.17760  0.62074  1.0000
  C   C3757     1.0  0.91975  0.08586  0.48079  1.0000
  C   C3758     1.0  0.94498  0.18253  0.63104  1.0000
  C   C3759     1.0  0.91397  0.18250  0.58896  1.0000
  H   H2992     1.0  0.91530  0.18376  0.64050  1.0000
  H   H2993     1.0  0.89537  0.18315  0.67787  1.0000
  C   C3760     1.0  0.70514  0.18351  0.82711  1.0000
  S   S489      1.0  0.63435  0.18364  0.76037  1.0000
  H   H2994     1.0  0.65110  0.18356  0.72126  1.0000
  Fe  Fe245     1.0  0.95885  0.35719  0.07920  1.0000
  C   C3761     1.0  0.75742  0.19624  0.22159  1.0000
  H   H2995     1.0  0.61067  0.25964  0.47765  1.0000
  C   C3762     1.0  0.49561  0.30688  0.28328  1.0000
  S   S490      1.0  0.94235  0.37758  0.12463  1.0000
  C   C3763     1.0  0.68967  0.34012  0.25859  1.0000
  C   C3764     1.0  0.59336  0.19395  0.32254  1.0000
  H   H2996     1.0  0.83626  0.20687  0.10210  1.0000
  Fe  Fe246     1.0  0.94756  0.34756  0.12174  1.0000
  S   S491      1.0  0.94080  0.32319  0.14568  1.0000
  C   C3765     1.0  0.75460  0.19297  0.10489  1.0000
  S   S492      1.0  0.93162  0.35392  0.09905  1.0000
  Fe  Fe247     1.0  0.94928  0.25631  0.03769  1.0000
  S   S493      1.0  0.92188  0.24724  0.04793  1.0000
  S   S494      1.0  0.95789  0.26565  0.05949  1.0000
  H   H2997     1.0  0.56279  0.32364  0.30151  1.0000
  C   C3766     1.0  0.65859  0.28628  0.33706  1.0000
  Fe  Fe248     1.0  0.93661  0.22202  0.03560  1.0000
  C   C3767     1.0  0.72272  0.24860  0.09199  1.0000
  H   H2998     1.0  0.80536  0.21916  0.05303  1.0000
  S   S495      1.0  0.96471  0.22998  0.02727  1.0000
  C   C3768     1.0  0.80578  0.19633  0.99869  1.0000
  H   H2999     1.0  0.55502  0.31828  0.34096  1.0000
  C   C3769     1.0  0.63443  0.24761  0.32874  1.0000
  Fe  Fe249     1.0  0.84982  0.28172  0.18015  1.0000
  S   S496      1.0  0.87008  0.25470  0.17664  1.0000
  S   S497      1.0  0.85698  0.31057  0.16855  1.0000
  Fe  Fe250     1.0  0.81659  0.26188  0.19693  1.0000
  S   S498      1.0  0.83428  0.23340  0.19441  1.0000
  S   S499      1.0  0.78585  0.26400  0.21002  1.0000
  Fe  Fe251     1.0  0.85473  0.24238  0.20517  1.0000
  S   S500      1.0  0.86993  0.22373  0.22761  1.0000
  Fe  Fe252     1.0  0.84778  0.24831  0.16632  1.0000
  S   S501      1.0  0.85622  0.23798  0.13962  1.0000
  S   S502      1.0  0.83603  0.27005  0.20983  1.0000
  S   S503      1.0  0.82845  0.27604  0.16777  1.0000
  Fe  Fe253     1.0  0.67093  0.27250  0.17836  1.0000
  S   S504      1.0  0.69045  0.25667  0.19751  1.0000
  S   S505      1.0  0.65854  0.30282  0.18019  1.0000
  Fe  Fe254     1.0  0.67653  0.23841  0.16076  1.0000
  S   S506      1.0  0.69618  0.22014  0.17919  1.0000
  S   S507      1.0  0.67211  0.22965  0.13602  1.0000
  Fe  Fe255     1.0  0.67542  0.23352  0.20198  1.0000
  S   S508      1.0  0.66417  0.22131  0.23220  1.0000
  Fe  Fe256     1.0  0.70890  0.24543  0.17278  1.0000
  S   S509      1.0  0.73964  0.24517  0.16129  1.0000
  S   S510      1.0  0.65475  0.24991  0.18407  1.0000
  S   S511      1.0  0.69051  0.26304  0.15306  1.0000
  Fe  Fe257     1.0  0.62269  0.33893  0.27412  1.0000
  S   S512      1.0  0.59274  0.34999  0.28718  1.0000
  S   S513      1.0  0.63104  0.31118  0.26503  1.0000
  H   H3000     1.0  0.61690  0.35832  0.35388  1.0000
  H   H3001     1.0  0.96424  0.29542  0.02638  1.0000
  C   C3770     1.0  0.95994  0.26518  0.12061  1.0000
  Fe  Fe258     1.0  0.60445  0.35184  0.31076  1.0000
  S   S514      1.0  0.59184  0.34236  0.34122  1.0000
  C   C3771     1.0  0.74718  0.20461  0.13878  1.0000
  S   S515      1.0  0.63385  0.33883  0.29885  1.0000
  H   H3002     1.0  0.55003  0.21229  0.46895  1.0000
  H   H3003     1.0  0.58426  0.25607  0.29982  1.0000
  H   H3004     1.0  0.80293  0.33389  0.00414  1.0000
  H   H3005     1.0  0.73491  0.23156  0.12429  1.0000
  C   C3772     1.0  0.67125  0.18818  0.22097  1.0000
  C   C3773     1.0  0.78276  0.26631  0.98426  1.0000
  S   S516      1.0  0.57746  0.21356  0.39776  1.0000
  Fe  Fe259     1.0  0.59475  0.23576  0.42874  1.0000
  S   S517      1.0  0.56982  0.25040  0.41576  1.0000
  S   S518      1.0  0.59901  0.24915  0.45014  1.0000
  Fe  Fe260     1.0  0.56195  0.22225  0.42502  1.0000
  S   S519      1.0  0.53131  0.22131  0.43757  1.0000
  Fe  Fe261     1.0  0.58753  0.24053  0.38999  1.0000
  S   S520      1.0  0.58939  0.25623  0.35992  1.0000
  C   C3774     1.0  0.97924  0.30726  0.98150  1.0000
  S   S521      1.0  0.61340  0.22850  0.40196  1.0000
  H   H3006     1.0  0.77879  0.31577  0.02281  1.0000
  H   H3007     1.0  0.79477  0.22200  0.14959  1.0000
  C   C3775     1.0  0.75540  0.20104  0.20291  1.0000
  C   C3776     1.0  0.86136  0.20915  0.98143  1.0000
  C   C3777     1.0  0.61284  0.33550  0.40241  1.0000
  C   C3778     1.0  0.95245  0.20151  0.11938  1.0000
  C   C3779     1.0  0.62096  0.25262  0.45052  1.0000
  C   C3780     1.0  0.63639  0.25070  0.43555  1.0000
  C   C3781     1.0  0.65314  0.25522  0.43601  1.0000
  H   H3008     1.0  0.51528  0.25838  0.39682  1.0000
  C   C3782     1.0  0.63049  0.35933  0.35504  1.0000
  H   H3009     1.0  0.63528  0.24611  0.42356  1.0000
  H   H3010     1.0  0.66503  0.25400  0.42438  1.0000
  C   C3783     1.0  0.67452  0.35873  0.44997  1.0000
  H   H3011     1.0  0.78587  0.22742  0.23495  1.0000
  C   C3784     1.0  0.58486  0.30241  0.29083  1.0000
  H   H3012     1.0  0.77466  0.23545  0.01005  1.0000
  H   H3013     1.0  0.52550  0.37490  0.34247  1.0000
  H   H3014     1.0  0.70512  0.19147  0.26806  1.0000
  C   C3785     1.0  0.65351  0.26940  0.34779  1.0000
  H   H3015     1.0  0.58267  0.34199  0.41207  1.0000
  C   C3786     1.0  0.65196  0.36050  0.37324  1.0000
  C   C3787     1.0  0.59103  0.31848  0.34661  1.0000
  C   C3788     1.0  0.59688  0.30824  0.33241  1.0000
  C   C3789     1.0  0.59609  0.28923  0.33669  1.0000
  C   C3790     1.0  0.58986  0.28020  0.35522  1.0000
  C   C3791     1.0  0.58385  0.29044  0.36946  1.0000
  C   C3792     1.0  0.58436  0.30962  0.36513  1.0000
  H   H3016     1.0  0.60204  0.31494  0.31809  1.0000
  H   H3017     1.0  0.60062  0.28145  0.32561  1.0000
  H   H3018     1.0  0.57885  0.28361  0.38378  1.0000
  H   H3019     1.0  0.57978  0.31750  0.37617  1.0000
  C   C3793     1.0  0.52744  0.37510  0.27569  1.0000
  C   C3794     1.0  0.90094  0.38205  0.05404  1.0000
  H   H3020     1.0  0.88886  0.23200  0.06789  1.0000
  C   C3795     1.0  0.69130  0.26540  0.10322  1.0000
  C   C3796     1.0  0.86471  0.20125  0.23618  1.0000
  C   C3797     1.0  0.65081  0.30543  0.20367  1.0000
  C   C3798     1.0  0.64849  0.28979  0.21819  1.0000
  C   C3799     1.0  0.64224  0.29189  0.23686  1.0000
  C   C3800     1.0  0.63844  0.30959  0.24125  1.0000
  C   C3801     1.0  0.64071  0.32532  0.22677  1.0000
  C   C3802     1.0  0.64695  0.32321  0.20799  1.0000
  H   H3021     1.0  0.65129  0.27603  0.21502  1.0000
  H   H3022     1.0  0.64019  0.27972  0.24793  1.0000
  H   H3023     1.0  0.63773  0.33904  0.23005  1.0000
  H   H3024     1.0  0.64898  0.33530  0.19680  1.0000
  C   C3803     1.0  0.77338  0.25801  0.19662  1.0000
  C   C3804     1.0  0.75582  0.25346  0.20502  1.0000
  C   C3805     1.0  0.74522  0.24975  0.19423  1.0000
  C   C3806     1.0  0.75226  0.25038  0.17504  1.0000
  C   C3807     1.0  0.77000  0.25448  0.16674  1.0000
  C   C3808     1.0  0.78054  0.25830  0.17750  1.0000
  H   H3025     1.0  0.75038  0.25292  0.21981  1.0000
  H   H3026     1.0  0.73175  0.24615  0.20070  1.0000
  H   H3027     1.0  0.77561  0.25475  0.15194  1.0000
  H   H3028     1.0  0.79407  0.26173  0.17093  1.0000
  C   C3809     1.0  0.66930  0.20700  0.13662  1.0000
  C   C3810     1.0  0.81769  0.36097  0.03292  1.0000
  C   C3811     1.0  0.50397  0.27900  0.37446  1.0000
  H   H3029     1.0  0.97766  0.29989  0.12633  1.0000
  P   P124      1.0  0.73843  0.22775  0.08539  1.0000
  C   C3812     1.0  0.67139  0.20168  0.11958  1.0000
  C   C3813     1.0  0.58154  0.28222  0.25097  1.0000
  C   C3814     1.0  0.51335  0.35929  0.33045  1.0000
  C   C3815     1.0  0.98866  0.26898  0.09750  1.0000
  H   H3030     1.0  0.67507  0.21131  0.10643  1.0000
  H   H3031     1.0  0.56367  0.20020  0.37174  1.0000
  H   H3032     1.0  0.62293  0.35873  0.18086  1.0000
  C   C3816     1.0  0.83916  0.22980  0.13401  1.0000
  C   C3817     1.0  0.82129  0.22988  0.14546  1.0000
  C   C3818     1.0  0.80864  0.22192  0.14093  1.0000
  H   H3033     1.0  0.49754  0.27169  0.47623  1.0000
  H   H3034     1.0  0.74484  0.26280  0.08961  1.0000
  H   H3035     1.0  0.81734  0.23586  0.15781  1.0000
  C   C3819     1.0  0.66425  0.19458  0.15356  1.0000
  C   C3820     1.0  0.52681  0.28943  0.34674  1.0000
  H   H3036     1.0  0.96845  0.32779  0.02336  1.0000
  C   C3821     1.0  0.72287  0.24109  0.32549  1.0000
  H   H3037     1.0  0.95170  0.28806  0.08631  1.0000
  C   C3822     1.0  0.77395  0.19730  0.22599  1.0000
  C   C3823     1.0  0.71750  0.20182  0.08658  1.0000
  H   H3038     1.0  0.85308  0.20883  0.02714  1.0000
  H   H3039     1.0  0.82460  0.35541  0.99060  1.0000
  H   H3040     1.0  0.96756  0.30024  0.98570  1.0000
  H   H3041     1.0  0.60495  0.27857  0.28239  1.0000
  C   C3824     1.0  0.79389  0.20085  0.25365  1.0000
  C   C3825     1.0  0.51843  0.26704  0.38285  1.0000
  H   H3042     1.0  0.75710  0.26366  0.12315  1.0000
  H   H3043     1.0  0.91161  0.20427  0.02391  1.0000
  C   C3826     1.0  0.91762  0.31939  0.15122  1.0000
  C   C3827     1.0  0.90306  0.33322  0.14465  1.0000
  C   C3828     1.0  0.88459  0.33031  0.15002  1.0000
  C   C3829     1.0  0.88051  0.31339  0.16170  1.0000
  C   C3830     1.0  0.89508  0.29946  0.16812  1.0000
  C   C3831     1.0  0.91352  0.30251  0.16302  1.0000
  H   H3044     1.0  0.90590  0.34644  0.13589  1.0000
  H   H3045     1.0  0.87342  0.34123  0.14510  1.0000
  H   H3046     1.0  0.89203  0.28652  0.17736  1.0000
  H   H3047     1.0  0.92461  0.29181  0.16835  1.0000
  C   C3832     1.0  0.90799  0.20856  0.17057  1.0000
  C   C3833     1.0  0.70843  0.19289  0.07872  1.0000
  H   H3048     1.0  0.61423  0.34509  0.43363  1.0000
  C   C3834     1.0  0.96248  0.32606  0.05326  1.0000
  H   H3049     1.0  0.50168  0.37082  0.32767  1.0000
  C   C3835     1.0  0.96238  0.30084  0.03878  1.0000
  C   C3836     1.0  0.95828  0.28939  0.05658  1.0000
  C   C3837     1.0  0.75564  0.19740  0.26647  1.0000
  C   C3838     1.0  0.95769  0.31482  0.07098  1.0000
  C   C3839     1.0  0.62370  0.18501  0.36936  1.0000
  C   C3840     1.0  0.57592  0.30850  0.47286  1.0000
  H   H3050     1.0  0.69108  0.18914  0.32168  1.0000
  Fe  Fe262     1.0  0.63677  0.36821  0.28455  1.0000
  H   H3051     1.0  0.69744  0.23793  0.09737  1.0000
  C   C3841     1.0  0.50739  0.29159  0.31167  1.0000
  H   H3052     1.0  0.55610  0.25246  0.45486  1.0000
  H   H3053     1.0  0.65884  0.20828  0.35390  1.0000
  S   S522      1.0  0.79953  0.20101  0.12133  1.0000
  C   C3842     1.0  0.66618  0.36139  0.35706  1.0000
  C   C3843     1.0  0.63904  0.26330  0.46635  1.0000
  C   C3844     1.0  0.79501  0.21942  0.24448  1.0000
  C   C3845     1.0  0.61377  0.36173  0.19390  1.0000
  C   C3846     1.0  0.71561  0.21380  0.04865  1.0000
  H   H3054     1.0  0.68916  0.29230  0.10916  1.0000
  C   C3847     1.0  0.95561  0.29657  0.07259  1.0000
  C   C3848     1.0  0.83189  0.21350  0.11401  1.0000
  H   H3055     1.0  0.58491  0.26713  0.25580  1.0000
  S   S523      1.0  0.94280  0.27288  0.00995  1.0000
  C   C3849     1.0  0.54176  0.34684  0.34246  1.0000
  C   C3850     1.0  0.72522  0.25050  0.30666  1.0000
  C   C3851     1.0  0.89824  0.20415  0.15954  1.0000
  C   C3852     1.0  0.86648  0.28932  0.99026  1.0000
  H   H3056     1.0  0.62720  0.22495  0.29865  1.0000
  S   S524      1.0  0.66305  0.37703  0.28402  1.0000
  C   C3853     1.0  0.63099  0.38104  0.43744  1.0000
  H   H3057     1.0  0.70973  0.21526  0.47035  1.0000
  S   S525      1.0  0.92909  0.23551  0.00761  1.0000
  H   H3058     1.0  0.52496  0.33078  0.28946  1.0000
  C   C3854     1.0  0.62731  0.30240  0.40998  1.0000
  C   C3855     1.0  0.63384  0.35989  0.37231  1.0000
  C   C3856     1.0  0.77487  0.20750  0.02612  1.0000
  C   C3857     1.0  0.76078  0.29403  0.24835  1.0000
  C   C3858     1.0  0.87954  0.36599  0.17926  1.0000
  C   C3859     1.0  0.52283  0.22065  0.46199  1.0000
  C   C3860     1.0  0.66116  0.18694  0.25442  1.0000
  C   C3861     1.0  0.59113  0.28339  0.29045  1.0000
  C   C3862     1.0  0.51682  0.32012  0.29244  1.0000
  S   S526      1.0  0.69400  0.29511  0.47816  1.0000
  H   H3059     1.0  0.59379  0.31215  0.28302  1.0000
  C   C3863     1.0  0.65439  0.26172  0.45134  1.0000
  H   H3060     1.0  0.76291  0.21172  0.03681  1.0000
  C   C3864     1.0  0.59522  0.33107  0.41104  1.0000
  C   C3865     1.0  0.55307  0.36701  0.19657  1.0000
  C   C3866     1.0  0.61914  0.35810  0.42930  1.0000
  H   H3061     1.0  0.70210  0.20143  0.23478  1.0000
  H   H3062     1.0  0.69009  0.34428  0.27113  1.0000
  H   H3063     1.0  0.58006  0.30890  0.42490  1.0000
  C   C3867     1.0  0.81991  0.21784  0.25974  1.0000
  H   H3064     1.0  0.73094  0.23425  0.04752  1.0000
  H   H3065     1.0  0.93699  0.23133  0.20913  1.0000
  H   H3066     1.0  0.87153  0.19785  0.26301  1.0000
  H   H3067     1.0  0.62358  0.35631  0.45687  1.0000
  H   H3068     1.0  0.71129  0.26622  0.28407  1.0000
  H   H3069     1.0  0.77904  0.21052  0.07805  1.0000
  H   H3070     1.0  0.76938  0.30401  0.24666  1.0000
  H   H3071     1.0  0.66237  0.19865  0.16675  1.0000
  C   C3868     1.0  0.59850  0.35304  0.20195  1.0000
  H   H3072     1.0  0.83480  0.21342  0.00053  1.0000
  C   C3869     1.0  0.97367  0.25981  0.10527  1.0000
  C   C3870     1.0  0.80533  0.19115  0.26655  1.0000
  H   H3073     1.0  0.53494  0.32663  0.18910  1.0000
  H   H3074     1.0  0.50823  0.27990  0.32358  1.0000
  H   H3075     1.0  0.81771  0.19165  0.98816  1.0000
  H   H3076     1.0  0.94651  0.35686  0.00447  1.0000
  P   P125      1.0  0.61511  0.35963  0.39301  1.0000
  C   C3871     1.0  0.93869  0.24689  0.15532  1.0000
  C   C3872     1.0  0.49647  0.29224  0.29909  1.0000
  C   C3873     1.0  0.62492  0.24207  0.31829  1.0000
  H   H3077     1.0  0.78635  0.28846  0.04809  1.0000
  H   H3078     1.0  0.92144  0.38223  0.06883  1.0000
  C   C3874     1.0  0.70334  0.24955  0.09731  1.0000
  C   C3875     1.0  0.88964  0.22252  0.08134  1.0000
  H   H3079     1.0  0.49383  0.22910  0.45981  1.0000
  H   H3080     1.0  0.76461  0.29323  0.98676  1.0000
  H   H3081     1.0  0.66434  0.19368  0.41125  1.0000
  C   C3876     1.0  0.70920  0.18729  0.24004  1.0000
  H   H3082     1.0  0.87192  0.27155  0.13194  1.0000
  H   H3083     1.0  0.60999  0.24743  0.31962  1.0000
  C   C3877     1.0  0.53794  0.35534  0.17880  1.0000
  C   C3878     1.0  0.58359  0.36680  0.37758  1.0000
  C   C3879     1.0  0.54497  0.25874  0.46510  1.0000
  H   H3084     1.0  0.54716  0.35853  0.29271  1.0000
  C   C3880     1.0  0.55500  0.34959  0.20925  1.0000
  C   C3881     1.0  0.78863  0.20275  0.21138  1.0000
  H   H3085     1.0  0.58815  0.35251  0.37556  1.0000
  C   C3882     1.0  0.66180  0.19901  0.38247  1.0000
  H   H3086     1.0  0.81157  0.36444  0.02068  1.0000
  H   H3087     1.0  0.96838  0.23501  0.15228  1.0000
  H   H3088     1.0  0.83991  0.18551  0.19495  1.0000
  C   C3883     1.0  0.85872  0.19288  0.22500  1.0000
  H   H3089     1.0  0.83452  0.32525  0.01154  1.0000
  C   C3884     1.0  0.64901  0.30339  0.34209  1.0000
  C   C3885     1.0  0.63441  0.30379  0.35789  1.0000
  C   C3886     1.0  0.62930  0.28709  0.36864  1.0000
  C   C3887     1.0  0.63860  0.27002  0.36351  1.0000
  H   H3090     1.0  0.65280  0.31640  0.33366  1.0000
  H   H3091     1.0  0.62679  0.31706  0.36161  1.0000
  H   H3092     1.0  0.61782  0.28740  0.38076  1.0000
  H   H3093     1.0  0.63398  0.25733  0.37176  1.0000
  C   C3888     1.0  0.81823  0.19968  0.26962  1.0000
  C   C3889     1.0  0.69163  0.25766  0.30932  1.0000
  H   H3094     1.0  0.63997  0.26804  0.47832  1.0000
  H   H3095     1.0  0.50394  0.34039  0.32011  1.0000
  C   C3890     1.0  0.66327  0.22792  0.31589  1.0000
  H   H3096     1.0  0.62700  0.18891  0.22019  1.0000
  H   H3097     1.0  0.95034  0.19356  0.09464  1.0000
  C   C3891     1.0  0.89132  0.31068  0.06982  1.0000
  C   C3892     1.0  0.90545  0.31941  0.06970  1.0000
  C   C3893     1.0  0.90082  0.33685  0.07462  1.0000
  C   C3894     1.0  0.88203  0.34562  0.07964  1.0000
  C   C3895     1.0  0.86768  0.33688  0.08001  1.0000
  C   C3896     1.0  0.87249  0.31933  0.07499  1.0000
  H   H3098     1.0  0.89509  0.29736  0.06557  1.0000
  H   H3099     1.0  0.92000  0.31278  0.06553  1.0000
  H   H3100     1.0  0.91183  0.34372  0.07424  1.0000
  H   H3101     1.0  0.87891  0.35939  0.08275  1.0000
  H   H3102     1.0  0.86168  0.31258  0.07463  1.0000
  H   H3103     1.0  0.83863  0.33904  0.12682  1.0000
  H   H3104     1.0  0.82052  0.31893  0.15169  1.0000
  H   H3105     1.0  0.75746  0.18820  0.09190  1.0000
  C   C3897     1.0  0.93825  0.23813  0.10189  1.0000
  C   C3898     1.0  0.92180  0.25077  0.16829  1.0000
  C   C3899     1.0  0.94814  0.20496  0.10172  1.0000
  H   H3106     1.0  0.59485  0.22287  0.31811  1.0000
  H   H3107     1.0  0.85724  0.22343  0.10856  1.0000
  H   H3108     1.0  0.74330  0.22056  0.24643  1.0000
  C   C3900     1.0  0.84196  0.21557  0.98591  1.0000
  C   C3901     1.0  0.89701  0.35391  0.17946  1.0000
  Fe  Fe263     1.0  0.95588  0.24575  0.00019  1.0000
  C   C3902     1.0  0.67742  0.34658  0.23050  1.0000
  Fe  Fe264     1.0  0.96917  0.37929  0.10279  1.0000
  C   C3903     1.0  0.57874  0.21337  0.34549  1.0000
  H   H3109     1.0  0.66836  0.35564  0.22130  1.0000
  H   H3110     1.0  0.57601  0.22668  0.34968  1.0000
  H   H3111     1.0  0.95581  0.32008  0.08351  1.0000
  C   C3904     1.0  0.80821  0.22775  0.24726  1.0000
  C   C3905     1.0  0.81424  0.21312  0.12558  1.0000
  H   H3112     1.0  0.75065  0.36644  0.40092  1.0000
  C   C3906     1.0  0.78165  0.22093  0.01089  1.0000
  C   C3907     1.0  0.82186  0.32055  0.09959  1.0000
  C   C3908     1.0  0.86673  0.19150  0.25438  1.0000
  H   H3113     1.0  0.89984  0.24070  0.09209  1.0000
  H   H3114     1.0  0.77775  0.38171  0.38864  1.0000
  H   H3115     1.0  0.85168  0.36358  0.38151  1.0000
  C   C3909     1.0  0.90074  0.30260  0.11755  1.0000
  C   C3910     1.0  0.58942  0.21123  0.32773  1.0000
  H   H3116     1.0  0.93013  0.29587  0.11642  1.0000
  C   C3911     1.0  0.54121  0.27772  0.35547  1.0000
  Fe  Fe265     1.0  0.60235  0.20194  0.41122  1.0000
  C   C3912     1.0  0.59514  0.29146  0.23854  1.0000
  C   C3913     1.0  0.59095  0.31094  0.23223  1.0000
  C   C3914     1.0  0.57296  0.32133  0.23825  1.0000
  H   H3117     1.0  0.96720  0.22500  0.18643  1.0000
  C   C3915     1.0  0.55080  0.35737  0.24694  1.0000
  C   C3916     1.0  0.95509  0.23766  0.16202  1.0000
  C   C3917     1.0  0.78884  0.24455  0.03960  1.0000
  H   H3118     1.0  0.90085  0.21949  0.12277  1.0000
  H   H3119     1.0  0.60899  0.28352  0.23366  1.0000
  H   H3120     1.0  0.60182  0.31764  0.22264  1.0000
  H   H3121     1.0  0.57518  0.31848  0.45968  1.0000
  C   C3918     1.0  0.77861  0.28478  0.98676  1.0000
  C   C3919     1.0  0.66522  0.19728  0.23604  1.0000
  C   C3920     1.0  0.59371  0.37400  0.38616  1.0000
  C   C3921     1.0  0.50814  0.29029  0.35653  1.0000
  C   C3922     1.0  0.62246  0.25864  0.46595  1.0000
  C   C3923     1.0  0.72412  0.20979  0.29307  1.0000
  C   C3924     1.0  0.72991  0.26349  0.09314  1.0000
  H   H3122     1.0  0.95148  0.28361  0.14035  1.0000
  C   C3925     1.0  0.75838  0.23443  0.06779  1.0000
  H   H3123     1.0  0.56038  0.37240  0.36412  1.0000
  H   H3124     1.0  0.86007  0.35012  0.04484  1.0000
  H   H3125     1.0  0.90184  0.24929  0.13479  1.0000
  C   C3926     1.0  0.68912  0.24844  0.32831  1.0000
  H   H3126     1.0  0.50535  0.33205  0.26757  1.0000
  H   H3127     1.0  0.68000  0.34618  0.40844  1.0000
  C   C3927     1.0  0.81123  0.30932  0.11398  1.0000
  Fe  Fe266     1.0  0.67130  0.28239  0.47553  1.0000
  H   H3128     1.0  0.60841  0.28364  0.42384  1.0000
  P   P126      1.0  0.77684  0.19018  0.25001  1.0000
  H   H3129     1.0  0.67319  0.24736  0.37780  1.0000
  H   H3130     1.0  0.71524  0.23079  0.26987  1.0000
  H   H3131     1.0  0.85784  0.35929  0.11264  1.0000
  H   H3132     1.0  0.74723  0.29774  0.20593  1.0000
  H   H3133     1.0  0.68612  0.32512  0.21461  1.0000
  H   H3134     1.0  0.82186  0.28833  0.98856  1.0000
  H   H3135     1.0  0.60211  0.19210  0.30896  1.0000
  C   C3928     1.0  0.75638  0.26204  0.25736  1.0000
  H   H3136     1.0  0.80047  0.24823  0.02848  1.0000
  C   C3929     1.0  0.67972  0.37398  0.41112  1.0000
  H   H3137     1.0  0.73915  0.25138  0.29835  1.0000
  C   C3930     1.0  0.54839  0.33504  0.20646  1.0000
  H   H3138     1.0  0.71279  0.25815  0.22712  1.0000
  C   C3931     1.0  0.69915  0.31718  0.23876  1.0000
  H   H3139     1.0  0.83043  0.22415  0.26159  1.0000
  C   C3932     1.0  0.88449  0.20532  0.08501  1.0000
  S   S527      1.0  0.96568  0.34874  0.05121  1.0000
  H   H3140     1.0  0.89218  0.24589  0.00390  1.0000
  H   H3141     1.0  0.79760  0.21259  0.18168  1.0000
  C   C3933     1.0  0.74564  0.21164  0.10585  1.0000
  C   C3934     1.0  0.97676  0.28851  0.12058  1.0000
  C   C3935     1.0  0.65372  0.22225  0.30554  1.0000
  H   H3142     1.0  0.55283  0.26731  0.31814  1.0000
  H   H3143     1.0  0.80948  0.24183  0.23957  1.0000
  C   C3936     1.0  0.94965  0.21637  0.12832  1.0000
  C   C3937     1.0  0.77001  0.20664  0.18849  1.0000
  C   C3938     1.0  0.75622  0.18616  0.13765  1.0000
  H   H3144     1.0  0.76160  0.24726  0.26257  1.0000
  C   C3939     1.0  0.71785  0.27930  0.09913  1.0000
  C   C3940     1.0  0.54342  0.32969  0.33780  1.0000
  C   C3941     1.0  0.96476  0.31911  0.03711  1.0000
  P   P127      1.0  0.66579  0.24699  0.34182  1.0000
  H   H3145     1.0  0.88839  0.36490  0.98296  1.0000
  H   H3146     1.0  0.72571  0.37369  0.38284  1.0000
  C   C3942     1.0  0.91266  0.33140  0.01657  1.0000
  C   C3943     1.0  0.67858  0.35212  0.24631  1.0000
  C   C3944     1.0  0.74181  0.21294  0.26091  1.0000
  H   H3147     1.0  0.67528  0.33280  0.44272  1.0000
  C   C3945     1.0  0.59366  0.31239  0.41853  1.0000
  C   C3946     1.0  0.60968  0.29808  0.41797  1.0000
  H   H3148     1.0  0.84214  0.29887  0.03715  1.0000
  H   H3149     1.0  0.70998  0.24868  0.46704  1.0000
  C   C3947     1.0  0.70489  0.24009  0.33633  1.0000
  C   C3948     1.0  0.74382  0.29998  0.24229  1.0000
  H   H3150     1.0  0.65817  0.18568  0.38400  1.0000
  H   H3151     1.0  0.74208  0.25996  0.05391  1.0000
  C   C3949     1.0  0.89108  0.19783  0.11634  1.0000
  H   H3152     1.0  0.80220  0.23845  0.08393  1.0000
  C   C3950     1.0  0.53013  0.32724  0.32927  1.0000
  H   H3153     1.0  0.70593  0.18970  0.34722  1.0000
  H   H3154     1.0  0.54541  0.31963  0.25558  1.0000
  H   H3155     1.0  0.88423  0.19420  0.02105  1.0000
  C   C3951     1.0  0.68932  0.24806  0.24623  1.0000
  C   C3952     1.0  0.70958  0.25880  0.29860  1.0000
  C   C3953     1.0  0.56371  0.29248  0.25729  1.0000
  C   C3954     1.0  0.92530  0.19737  0.17340  1.0000
  H   H3156     1.0  0.76534  0.29478  0.10868  1.0000
  C   C3955     1.0  0.94236  0.23480  0.11970  1.0000
  H   H3157     1.0  0.65635  0.19398  0.26610  1.0000
  C   C3956     1.0  0.89633  0.21519  0.11246  1.0000
  C   C3957     1.0  0.80606  0.36101  0.05068  1.0000
  H   H3158     1.0  0.77540  0.23586  0.11038  1.0000
  H   H3159     1.0  0.86238  0.30313  0.99349  1.0000
  C   C3958     1.0  0.71554  0.23812  0.47821  1.0000
  C   C3959     1.0  0.84231  0.23864  0.02288  1.0000
  C   C3960     1.0  0.84694  0.22072  0.03378  1.0000
  C   C3961     1.0  0.84413  0.21817  0.05325  1.0000
  C   C3962     1.0  0.83610  0.23348  0.06184  1.0000
  C   C3963     1.0  0.83009  0.25129  0.05118  1.0000
  C   C3964     1.0  0.83388  0.25392  0.03149  1.0000
  P   P128      1.0  0.82036  0.27091  0.06262  1.0000
  C   C3965     1.0  0.79947  0.26844  0.08083  1.0000
  C   C3966     1.0  0.83889  0.27209  0.07287  1.0000
  C   C3967     1.0  0.83562  0.27282  0.09189  1.0000
  C   C3968     1.0  0.85025  0.27343  0.09961  1.0000
  C   C3969     1.0  0.86832  0.27270  0.08860  1.0000
  C   C3970     1.0  0.87177  0.27137  0.06985  1.0000
  C   C3971     1.0  0.85719  0.27081  0.06209  1.0000
  C   C3972     1.0  0.78867  0.28428  0.08792  1.0000
  C   C3973     1.0  0.77340  0.28261  0.10305  1.0000
  C   C3974     1.0  0.76873  0.26512  0.11120  1.0000
  C   C3975     1.0  0.77907  0.24941  0.10397  1.0000
  C   C3976     1.0  0.79438  0.25099  0.08887  1.0000
  C   C3977     1.0  0.81465  0.29179  0.04500  1.0000
  C   C3978     1.0  0.79684  0.29667  0.04058  1.0000
  C   C3979     1.0  0.79254  0.31201  0.02615  1.0000
  C   C3980     1.0  0.80611  0.32231  0.01569  1.0000
  C   C3981     1.0  0.82389  0.31747  0.01987  1.0000
  C   C3982     1.0  0.82815  0.30237  0.03452  1.0000
  P   P129      1.0  0.56635  0.34613  0.22852  1.0000
  H   H3160     1.0  0.66106  0.21214  0.29680  1.0000
  H   H3161     1.0  0.74253  0.20054  0.19952  1.0000
  H   H3162     1.0  0.83482  0.23156  0.07678  1.0000
  H   H3163     1.0  0.83073  0.26769  0.02264  1.0000
  H   H3164     1.0  0.82203  0.27237  0.10101  1.0000
  H   H3165     1.0  0.84761  0.27397  0.11430  1.0000
  H   H3166     1.0  0.87971  0.27290  0.09463  1.0000
  H   H3167     1.0  0.88577  0.27056  0.06125  1.0000
  H   H3168     1.0  0.86029  0.26917  0.04769  1.0000
  H   H3169     1.0  0.79237  0.29787  0.08200  1.0000
  C   C3983     1.0  0.56723  0.30886  0.30135  1.0000
  C   C3984     1.0  0.82058  0.31962  0.13713  1.0000
  C   C3985     1.0  0.83093  0.33113  0.12282  1.0000
  H   H3170     1.0  0.78977  0.30724  0.98937  1.0000
  H   H3171     1.0  0.55571  0.27748  0.34863  1.0000
  C   C3986     1.0  0.78650  0.20770  0.19277  1.0000
  C   C3987     1.0  0.72598  0.21893  0.27418  1.0000
  C   C3988     1.0  0.96186  0.27928  0.12847  1.0000
  C   C3989     1.0  0.91314  0.36122  0.17498  1.0000
  H   H3172     1.0  0.71203  0.21459  0.30335  1.0000
  H   H3173     1.0  0.85770  0.20004  0.21079  1.0000
  H   H3174     1.0  0.84843  0.20435  0.06163  1.0000
  H   H3175     1.0  0.82258  0.32023  0.08517  1.0000
  H   H3176     1.0  0.55322  0.28534  0.26710  1.0000
  H   H3177     1.0  0.82717  0.19207  0.27945  1.0000
  C   C3990     1.0  0.90178  0.26413  0.12982  1.0000
  H   H3178     1.0  0.80228  0.30017  0.14384  1.0000
  C   C3991     1.0  0.55506  0.35272  0.26482  1.0000
  C   C3992     1.0  0.67876  0.35502  0.41806  1.0000
  C   C3993     1.0  0.75585  0.25099  0.05397  1.0000
  C   C3994     1.0  0.56174  0.27721  0.31068  1.0000
  P   P130      1.0  0.84324  0.34831  0.08525  1.0000
  C   C3995     1.0  0.83126  0.33215  0.10388  1.0000
  C   C3996     1.0  0.81047  0.30896  0.13272  1.0000
  C   C3997     1.0  0.68760  0.32918  0.22674  1.0000
  C   C3998     1.0  0.93474  0.34982  0.98478  1.0000
  H   H3179     1.0  0.91043  0.37266  0.04547  1.0000
  C   C3999     1.0  0.66956  0.22089  0.39602  1.0000
  C   C4000     1.0  0.57951  0.27079  0.30029  1.0000
  C   C4001     1.0  0.84499  0.35282  0.04676  1.0000
  C   C4002     1.0  0.84801  0.37124  0.10681  1.0000
  H   H3180     1.0  0.67804  0.22214  0.31504  1.0000
  H   H3181     1.0  0.80361  0.30079  0.11066  1.0000
  C   C4003     1.0  0.69853  0.28027  0.10411  1.0000
  C   C4004     1.0  0.58671  0.35655  0.21902  1.0000
  H   H3182     1.0  0.56762  0.34252  0.26750  1.0000
  H   H3183     1.0  0.73993  0.37662  0.24352  1.0000
  C   C4005     1.0  0.83947  0.37025  0.09277  1.0000
  C   C4006     1.0  0.83340  0.35288  0.06467  1.0000
  C   C4007     1.0  0.54349  0.36165  0.27911  1.0000
  C   C4008     1.0  0.67611  0.34740  0.43746  1.0000
  H   H3184     1.0  0.80175  0.20326  0.21424  1.0000
  S   S528      1.0  0.97575  0.34847  0.10167  1.0000
  C   C4009     1.0  0.53511  0.21595  0.47425  1.0000
  H   H3185     1.0  0.73948  0.31461  0.23589  1.0000
  H   H3186     1.0  0.67402  0.19613  0.20675  1.0000
  C   C4010     1.0  0.91182  0.38064  0.17060  1.0000
  C   C4011     1.0  0.51484  0.34206  0.32594  1.0000
  C   C4012     1.0  0.77103  0.25605  0.04000  1.0000
  H   H3187     1.0  0.97250  0.24915  0.09873  1.0000
  H   H3188     1.0  0.53793  0.18519  0.42776  1.0000
  H   H3189     1.0  0.65524  0.36038  0.38640  1.0000
  H   H3190     1.0  0.90803  0.24803  0.19751  1.0000
  H   H3191     1.0  0.92675  0.35176  0.17445  1.0000
  H   H3192     1.0  0.76898  0.26878  0.02933  1.0000
  C   C4013     1.0  0.66637  0.22953  0.36342  1.0000
  P   P131      1.0  0.53231  0.30468  0.32406  1.0000
  H   H3193     1.0  0.66981  0.28644  0.32478  1.0000
  H   H3194     1.0  0.90908  0.25846  0.16367  1.0000
  H   H3195     1.0  0.61620  0.19872  0.37193  1.0000
  C   C4014     1.0  0.55561  0.29627  0.31152  1.0000
  H   H3196     1.0  0.76839  0.21053  0.17401  1.0000
  H   H3197     1.0  0.54830  0.25751  0.38000  1.0000
  C   C4015     1.0  0.65369  0.24074  0.32748  1.0000
  H   H3198     1.0  0.90194  0.22054  0.17713  1.0000
  C   C4016     1.0  0.77644  0.22317  0.06748  1.0000
  H   H3199     1.0  0.93279  0.20086  0.18198  1.0000
  P   P132      1.0  0.93982  0.25443  0.13027  1.0000
  C   C4017     1.0  0.62892  0.32103  0.40216  1.0000
  C   C4018     1.0  0.72619  0.21654  0.07536  1.0000
  H   H3200     1.0  0.67758  0.29419  0.26426  1.0000
  C   C4019     1.0  0.72814  0.29751  0.17018  1.0000
  C   C4020     1.0  0.93751  0.23559  0.19414  1.0000
  C   C4021     1.0  0.68133  0.28122  0.25932  1.0000
  C   C4022     1.0  0.84396  0.22246  0.11786  1.0000
  H   H3201     1.0  0.63975  0.29127  0.40995  1.0000
  C   C4023     1.0  0.51722  0.30585  0.30870  1.0000
  H   H3202     1.0  0.77183  0.26068  0.98228  1.0000
  C   C4024     1.0  0.72489  0.22266  0.05639  1.0000
  C   C4025     1.0  0.79733  0.21549  0.99712  1.0000
  C   C4026     1.0  0.87871  0.27511  0.99991  1.0000
  C   C4027     1.0  0.67018  0.23383  0.37886  1.0000
  C   C4028     1.0  0.64475  0.36021  0.33888  1.0000
  Fe  Fe267     1.0  0.91653  0.26141  0.01934  1.0000
  H   H3203     1.0  0.87965  0.20169  0.07444  1.0000
  C   C4029     1.0  0.66223  0.21196  0.36534  1.0000
  H   H3204     1.0  0.69211  0.23547  0.24079  1.0000
  H   H3205     1.0  0.95813  0.18733  0.12601  1.0000
  H   H3206     1.0  0.64272  0.32411  0.39617  1.0000
  C   C4030     1.0  0.70092  0.26101  0.23841  1.0000
  C   C4031     1.0  0.57192  0.19822  0.35808  1.0000
  C   C4032     1.0  0.66530  0.20351  0.39783  1.0000
  H   H3207     1.0  0.54712  0.30647  0.47861  1.0000
  C   C4033     1.0  0.53704  0.26648  0.37337  1.0000
  H   H3208     1.0  0.93309  0.25229  0.09469  1.0000
  H   H3209     1.0  0.90396  0.32441  0.02886  1.0000
  C   C4034     1.0  0.66256  0.36132  0.33987  1.0000
  C   C4035     1.0  0.81385  0.35704  0.06649  1.0000
  H   H3210     1.0  0.54991  0.32138  0.21580  1.0000
  C   C4036     1.0  0.90583  0.19366  0.03489  1.0000
  C   C4037     1.0  0.91836  0.27079  0.12599  1.0000
  C   C4038     1.0  0.91773  0.29014  0.11957  1.0000
  S   S529      1.0  0.67504  0.26805  0.45164  1.0000
  H   H3211     1.0  0.84565  0.24076  0.00773  1.0000
  H   H3212     1.0  0.84617  0.35734  0.01710  1.0000
  H   H3213     1.0  0.73698  0.18772  0.31343  1.0000
  H   H3214     1.0  0.66427  0.24198  0.26590  1.0000
  C   C4039     1.0  0.79155  0.22814  0.05334  1.0000
  C   C4040     1.0  0.69985  0.32266  0.25491  1.0000
  S   S530      1.0  0.62829  0.36732  0.25857  1.0000
  H   H3215     1.0  0.65730  0.27130  0.27784  1.0000
  S   S531      1.0  0.93278  0.19347  0.05334  1.0000
  C   C4041     1.0  0.92119  0.24501  0.18760  1.0000
  H   H3216     1.0  0.90031  0.31753  0.11308  1.0000
  H   H3217     1.0  0.93837  0.22592  0.07907  1.0000
  C   C4042     1.0  0.83742  0.37275  0.35842  1.0000
  C   C4043     1.0  0.73941  0.26795  0.25134  1.0000
  C   C4044     1.0  0.62099  0.36815  0.41055  1.0000
  H   H3218     1.0  0.80465  0.35758  0.08012  1.0000
  H   H3219     1.0  0.70341  0.23283  0.35090  1.0000
  H   H3220     1.0  0.60552  0.30634  0.46989  1.0000
  H   H3221     1.0  0.67964  0.26416  0.30288  1.0000
  H   H3222     1.0  0.72347  0.29063  0.10024  1.0000
  C   C4045     1.0  0.62425  0.36449  0.44262  1.0000
  H   H3223     1.0  0.95330  0.21339  0.14184  1.0000
  C   C4046     1.0  0.52678  0.36165  0.33875  1.0000
  H   H3224     1.0  0.79100  0.36452  0.05210  1.0000
  H   H3225     1.0  0.67197  0.22448  0.40804  1.0000
  C   C4047     1.0  0.89018  0.18799  0.03335  1.0000
  C   C4048     1.0  0.95448  0.23198  0.18136  1.0000
  C   C4049     1.0  0.66980  0.26815  0.26720  1.0000
  C   C4050     1.0  0.67369  0.25167  0.26052  1.0000
  C   C4051     1.0  0.63455  0.22942  0.30665  1.0000
  C   C4052     1.0  0.83714  0.35690  0.03094  1.0000
  C   C4053     1.0  0.93658  0.34974  0.00276  1.0000
  H   H3226     1.0  0.87099  0.30570  0.12110  1.0000
  C   C4054     1.0  0.88423  0.29593  0.12203  1.0000
  S   S532      1.0  0.88851  0.28028  0.01614  1.0000
  H   H3227     1.0  0.55209  0.34859  0.34905  1.0000
  H   H3228     1.0  0.88480  0.21298  0.15753  1.0000
  C   C4055     1.0  0.73813  0.19472  0.29876  1.0000
  C   C4056     1.0  0.50345  0.22544  0.46917  1.0000
  H   H3229     1.0  0.78058  0.27037  0.25981  1.0000
  C   C4057     1.0  0.88476  0.27671  0.12816  1.0000
  H   H3230     1.0  0.67354  0.36214  0.32729  1.0000
  C   C4058     1.0  0.69691  0.27779  0.24471  1.0000
  H   H3231     1.0  0.69968  0.29561  0.17270  1.0000
  H   H3232     1.0  0.90063  0.32426  0.99737  1.0000
  H   H3233     1.0  0.67998  0.36232  0.35790  1.0000
  H   H3234     1.0  0.73501  0.23469  0.33175  1.0000
  H   H3235     1.0  0.69090  0.29424  0.20679  1.0000
  H   H3236     1.0  0.73173  0.25754  0.25210  1.0000
  C   C4059     1.0  0.88365  0.25721  0.99583  1.0000
  H   H3237     1.0  0.92670  0.34087  0.03257  1.0000
  H   H3238     1.0  0.62543  0.19331  0.33949  1.0000
  C   C4060     1.0  0.70504  0.29547  0.19939  1.0000
  C   C4061     1.0  0.70994  0.29629  0.18003  1.0000
  P   P133      1.0  0.71198  0.29445  0.23423  1.0000
  C   C4062     1.0  0.71830  0.29604  0.20907  1.0000
  H   H3239     1.0  0.67060  0.36558  0.24923  1.0000
  H   H3240     1.0  0.73206  0.29743  0.15532  1.0000
  C   C4063     1.0  0.73300  0.28697  0.24371  1.0000
  H   H3241     1.0  0.49683  0.29982  0.35040  1.0000
  S   S533      1.0  0.67069  0.34979  0.47437  1.0000
  H   H3242     1.0  0.75562  0.29883  0.17209  1.0000
  C   C4064     1.0  0.70745  0.19889  0.05980  1.0000
  C   C4065     1.0  0.91401  0.18551  0.05050  1.0000
  H   H3243     1.0  0.62667  0.25708  0.33795  1.0000
  C   C4066     1.0  0.76709  0.27506  0.25580  1.0000
  C   C4067     1.0  0.74137  0.29834  0.17962  1.0000
  C   C4068     1.0  0.73649  0.29766  0.19897  1.0000
  H   H3244     1.0  0.59593  0.34356  0.19483  1.0000
  C   C4069     1.0  0.55940  0.31194  0.25090  1.0000
  C   C4070     1.0  0.74189  0.21735  0.12297  1.0000
  H   H3245     1.0  0.70804  0.31338  0.26481  1.0000
  C   C4071     1.0  0.53989  0.33794  0.19128  1.0000
  C   C4072     1.0  0.92546  0.34066  0.01865  1.0000
  C   C4073     1.0  0.94124  0.22327  0.09294  1.0000
  H   H3246     1.0  0.84789  0.36396  0.34976  1.0000
  S   S534      1.0  0.58596  0.20802  0.43935  1.0000
  H   H3247     1.0  0.67638  0.26580  0.10773  1.0000
  H   H3248     1.0  0.74444  0.20917  0.15187  1.0000
  H   H3249     1.0  0.64198  0.36019  0.32552  1.0000
  C   C4074     1.0  0.88562  0.19282  0.10222  1.0000
  C   C4075     1.0  0.52637  0.26251  0.46333  1.0000
  C   C4076     1.0  0.91082  0.33136  0.99864  1.0000
  C   C4077     1.0  0.59300  0.30169  0.47857  1.0000
  C   C4078     1.0  0.81089  0.28198  0.98778  1.0000
  H   H3250     1.0  0.86716  0.36019  0.18220  1.0000
  C   C4079     1.0  0.75189  0.37608  0.38738  1.0000
  H   H3251     1.0  0.71759  0.19722  0.10142  1.0000
  C   C4080     1.0  0.81517  0.26361  0.98499  1.0000
  H   H3252     1.0  0.86901  0.20214  0.99251  1.0000
  H   H3253     1.0  0.48956  0.27968  0.38199  1.0000
  C   C4081     1.0  0.89570  0.22740  0.09500  1.0000
  H   H3254     1.0  0.52310  0.25928  0.45156  1.0000
  C   C4082     1.0  0.50586  0.32077  0.27991  1.0000
  C   C4083     1.0  0.75391  0.18870  0.28555  1.0000
  H   H3255     1.0  0.71476  0.21840  0.03398  1.0000
  H   H3256     1.0  0.89814  0.33884  0.18261  1.0000
  C   C4084     1.0  0.51200  0.26962  0.47717  1.0000
  S   S535      1.0  0.68272  0.38303  0.38676  1.0000
  C   C4085     1.0  0.78362  0.18857  0.02772  1.0000
  C   C4086     1.0  0.83956  0.37253  0.37631  1.0000
  H   H3257     1.0  0.70045  0.19183  0.05378  1.0000
  C   C4087     1.0  0.79271  0.29265  0.98838  1.0000
  C   C4088     1.0  0.73785  0.38011  0.37719  1.0000
  H   H3258     1.0  0.74620  0.19153  0.23259  1.0000
  H   H3259     1.0  0.62917  0.38081  0.19654  1.0000
  C   C4089     1.0  0.80112  0.25557  0.98327  1.0000
  C   C4090     1.0  0.59036  0.36904  0.22779  1.0000
  S   S536      1.0  0.60823  0.38139  0.29872  1.0000
  H   H3260     1.0  0.51861  0.38228  0.28662  1.0000
  H   H3261     1.0  0.53142  0.35754  0.16700  1.0000
  C   C4091     1.0  0.52305  0.37977  0.25797  1.0000
  C   C4092     1.0  0.92177  0.34069  0.98257  1.0000
  C   C4093     1.0  0.53465  0.37095  0.24362  1.0000
  H   H3262     1.0  0.58142  0.37234  0.24077  1.0000
  Fe  Fe268     1.0  0.59922  0.37848  0.27386  1.0000
  C   C4094     1.0  0.67561  0.37767  0.44301  1.0000
  C   C4095     1.0  0.90548  0.18816  0.15165  1.0000
  C   C4096     1.0  0.61733  0.37409  0.20276  1.0000
  C   C4097     1.0  0.54453  0.36987  0.18145  1.0000
  C   C4098     1.0  0.56773  0.37806  0.37114  1.0000
  H   H3263     1.0  0.93989  0.37904  0.02636  1.0000
  H   H3264     1.0  0.53104  0.37502  0.22997  1.0000
  C   C4099     1.0  0.87777  0.25397  0.98104  1.0000
  H   H3265     1.0  0.55817  0.37841  0.19840  1.0000
  H   H3266     1.0  0.82961  0.25614  0.98332  1.0000
  C   C4100     1.0  0.60556  0.37782  0.21962  1.0000
  H   H3267     1.0  0.87240  0.18527  0.17809  1.0000
  S   S537      1.0  0.87522  0.38359  0.03399  1.0000
  H   H3268     1.0  0.54309  0.38335  0.17172  1.0000
  H   H3269     1.0  0.82760  0.38348  0.40147  1.0000
  C   C4101     1.0  0.82601  0.38376  0.38754  1.0000
  C   C4102     1.0  0.66848  0.18409  0.11942  1.0000
  Fe  Fe269     1.0  0.64750  0.20884  0.74627  1.0000
  S   S538      1.0  0.63492  0.23797  0.75152  1.0000
  C   C4103     1.0  0.87091  0.21190  0.96267  1.0000
  Fe  Fe270     1.0  0.68307  0.21988  0.72143  1.0000
  S   S539      1.0  0.67383  0.24981  0.72446  1.0000
  S   S540      1.0  0.70936  0.20637  0.70374  1.0000
  Fe  Fe271     1.0  0.66378  0.23759  0.75497  1.0000
  S   S541      1.0  0.66641  0.24726  0.77995  1.0000
  Fe  Fe272     1.0  0.64595  0.24776  0.72065  1.0000
  S   S542      1.0  0.63265  0.27038  0.69881  1.0000
  S   S543      1.0  0.67524  0.20774  0.75219  1.0000
  S   S544      1.0  0.65624  0.21875  0.71518  1.0000
  P   P134      1.0  0.59084  0.19891  0.69817  1.0000
  Fe  Fe273     1.0  0.77724  0.22894  0.85146  1.0000
  S   S545      1.0  0.78638  0.19898  0.84766  1.0000
  S   S546      1.0  0.79281  0.23413  0.87118  1.0000
  Fe  Fe274     1.0  0.75275  0.23906  0.82209  1.0000
  S   S547      1.0  0.76101  0.21044  0.81573  1.0000
  S   S548      1.0  0.73328  0.26182  0.80602  1.0000
  Fe  Fe275     1.0  0.75669  0.20059  0.84696  1.0000
  H   H3270     1.0  0.78421  0.26651  0.91939  1.0000
  Fe  Fe276     1.0  0.78987  0.21158  0.81690  1.0000
  S   S549      1.0  0.81498  0.19884  0.79716  1.0000
  S   S550      1.0  0.74673  0.22939  0.85360  1.0000
  S   S551      1.0  0.78229  0.24129  0.82050  1.0000
  Fe  Fe277     1.0  0.87932  0.23899  0.71272  1.0000
  S   S552      1.0  0.89599  0.25616  0.68857  1.0000
  S   S553      1.0  0.85592  0.25477  0.73150  1.0000
  Fe  Fe278     1.0  0.90339  0.20233  0.70357  1.0000
  S   S554      1.0  0.92218  0.21677  0.67888  1.0000
  C   C4104     1.0  0.69450  0.23491  0.85034  1.0000
  Fe  Fe279     1.0  0.92099  0.23596  0.69785  1.0000
  S   S555      1.0  0.94697  0.24353  0.70127  1.0000
  Fe  Fe280     1.0  0.89509  0.23542  0.67233  1.0000
  S   S556      1.0  0.88795  0.24597  0.64347  1.0000
  S   S557      1.0  0.90428  0.21988  0.72304  1.0000
  S   S558      1.0  0.87639  0.21977  0.69601  1.0000
  H   H3271     1.0  0.60412  0.30368  0.62076  1.0000
  Fe  Fe281     1.0  0.77372  0.24297  0.61981  1.0000
  S   S559      1.0  0.79823  0.25095  0.59746  1.0000
  S   S560      1.0  0.75631  0.25960  0.64131  1.0000
  Fe  Fe282     1.0  0.77584  0.20754  0.60707  1.0000
  S   S561      1.0  0.80092  0.21198  0.58400  1.0000
  H   H3272     1.0  0.83133  0.19196  0.86311  1.0000
  Fe  Fe283     1.0  0.81182  0.22043  0.60506  1.0000
  S   S562      1.0  0.84093  0.20783  0.61153  1.0000
  Fe  Fe284     1.0  0.78520  0.24199  0.57843  1.0000
  S   S563      1.0  0.78224  0.25800  0.54896  1.0000
  S   S564      1.0  0.78802  0.21305  0.62866  1.0000
  S   S565      1.0  0.75957  0.23688  0.60037  1.0000
  S   S566      1.0  0.86213  0.26520  0.95005  1.0000
  C   C4105     1.0  0.71800  0.19639  0.58345  1.0000
  H   H3273     1.0  0.88227  0.24030  0.97749  1.0000
  C   C4106     1.0  0.72538  0.20360  0.75057  1.0000
  C   C4107     1.0  0.78278  0.20902  0.53359  1.0000
  Fe  Fe285     1.0  0.64477  0.29335  0.51107  1.0000
  S   S567      1.0  0.66632  0.26759  0.50569  1.0000
  S   S568      1.0  0.61738  0.28848  0.53074  1.0000
  Fe  Fe286     1.0  0.68694  0.28241  0.50909  1.0000
  S   S569      1.0  0.70361  0.26344  0.53042  1.0000
  C   C4108     1.0  0.79690  0.23455  0.95767  1.0000
  S   S570      1.0  0.66488  0.30747  0.51614  1.0000
  C   C4109     1.0  0.57826  0.28163  0.50621  1.0000
  Fe  Fe287     1.0  0.54471  0.29304  0.65746  1.0000
  S   S571      1.0  0.54008  0.32426  0.64586  1.0000
  S   S572      1.0  0.55113  0.27798  0.68601  1.0000
  Fe  Fe288     1.0  0.53637  0.28466  0.62353  1.0000
  S   S573      1.0  0.53112  0.31484  0.60925  1.0000
  S   S574      1.0  0.53531  0.26252  0.60909  1.0000
  Fe  Fe289     1.0  0.55633  0.31606  0.61853  1.0000
  S   S575      1.0  0.57831  0.33058  0.59789  1.0000
  Fe  Fe290     1.0  0.51516  0.32053  0.63741  1.0000
  C   C4110     1.0  0.86051  0.28606  0.97553  1.0000
  S   S576      1.0  0.56302  0.28527  0.63085  1.0000
  S   S577      1.0  0.51839  0.28988  0.65111  1.0000
  H   H3274     1.0  0.77809  0.18823  0.57496  1.0000
  C   C4111     1.0  0.83438  0.35476  0.81792  1.0000
  H   H3275     1.0  0.64047  0.20958  0.78560  1.0000
  S   S578      1.0  0.97138  0.24424  0.97053  1.0000
  H   H3276     1.0  0.79446  0.26214  0.66439  1.0000
  C   C4112     1.0  0.51316  0.26484  0.60434  1.0000
  C   C4113     1.0  0.51105  0.25391  0.59296  1.0000
  C   C4114     1.0  0.87959  0.37946  0.82088  1.0000
  H   H3277     1.0  0.69452  0.20551  0.85909  1.0000
  H   H3278     1.0  0.74647  0.20038  0.78616  1.0000
  C   C4115     1.0  0.57997  0.33197  0.51160  1.0000
  H   H3279     1.0  0.52285  0.24370  0.58765  1.0000
  Fe  Fe291     1.0  0.97395  0.33831  0.77842  1.0000
  Fe  Fe292     1.0  0.82155  0.31068  0.90710  1.0000
  C   C4116     1.0  0.48970  0.36795  0.65141  1.0000
  H   H3280     1.0  0.48956  0.27814  0.69356  1.0000
  H   H3281     1.0  0.50226  0.35890  0.65552  1.0000
  C   C4117     1.0  0.61892  0.21203  0.81049  1.0000
  H   H3282     1.0  0.49388  0.30793  0.58056  1.0000
  C   C4118     1.0  0.50880  0.22126  0.50059  1.0000
  C   C4119     1.0  0.97043  0.22646  0.65170  1.0000
  C   C4120     1.0  0.85317  0.36698  0.77074  1.0000
  H   H3283     1.0  0.72203  0.19121  0.49582  1.0000
  C   C4121     1.0  0.72208  0.20570  0.49486  1.0000
  C   C4122     1.0  0.60716  0.30024  0.54943  1.0000
  C   C4123     1.0  0.59007  0.29666  0.56091  1.0000
  C   C4124     1.0  0.58134  0.30573  0.57593  1.0000
  C   C4125     1.0  0.58954  0.31862  0.57948  1.0000
  C   C4126     1.0  0.60674  0.32207  0.56817  1.0000
  C   C4127     1.0  0.61556  0.31293  0.55313  1.0000
  H   H3284     1.0  0.58359  0.28675  0.55821  1.0000
  H   H3285     1.0  0.56822  0.30274  0.58473  1.0000
  H   H3286     1.0  0.61338  0.33156  0.57126  1.0000
  H   H3287     1.0  0.62883  0.31567  0.54449  1.0000
  H   H3288     1.0  0.54110  0.22579  0.74706  1.0000
  H   H3289     1.0  0.68489  0.27682  0.74369  1.0000
  C   C4128     1.0  0.90590  0.36605  0.79866  1.0000
  H   H3290     1.0  0.57432  0.32136  0.50905  1.0000
  C   C4129     1.0  0.94840  0.28946  0.73041  1.0000
  S   S579      1.0  0.94722  0.32921  0.78025  1.0000
  H   H3291     1.0  0.78232  0.28290  0.82240  1.0000
  C   C4130     1.0  0.66081  0.21145  0.62531  1.0000
  C   C4131     1.0  0.89353  0.33707  0.77369  1.0000
  C   C4132     1.0  0.51625  0.27362  0.49244  1.0000
  C   C4133     1.0  0.72809  0.19116  0.56658  1.0000
  H   H3292     1.0  0.93702  0.30364  0.97495  1.0000
  H   H3293     1.0  0.92057  0.19444  0.58264  1.0000
  H   H3294     1.0  0.79062  0.19296  0.77642  1.0000
  C   C4134     1.0  0.81765  0.38110  0.94785  1.0000
  H   H3295     1.0  0.59750  0.21553  0.75475  1.0000
  H   H3296     1.0  0.90784  0.29225  0.81040  1.0000
  H   H3297     1.0  0.88581  0.25821  0.82539  1.0000
  H   H3298     1.0  0.85149  0.29727  0.96785  1.0000
  C   C4135     1.0  0.76030  0.26014  0.54357  1.0000
  C   C4136     1.0  0.75491  0.27328  0.52784  1.0000
  C   C4137     1.0  0.73738  0.27488  0.52359  1.0000
  C   C4138     1.0  0.72529  0.26328  0.53510  1.0000
  C   C4139     1.0  0.73081  0.25019  0.55067  1.0000
  C   C4140     1.0  0.74821  0.24853  0.55479  1.0000
  H   H3299     1.0  0.76427  0.28223  0.51897  1.0000
  H   H3300     1.0  0.73334  0.28491  0.51142  1.0000
  H   H3301     1.0  0.72166  0.24109  0.55957  1.0000
  H   H3302     1.0  0.75243  0.23784  0.56639  1.0000
  H   H3303     1.0  0.81296  0.34050  0.86344  1.0000
  H   H3304     1.0  0.88597  0.20719  0.95923  1.0000
  C   C4141     1.0  0.49645  0.22589  0.48838  1.0000
  C   C4142     1.0  0.67730  0.25723  0.62149  1.0000
  H   H3305     1.0  0.79822  0.26387  0.94610  1.0000
  H   H3306     1.0  0.74319  0.27946  0.69490  1.0000
  H   H3307     1.0  0.89143  0.29947  0.88355  1.0000
  C   C4143     1.0  0.56003  0.30177  0.48373  1.0000
  H   H3308     1.0  0.85210  0.35239  0.77421  1.0000
  H   H3309     1.0  0.66767  0.26666  0.82171  1.0000
  C   C4144     1.0  0.94681  0.26047  0.71377  1.0000
  C   C4145     1.0  0.96399  0.26280  0.71561  1.0000
  C   C4146     1.0  0.96478  0.27715  0.72389  1.0000
  H   H3310     1.0  0.86853  0.22373  0.93391  1.0000
  C   C4147     1.0  0.86681  0.26862  0.97037  1.0000
  C   C4148     1.0  0.93030  0.27236  0.72083  1.0000
  H   H3311     1.0  0.97685  0.25391  0.70992  1.0000
  H   H3312     1.0  0.97817  0.27947  0.72407  1.0000
  C   C4149     1.0  0.92348  0.32092  0.68805  1.0000
  H   H3313     1.0  0.91701  0.27093  0.71921  1.0000
  C   C4150     1.0  0.87286  0.23573  0.63673  1.0000
  C   C4151     1.0  0.87223  0.21673  0.64343  1.0000
  C   C4152     1.0  0.86181  0.20847  0.63616  1.0000
  C   C4153     1.0  0.85144  0.21921  0.62253  1.0000
  C   C4154     1.0  0.85143  0.23838  0.61646  1.0000
  C   C4155     1.0  0.86232  0.24652  0.62331  1.0000
  H   H3314     1.0  0.88038  0.20824  0.65365  1.0000
  H   H3315     1.0  0.86215  0.19361  0.64085  1.0000
  H   H3316     1.0  0.84374  0.24677  0.60580  1.0000
  H   H3317     1.0  0.86281  0.26119  0.61794  1.0000
  H   H3318     1.0  0.89006  0.29665  0.94381  1.0000
  H   H3319     1.0  0.56385  0.25958  0.48138  1.0000
  H   H3320     1.0  0.71375  0.25390  0.74903  1.0000
  H   H3321     1.0  0.60942  0.20331  0.72586  1.0000
  C   C4156     1.0  0.49740  0.30357  0.69329  1.0000
  H   H3322     1.0  0.62644  0.20741  0.85406  1.0000
  S   S580      1.0  0.98236  0.31474  0.80165  1.0000
  H   H3323     1.0  0.70524  0.23400  0.85777  1.0000
  H   H3324     1.0  0.89732  0.30826  0.64925  1.0000
  C   C4157     1.0  0.49160  0.32293  0.69190  1.0000
  C   C4158     1.0  0.79648  0.25533  0.87418  1.0000
  C   C4159     1.0  0.81073  0.25448  0.88334  1.0000
  C   C4160     1.0  0.81301  0.27067  0.88770  1.0000
  C   C4161     1.0  0.52142  0.29289  0.52341  1.0000
  H   H3325     1.0  0.88533  0.22581  0.76382  1.0000
  C   C4162     1.0  0.78489  0.27271  0.86885  1.0000
  H   H3326     1.0  0.81974  0.24110  0.88757  1.0000
  H   H3327     1.0  0.82372  0.26970  0.89518  1.0000
  H   H3328     1.0  0.97835  0.35999  0.89900  1.0000
  C   C4163     1.0  0.82654  0.21458  0.77933  1.0000
  C   C4164     1.0  0.82045  0.23396  0.77774  1.0000
  C   C4165     1.0  0.82994  0.24623  0.76336  1.0000
  C   C4166     1.0  0.84510  0.23918  0.75012  1.0000
  C   C4167     1.0  0.85125  0.21980  0.75167  1.0000
  C   C4168     1.0  0.84206  0.20752  0.76639  1.0000
  H   H3329     1.0  0.80842  0.23956  0.78748  1.0000
  H   H3330     1.0  0.82525  0.26121  0.76220  1.0000
  H   H3331     1.0  0.86300  0.21424  0.74150  1.0000
  H   H3332     1.0  0.85860  0.18627  0.57342  1.0000
  C   C4169     1.0  0.85668  0.34461  0.83821  1.0000
  C   C4170     1.0  0.49765  0.27771  0.61154  1.0000
  P   P135      1.0  0.60425  0.37650  0.52351  1.0000
  C   C4171     1.0  0.62936  0.18929  0.68327  1.0000
  H   H3333     1.0  0.60430  0.34404  0.65117  1.0000
  H   H3334     1.0  0.91557  0.27999  0.86323  1.0000
  H   H3335     1.0  0.91180  0.35778  0.78798  1.0000
  P   P136      1.0  0.73647  0.19437  0.52790  1.0000
  C   C4172     1.0  0.76357  0.27388  0.76138  1.0000
  C   C4173     1.0  0.78857  0.23474  0.66949  1.0000
  C   C4174     1.0  0.61010  0.27164  0.69543  1.0000
  C   C4175     1.0  0.59749  0.26163  0.70866  1.0000
  C   C4176     1.0  0.57943  0.26358  0.70562  1.0000
  C   C4177     1.0  0.57404  0.27526  0.68922  1.0000
  C   C4178     1.0  0.58683  0.28487  0.67582  1.0000
  C   C4179     1.0  0.60468  0.28324  0.67906  1.0000
  H   H3336     1.0  0.60151  0.25270  0.72136  1.0000
  H   H3337     1.0  0.56958  0.25613  0.71606  1.0000
  H   H3338     1.0  0.58278  0.29394  0.66319  1.0000
  H   H3339     1.0  0.61422  0.29124  0.66895  1.0000
  C   C4180     1.0  0.72055  0.22228  0.68572  1.0000
  C   C4181     1.0  0.71971  0.24039  0.68775  1.0000
  C   C4182     1.0  0.73024  0.25214  0.67373  1.0000
  C   C4183     1.0  0.74153  0.24583  0.65776  1.0000
  C   C4184     1.0  0.74145  0.22817  0.65530  1.0000
  C   C4185     1.0  0.73105  0.21642  0.66925  1.0000
  H   H3340     1.0  0.71141  0.24520  0.70026  1.0000
  H   H3341     1.0  0.72988  0.26602  0.67527  1.0000
  H   H3342     1.0  0.74939  0.22351  0.64264  1.0000
  H   H3343     1.0  0.73111  0.20279  0.66720  1.0000
  C   C4186     1.0  0.68749  0.25038  0.78346  1.0000
  C   C4187     1.0  0.68937  0.26864  0.78216  1.0000
  C   C4188     1.0  0.70396  0.27176  0.78837  1.0000
  C   C4189     1.0  0.71655  0.25669  0.79662  1.0000
  C   C4190     1.0  0.71492  0.23831  0.79780  1.0000
  C   C4191     1.0  0.70047  0.23516  0.79112  1.0000
  H   H3344     1.0  0.67905  0.28049  0.77701  1.0000
  H   H3345     1.0  0.70497  0.28598  0.78755  1.0000
  H   H3346     1.0  0.72428  0.22658  0.80450  1.0000
  H   H3347     1.0  0.69868  0.22101  0.79295  1.0000
  H   H3348     1.0  0.88576  0.31958  0.82097  1.0000
  C   C4192     1.0  0.66018  0.35479  0.52169  1.0000
  H   H3349     1.0  0.53778  0.21246  0.50276  1.0000
  H   H3350     1.0  0.64765  0.19459  0.91022  1.0000
  H   H3351     1.0  0.67494  0.34433  0.54427  1.0000
  C   C4193     1.0  0.88087  0.34192  0.67611  1.0000
  C   C4194     1.0  0.68844  0.21878  0.85093  1.0000
  C   C4195     1.0  0.98731  0.20503  0.63114  1.0000
  H   H3352     1.0  0.55048  0.31403  0.55611  1.0000
  C   C4196     1.0  0.49067  0.29719  0.54415  1.0000
  C   C4197     1.0  0.83193  0.22462  0.97163  1.0000
  C   C4198     1.0  0.72872  0.21105  0.50796  1.0000
  H   H3353     1.0  0.60762  0.21482  0.80318  1.0000
  C   C4199     1.0  0.56103  0.28824  0.50052  1.0000
  C   C4200     1.0  0.76038  0.19606  0.52565  1.0000
  C   C4201     1.0  0.72228  0.20032  0.54967  1.0000
  C   C4202     1.0  0.70564  0.21405  0.55001  1.0000
  C   C4203     1.0  0.69538  0.21902  0.56698  1.0000
  C   C4204     1.0  0.70169  0.21037  0.58364  1.0000
  C   C4205     1.0  0.63745  0.20914  0.80053  1.0000
  H   H3354     1.0  0.50486  0.27906  0.50297  1.0000
  C   C4206     1.0  0.76453  0.20657  0.53627  1.0000
  H   H3355     1.0  0.89082  0.19793  0.60624  1.0000
  H   H3356     1.0  0.63474  0.19661  0.60398  1.0000
  H   H3357     1.0  0.54666  0.21054  0.54433  1.0000
  C   C4207     1.0  0.96718  0.35627  0.91072  1.0000
  H   H3358     1.0  0.66411  0.31043  0.60136  1.0000
  H   H3359     1.0  0.98353  0.33274  0.83031  1.0000
  H   H3360     1.0  0.90985  0.26878  0.95961  1.0000
  H   H3361     1.0  0.72421  0.18621  0.77834  1.0000
  C   C4208     1.0  0.87943  0.27828  0.84278  1.0000
  C   C4209     1.0  0.61173  0.30931  0.62749  1.0000
  C   C4210     1.0  0.97230  0.21181  0.66734  1.0000
  H   H3362     1.0  0.51285  0.36754  0.52973  1.0000
  H   H3363     1.0  0.70079  0.22140  0.53721  1.0000
  H   H3364     1.0  0.68297  0.23018  0.56696  1.0000
  H   H3365     1.0  0.69417  0.21479  0.59659  1.0000
  P   P137      1.0  0.66741  0.19875  0.84134  1.0000
  H   H3366     1.0  0.67265  0.35188  0.51095  1.0000
  H   H3367     1.0  0.52681  0.29398  0.56822  1.0000
  C   C4211     1.0  0.72952  0.22990  0.50543  1.0000
  H   H3368     1.0  0.85721  0.23871  0.85294  1.0000
  H   H3369     1.0  0.50151  0.33111  0.69161  1.0000
  H   H3370     1.0  0.61800  0.28397  0.59239  1.0000
  C   C4212     1.0  0.85652  0.27218  0.82905  1.0000
  C   C4213     1.0  0.66147  0.35050  0.54050  1.0000
  H   H3371     1.0  0.76024  0.21476  0.70820  1.0000
  C   C4214     1.0  0.90570  0.32130  0.76782  1.0000
  H   H3372     1.0  0.84826  0.20997  0.87360  1.0000
  H   H3373     1.0  0.65699  0.23848  0.82242  1.0000
  H   H3374     1.0  0.62177  0.34290  0.50738  1.0000
  C   C4215     1.0  0.79306  0.19073  0.50944  1.0000
  C   C4216     1.0  0.97413  0.28346  0.91234  1.0000
  C   C4217     1.0  0.77473  0.18846  0.51195  1.0000
  C   C4218     1.0  0.54853  0.22415  0.54473  1.0000
  C   C4219     1.0  0.53048  0.36977  0.61099  1.0000
  C   C4220     1.0  0.91159  0.28259  0.95925  1.0000
  C   C4221     1.0  0.51189  0.34735  0.56857  1.0000
  C   C4222     1.0  0.84702  0.29420  0.84987  1.0000
  P   P138      1.0  0.91832  0.34130  0.95956  1.0000
  C   C4223     1.0  0.61503  0.21150  0.82977  1.0000
  C   C4224     1.0  0.64728  0.19326  0.67633  1.0000
  C   C4225     1.0  0.90330  0.30454  0.80012  1.0000
  H   H3375     1.0  0.63774  0.33036  0.65217  1.0000
  H   H3376     1.0  0.93358  0.27210  0.97465  1.0000
  H   H3377     1.0  0.94416  0.19602  0.63409  1.0000
  C   C4226     1.0  0.89560  0.32566  0.86481  1.0000
  C   C4227     1.0  0.88715  0.37069  0.65423  1.0000
  C   C4228     1.0  0.53065  0.33930  0.56169  1.0000
  H   H3378     1.0  0.79672  0.23212  0.65593  1.0000
  H   H3379     1.0  0.73917  0.26780  0.75697  1.0000
  C   C4229     1.0  0.61559  0.27248  0.60425  1.0000
  H   H3380     1.0  0.78571  0.21750  0.54163  1.0000
  C   C4230     1.0  0.79842  0.19090  0.72405  1.0000
  C   C4231     1.0  0.80166  0.20626  0.72881  1.0000
  C   C4232     1.0  0.79888  0.20699  0.74769  1.0000
  C   C4233     1.0  0.79259  0.19247  0.76178  1.0000
  H   H3381     1.0  0.50235  0.33930  0.52238  1.0000
  C   C4234     1.0  0.63053  0.32460  0.64511  1.0000
  C   C4235     1.0  0.66726  0.23721  0.83054  1.0000
  C   C4236     1.0  0.74997  0.22002  0.75962  1.0000
  H   H3382     1.0  0.92112  0.29333  0.77646  1.0000
  H   H3383     1.0  0.49230  0.24789  0.57925  1.0000
  C   C4237     1.0  0.58033  0.37536  0.55861  1.0000
  C   C4238     1.0  0.76413  0.25760  0.73739  1.0000
  C   C4239     1.0  0.73072  0.27862  0.70577  1.0000
  H   H3384     1.0  0.95047  0.27730  0.66715  1.0000
  C   C4240     1.0  0.86549  0.29118  0.85174  1.0000
  C   C4241     1.0  0.86849  0.37964  0.65962  1.0000
  H   H3385     1.0  0.80680  0.21735  0.71784  1.0000
  H   H3386     1.0  0.80181  0.21864  0.75149  1.0000
  H   H3387     1.0  0.54177  0.36048  0.61733  1.0000
  C   C4242     1.0  0.56801  0.34650  0.51974  1.0000
  H   H3388     1.0  0.96300  0.24040  0.65373  1.0000
  C   C4243     1.0  0.56853  0.22171  0.75264  1.0000
  C   C4244     1.0  0.58774  0.21529  0.74661  1.0000
  H   H3389     1.0  0.82924  0.18789  0.65003  1.0000
  C   C4245     1.0  0.58204  0.20826  0.71924  1.0000
  H   H3390     1.0  0.96613  0.21478  0.68114  1.0000
  C   C4246     1.0  0.82298  0.36746  0.97925  1.0000
  C   C4247     1.0  0.57798  0.21086  0.67982  1.0000
  C   C4248     1.0  0.61402  0.20347  0.68831  1.0000
  C   C4249     1.0  0.61675  0.22169  0.68578  1.0000
  C   C4250     1.0  0.63466  0.22553  0.67912  1.0000
  C   C4251     1.0  0.64995  0.21134  0.67436  1.0000
  C   C4252     1.0  0.94883  0.33358  0.93015  1.0000
  H   H3391     1.0  0.85524  0.27806  0.65341  1.0000
  S   S581      1.0  0.50095  0.22136  0.52489  1.0000
  C   C4253     1.0  0.56974  0.21133  0.65063  1.0000
  C   C4254     1.0  0.55831  0.22913  0.65102  1.0000
  C   C4255     1.0  0.55721  0.23807  0.66537  1.0000
  C   C4256     1.0  0.56715  0.22910  0.67962  1.0000
  C   C4257     1.0  0.55568  0.24433  0.56084  1.0000
  P   P139      1.0  0.88835  0.31750  0.68635  1.0000
  C   C4258     1.0  0.87811  0.32811  0.72099  1.0000
  C   C4259     1.0  0.73237  0.21850  0.73774  1.0000
  C   C4260     1.0  0.84252  0.28485  0.83853  1.0000
  Fe  Fe293     1.0  0.95734  0.30428  0.80160  1.0000
  C   C4261     1.0  0.62805  0.36218  0.54933  1.0000
  H   H3392     1.0  0.56336  0.22717  0.76538  1.0000
  H   H3393     1.0  0.81115  0.20319  0.51805  1.0000
  H   H3394     1.0  0.66638  0.20413  0.80162  1.0000
  C   C4262     1.0  0.57974  0.20232  0.66484  1.0000
  H   H3395     1.0  0.60505  0.23287  0.68941  1.0000
  H   H3396     1.0  0.63665  0.23943  0.67822  1.0000
  H   H3397     1.0  0.66391  0.21426  0.66957  1.0000
  Fe  Fe294     1.0  0.96422  0.31178  0.75898  1.0000
  C   C4263     1.0  0.82967  0.27206  0.80673  1.0000
  H   H3398     1.0  0.88167  0.27821  0.79351  1.0000
  H   H3399     1.0  0.55050  0.23616  0.64005  1.0000
  H   H3400     1.0  0.54867  0.25205  0.66540  1.0000
  H   H3401     1.0  0.56641  0.23655  0.69031  1.0000
  C   C4264     1.0  0.89509  0.36532  0.93628  1.0000
  H   H3402     1.0  0.64380  0.27125  0.65814  1.0000
  C   C4265     1.0  0.69772  0.29101  0.71650  1.0000
  C   C4266     1.0  0.92661  0.30239  0.96819  1.0000
  C   C4267     1.0  0.86115  0.28602  0.65956  1.0000
  C   C4268     1.0  0.88078  0.31357  0.71159  1.0000
  H   H3403     1.0  0.71579  0.19737  0.74701  1.0000
  H   H3404     1.0  0.84090  0.28338  0.68568  1.0000
  C   C4269     1.0  0.67079  0.25380  0.66035  1.0000
  H   H3405     1.0  0.56313  0.37391  0.58627  1.0000
  C   C4270     1.0  0.78365  0.25586  0.73203  1.0000
  C   C4271     1.0  0.84237  0.34053  0.85368  1.0000
  H   H3406     1.0  0.75579  0.28056  0.77301  1.0000
  H   H3407     1.0  0.91613  0.33270  0.69459  1.0000
  H   H3408     1.0  0.90353  0.34925  0.84371  1.0000
  C   C4272     1.0  0.87494  0.26862  0.83169  1.0000
  C   C4273     1.0  0.89721  0.18449  0.60232  1.0000
  C   C4274     1.0  0.64744  0.21233  0.61526  1.0000
  C   C4275     1.0  0.82405  0.34359  0.85135  1.0000
  S   S582      1.0  0.80164  0.30828  0.89018  1.0000
  H   H3409     1.0  0.86489  0.38156  0.82767  1.0000
  H   H3410     1.0  0.97684  0.28700  0.95548  1.0000
  C   C4276     1.0  0.53597  0.32021  0.56122  1.0000
  C   C4277     1.0  0.50361  0.32424  0.52625  1.0000
  C   C4278     1.0  0.66006  0.26633  0.63097  1.0000
  S   S583      1.0  0.97288  0.28646  0.78060  1.0000
  C   C4279     1.0  0.78727  0.25171  0.67426  1.0000
  P   P140      1.0  0.85065  0.25922  0.81516  1.0000
  C   C4280     1.0  0.75416  0.26665  0.75220  1.0000
  H   H3411     1.0  0.55297  0.27338  0.54717  1.0000
  C   C4281     1.0  0.67650  0.30747  0.57304  1.0000
  H   H3412     1.0  0.68029  0.25853  0.60641  1.0000
  H   H3413     1.0  0.53400  0.35319  0.59086  1.0000
  C   C4282     1.0  0.65469  0.28889  0.59441  1.0000
  H   H3414     1.0  0.83896  0.37404  0.74776  1.0000
  C   C4283     1.0  0.92478  0.28453  0.96802  1.0000
  C   C4284     1.0  0.87852  0.29568  0.72212  1.0000
  P   P141      1.0  0.64252  0.28103  0.61810  1.0000
  H   H3415     1.0  0.84686  0.19253  0.76767  1.0000
  C   C4285     1.0  0.98730  0.25239  0.88577  1.0000
  C   C4286     1.0  0.63999  0.30925  0.63684  1.0000
  C   C4287     1.0  0.83125  0.21053  0.83605  1.0000
  H   H3416     1.0  0.93277  0.37567  0.94356  1.0000
  H   H3417     1.0  0.82383  0.20273  0.83145  1.0000
  H   H3418     1.0  0.83129  0.23211  0.81118  1.0000
  H   H3419     1.0  0.60064  0.21398  0.83744  1.0000
  C   C4288     1.0  0.97801  0.22311  0.63360  1.0000
  C   C4289     1.0  0.50680  0.28536  0.53646  1.0000
  H   H3420     1.0  0.81468  0.37980  0.93506  1.0000
  H   H3421     1.0  0.78204  0.20811  0.93642  1.0000
  H   H3422     1.0  0.55633  0.21482  0.57168  1.0000
  P   P142      1.0  0.87160  0.35763  0.80049  1.0000
  C   C4290     1.0  0.79297  0.26330  0.74109  1.0000
  H   H3423     1.0  0.73494  0.23429  0.51512  1.0000
  C   C4291     1.0  0.67495  0.21974  0.84079  1.0000
  C   C4292     1.0  0.88680  0.36834  0.80729  1.0000
  H   H3424     1.0  0.84553  0.33501  0.86751  1.0000
  C   C4293     1.0  0.68699  0.25217  0.83986  1.0000
  C   C4294     1.0  0.78657  0.25317  0.92921  1.0000
  C   C4295     1.0  0.64838  0.20464  0.82920  1.0000
  C   C4296     1.0  0.87775  0.30493  0.67606  1.0000
  C   C4297     1.0  0.97961  0.32283  0.96660  1.0000
  C   C4298     1.0  0.92308  0.30362  0.84180  1.0000
  H   H3425     1.0  0.89368  0.27563  0.84460  1.0000
  C   C4299     1.0  0.59485  0.35855  0.51962  1.0000
  H   H3426     1.0  0.64214  0.36567  0.50198  1.0000
  H   H3427     1.0  0.88319  0.29067  0.63527  1.0000
  H   H3428     1.0  0.89091  0.34982  0.76324  1.0000
  H   H3429     1.0  0.87063  0.33618  0.74771  1.0000
  S   S584      1.0  0.81864  0.30312  0.93854  1.0000
  C   C4300     1.0  0.71413  0.26427  0.73601  1.0000
  C   C4301     1.0  0.65213  0.20578  0.80974  1.0000
  H   H3430     1.0  0.87068  0.34239  0.84043  1.0000
  H   H3431     1.0  0.80116  0.19038  0.70935  1.0000
  C   C4302     1.0  0.79707  0.20103  0.52025  1.0000
  C   C4303     1.0  0.50410  0.31674  0.57519  1.0000
  H   H3432     1.0  0.58776  0.33066  0.63518  1.0000
  H   H3433     1.0  0.60745  0.28282  0.49949  1.0000
  H   H3434     1.0  0.94332  0.35717  0.97278  1.0000
  H   H3435     1.0  0.57083  0.20459  0.63927  1.0000
  C   C4304     1.0  0.86968  0.30727  0.75090  1.0000
  C   C4305     1.0  0.86210  0.35091  0.68126  1.0000
  H   H3436     1.0  0.51175  0.29675  0.69420  1.0000
  H   H3437     1.0  0.68255  0.19400  0.63914  1.0000
  H   H3438     1.0  0.97229  0.21042  0.73432  1.0000
  C   C4306     1.0  0.88636  0.36883  0.96866  1.0000
  H   H3439     1.0  0.69868  0.23701  0.65843  1.0000
  H   H3440     1.0  0.90411  0.35844  0.92524  1.0000
  C   C4307     1.0  0.91495  0.31846  0.95984  1.0000
  C   C4308     1.0  0.86106  0.22105  0.94840  1.0000
  H   H3441     1.0  0.55306  0.34731  0.52311  1.0000
  C   C4309     1.0  0.62522  0.26810  0.61893  1.0000
  H   H3442     1.0  0.86893  0.29863  0.86039  1.0000
  C   C4310     1.0  0.93787  0.34685  0.94081  1.0000
  C   C4311     1.0  0.87257  0.32495  0.74056  1.0000
  C   C4312     1.0  0.83069  0.28220  0.78811  1.0000
  C   C4313     1.0  0.65690  0.26438  0.65050  1.0000
  C   C4314     1.0  0.78221  0.23749  0.92626  1.0000
  C   C4315     1.0  0.82007  0.35060  0.83346  1.0000
  H   H3443     1.0  0.97661  0.23453  0.62150  1.0000
  H   H3444     1.0  0.82803  0.28730  0.83766  1.0000
  H   H3445     1.0  0.84400  0.28195  0.77830  1.0000
  C   C4316     1.0  0.51979  0.31243  0.51846  1.0000
  S   S585      1.0  0.87814  0.33983  0.87862  1.0000
  H   H3446     1.0  0.85452  0.30090  0.69985  1.0000
  C   C4317     1.0  0.81437  0.29246  0.78188  1.0000
  C   C4318     1.0  0.49869  0.33583  0.57555  1.0000
  H   H3447     1.0  0.79486  0.20534  0.96411  1.0000
  C   C4319     1.0  0.93112  0.28691  0.72890  1.0000
  C   C4320     1.0  0.63058  0.30131  0.62817  1.0000
  C   C4321     1.0  0.86120  0.29864  0.68586  1.0000
  C   C4322     1.0  0.88512  0.30277  0.65743  1.0000
  H   H3448     1.0  0.77758  0.30213  0.86978  1.0000
  H   H3449     1.0  0.91838  0.29668  0.73328  1.0000
  H   H3450     1.0  0.88050  0.34184  0.71325  1.0000
  P   P143      1.0  0.75193  0.24752  0.72621  1.0000
  C   C4323     1.0  0.61170  0.33229  0.64458  1.0000
  H   H3451     1.0  0.55933  0.24636  0.57302  1.0000
  C   C4324     1.0  0.52588  0.36556  0.59603  1.0000
  C   C4325     1.0  0.64516  0.19591  0.61174  1.0000
  H   H3452     1.0  0.91185  0.32194  0.75304  1.0000
  C   C4326     1.0  0.84555  0.23734  0.83007  1.0000
  C   C4327     1.0  0.85597  0.36973  0.67309  1.0000
  C   C4328     1.0  0.54508  0.23939  0.52994  1.0000
  C   C4329     1.0  0.72287  0.24338  0.49070  1.0000
  Fe  Fe295     1.0  0.82650  0.33058  0.93621  1.0000
  S   S586      1.0  0.94943  0.31017  0.73676  1.0000
  C   C4330     1.0  0.74477  0.22684  0.74210  1.0000
  H   H3453     1.0  0.54126  0.34770  0.55706  1.0000
  H   H3454     1.0  0.72774  0.22383  0.72457  1.0000
  C   C4331     1.0  0.94298  0.28982  0.67246  1.0000
  H   H3455     1.0  0.63884  0.22573  0.61017  1.0000
  H   H3456     1.0  0.72306  0.25799  0.48928  1.0000
  H   H3457     1.0  0.95882  0.38372  0.91738  1.0000
  H   H3458     1.0  0.53086  0.31858  0.50859  1.0000
  C   C4332     1.0  0.60236  0.32472  0.63567  1.0000
  C   C4333     1.0  0.81941  0.36544  0.96262  1.0000
  C   C4334     1.0  0.96867  0.28402  0.93145  1.0000
  C   C4335     1.0  0.95962  0.23942  0.78086  1.0000
  C   C4336     1.0  0.55601  0.22094  0.74230  1.0000
  P   P144      1.0  0.95831  0.27951  0.90038  1.0000
  C   C4337     1.0  0.94181  0.26583  0.91578  1.0000
  C   C4338     1.0  0.94668  0.30265  0.89035  1.0000
  C   C4339     1.0  0.93108  0.31231  0.90139  1.0000
  C   C4340     1.0  0.92239  0.33056  0.89403  1.0000
  C   C4341     1.0  0.92954  0.33947  0.87578  1.0000
  C   C4342     1.0  0.94528  0.33007  0.86480  1.0000
  C   C4343     1.0  0.95389  0.31172  0.87206  1.0000
  C   C4344     1.0  0.92382  0.26877  0.91229  1.0000
  C   C4345     1.0  0.91132  0.25756  0.92363  1.0000
  C   C4346     1.0  0.91679  0.24313  0.93831  1.0000
  C   C4347     1.0  0.93479  0.23990  0.94167  1.0000
  C   C4348     1.0  0.94733  0.25108  0.93033  1.0000
  C   C4349     1.0  0.97078  0.26563  0.88310  1.0000
  C   C4350     1.0  0.85287  0.35181  0.82018  1.0000
  C   C4351     1.0  0.98168  0.19362  0.66502  1.0000
  C   C4352     1.0  0.59926  0.33100  0.50692  1.0000
  C   C4353     1.0  0.97217  0.25519  0.85489  1.0000
  C   C4354     1.0  0.96313  0.26675  0.86773  1.0000
  C   C4355     1.0  0.91079  0.30511  0.78102  1.0000
  C   C4356     1.0  0.76628  0.24228  0.70402  1.0000
  C   C4357     1.0  0.96578  0.23650  0.76251  1.0000
  H   H3459     1.0  0.95528  0.28114  0.93951  1.0000
  C   C4358     1.0  0.64541  0.35416  0.55433  1.0000
  H   H3460     1.0  0.92551  0.30566  0.91561  1.0000
  H   H3461     1.0  0.90978  0.33762  0.90224  1.0000
  H   H3462     1.0  0.92246  0.35343  0.86994  1.0000
  H   H3463     1.0  0.95049  0.33685  0.85048  1.0000
  H   H3464     1.0  0.96602  0.30462  0.86334  1.0000
  H   H3465     1.0  0.91942  0.27964  0.90076  1.0000
  H   H3466     1.0  0.89730  0.26015  0.92116  1.0000
  H   H3467     1.0  0.90693  0.23472  0.94728  1.0000
  H   H3468     1.0  0.93902  0.22890  0.95322  1.0000
  H   H3469     1.0  0.96131  0.24818  0.93298  1.0000
  C   C4359     1.0  0.52269  0.30891  0.56803  1.0000
  Fe  Fe296     1.0  0.84959  0.29215  0.93229  1.0000
  H   H3470     1.0  0.75366  0.21327  0.54637  1.0000
  H   H3471     1.0  0.96634  0.25644  0.84285  1.0000
  H   H3472     1.0  0.95017  0.27653  0.86566  1.0000
  S   S587      1.0  0.81479  0.34388  0.96179  1.0000
  C   C4360     1.0  0.84525  0.21449  0.85965  1.0000
  C   C4361     1.0  0.87700  0.29311  0.64934  1.0000
  H   H3473     1.0  0.60853  0.31967  0.50066  1.0000
  H   H3474     1.0  0.97174  0.32797  0.90699  1.0000
  H   H3475     1.0  0.62710  0.25112  0.64661  1.0000
  H   H3476     1.0  0.90725  0.27170  0.76651  1.0000
  C   C4362     1.0  0.77620  0.25548  0.69141  1.0000
  H   H3477     1.0  0.83764  0.19067  0.55160  1.0000
  H   H3478     1.0  0.94483  0.24142  0.78731  1.0000
  C   C4363     1.0  0.96348  0.33826  0.91524  1.0000
  C   C4364     1.0  0.90605  0.33414  0.84789  1.0000
  C   C4365     1.0  0.98483  0.23434  0.75403  1.0000
  C   C4366     1.0  0.94149  0.36501  0.93596  1.0000
  H   H3479     1.0  0.55281  0.21324  0.71810  1.0000
  C   C4367     1.0  0.91767  0.37442  0.80379  1.0000
  H   H3480     1.0  0.70461  0.23998  0.62401  1.0000
  C   C4368     1.0  0.85024  0.23090  0.84784  1.0000
  S   S588      1.0  0.85207  0.29722  0.90107  1.0000
  C   C4369     1.0  0.73073  0.26451  0.72219  1.0000
  S   S589      1.0  0.82625  0.33954  0.90530  1.0000
  C   C4370     1.0  0.78296  0.27217  0.75588  1.0000
  C   C4371     1.0  0.84571  0.37920  0.75578  1.0000
  H   H3481     1.0  0.68476  0.31797  0.57039  1.0000
  C   C4372     1.0  0.89825  0.35952  0.95467  1.0000
  C   C4373     1.0  0.55200  0.25964  0.54619  1.0000
  H   H3482     1.0  0.91632  0.28633  0.67118  1.0000
  C   C4374     1.0  0.62970  0.20778  0.83913  1.0000
  H   H3483     1.0  0.84144  0.37659  0.67707  1.0000
  C   C4375     1.0  0.79428  0.25165  0.94458  1.0000
  C   C4376     1.0  0.55391  0.22659  0.56012  1.0000
  C   C4377     1.0  0.74277  0.20523  0.77252  1.0000
  H   H3484     1.0  0.95573  0.23638  0.75466  1.0000
  C   C4378     1.0  0.78528  0.22029  0.93888  1.0000
  H   H3485     1.0  0.79185  0.24862  0.72103  1.0000
  C   C4379     1.0  0.54699  0.25721  0.53049  1.0000
  C   C4380     1.0  0.79257  0.21880  0.95456  1.0000
  H   H3486     1.0  0.77669  0.23863  0.91402  1.0000
  H   H3487     1.0  0.96763  0.24316  0.80475  1.0000
  C   C4381     1.0  0.80082  0.28788  0.88318  1.0000
  C   C4382     1.0  0.66475  0.30314  0.59060  1.0000
  H   H3488     1.0  0.96821  0.32785  0.95923  1.0000
  C   C4383     1.0  0.90027  0.29844  0.95052  1.0000
  C   C4384     1.0  0.53499  0.27047  0.49392  1.0000
  C   C4385     1.0  0.71424  0.29167  0.70287  1.0000
  H   H3489     1.0  0.83604  0.30352  0.85754  1.0000
  C   C4386     1.0  0.89915  0.30611  0.87036  1.0000
  C   C4387     1.0  0.91360  0.31081  0.68235  1.0000
  H   H3490     1.0  0.94601  0.31970  0.93309  1.0000
  H   H3491     1.0  0.85220  0.34329  0.69149  1.0000
  H   H3492     1.0  0.77945  0.20862  0.67779  1.0000
  H   H3493     1.0  0.80802  0.26197  0.73674  1.0000
  C   C4388     1.0  0.59448  0.20846  0.73007  1.0000
  C   C4389     1.0  0.73026  0.19722  0.76811  1.0000
  H   H3494     1.0  0.77380  0.27357  0.86191  1.0000
  H   H3495     1.0  0.66838  0.25269  0.67540  1.0000
  H   H3496     1.0  0.87014  0.27896  0.74944  1.0000
  H   H3497     1.0  0.77531  0.26882  0.69474  1.0000
  H   H3498     1.0  0.83437  0.23493  0.94159  1.0000
  H   H3499     1.0  0.90772  0.34508  0.65768  1.0000
  C   C4390     1.0  0.90177  0.31638  0.95090  1.0000
  H   H3500     1.0  0.81523  0.30002  0.76742  1.0000
  C   C4391     1.0  0.79582  0.28279  0.81280  1.0000
  H   H3501     1.0  0.78425  0.30062  0.78945  1.0000
  H   H3502     1.0  0.81090  0.26449  0.83339  1.0000
  C   C4392     1.0  0.85316  0.28894  0.67774  1.0000
  C   C4393     1.0  0.49370  0.25616  0.58831  1.0000
  H   H3503     1.0  0.83076  0.36044  0.80436  1.0000
  H   H3504     1.0  0.57992  0.27070  0.51857  1.0000
  H   H3505     1.0  0.59516  0.26563  0.59345  1.0000
  S   S590      1.0  0.93974  0.28946  0.82747  1.0000
  C   C4394     1.0  0.78704  0.28887  0.87338  1.0000
  C   C4395     1.0  0.79694  0.29278  0.79423  1.0000
  H   H3506     1.0  0.66907  0.27631  0.55195  1.0000
  C   C4396     1.0  0.67223  0.19422  0.63150  1.0000
  C   C4397     1.0  0.67324  0.25334  0.83015  1.0000
  H   H3507     1.0  0.65456  0.30344  0.63748  1.0000
  C   C4398     1.0  0.81208  0.27235  0.81899  1.0000
  C   C4399     1.0  0.83579  0.22711  0.82441  1.0000
  H   H3508     1.0  0.61597  0.36493  0.56038  1.0000
  H   H3509     1.0  0.90915  0.24559  0.75154  1.0000
  C   C4400     1.0  0.97249  0.24028  0.79073  1.0000
  C   C4401     1.0  0.88488  0.23684  0.77074  1.0000
  C   C4402     1.0  0.89824  0.24803  0.76379  1.0000
  H   H3510     1.0  0.86038  0.23132  0.79116  1.0000
  Fe  Fe297     1.0  0.85678  0.32545  0.90069  1.0000
  C   C4403     1.0  0.87063  0.24007  0.78637  1.0000
  P   P145      1.0  0.54120  0.27730  0.51226  1.0000
  C   C4404     1.0  0.89077  0.32015  0.80606  1.0000
  C   C4405     1.0  0.66791  0.28382  0.56273  1.0000
  H   H3511     1.0  0.68744  0.30088  0.54558  1.0000
  H   H3512     1.0  0.95039  0.32301  0.69094  1.0000
  C   C4406     1.0  0.91972  0.32317  0.83635  1.0000
  H   H3513     1.0  0.68488  0.30094  0.71418  1.0000
  C   C4407     1.0  0.88564  0.33654  0.79285  1.0000
  C   C4408     1.0  0.88267  0.26626  0.78769  1.0000
  C   C4409     1.0  0.68788  0.24493  0.65081  1.0000
  C   C4410     1.0  0.76772  0.22520  0.69905  1.0000
  H   H3514     1.0  0.79023  0.27753  0.76321  1.0000
  C   C4411     1.0  0.92350  0.29503  0.67479  1.0000
  H   H3515     1.0  0.54049  0.23724  0.51839  1.0000
  H   H3516     1.0  0.88120  0.28402  0.71529  1.0000
  C   C4412     1.0  0.60673  0.34417  0.51094  1.0000
  H   H3517     1.0  0.60353  0.23349  0.64784  1.0000
  H   H3518     1.0  0.96770  0.29554  0.67692  1.0000
  C   C4413     1.0  0.67806  0.29783  0.55909  1.0000
  H   H3519     1.0  0.65011  0.26723  0.58313  1.0000
  H   H3520     1.0  0.58784  0.24040  0.62097  1.0000
  C   C4414     1.0  0.94294  0.31557  0.68587  1.0000
  P   P146      1.0  0.80683  0.23262  0.97758  1.0000
  S   S591      1.0  0.97569  0.36756  0.77979  1.0000
  H   H3521     1.0  0.66237  0.22416  0.62827  1.0000
  C   C4415     1.0  0.69114  0.24659  0.63141  1.0000
  H   H3522     1.0  0.92762  0.32983  0.82326  1.0000
  H   H3523     1.0  0.50765  0.27030  0.54044  1.0000
  C   C4416     1.0  0.77880  0.22151  0.68185  1.0000
  C   C4417     1.0  0.65671  0.27900  0.58042  1.0000
  C   C4418     1.0  0.59836  0.24795  0.62041  1.0000
  C   C4419     1.0  0.60722  0.24407  0.63548  1.0000
  C   C4420     1.0  0.95270  0.30006  0.67802  1.0000
  C   C4421     1.0  0.87253  0.29269  0.74163  1.0000
  H   H3524     1.0  0.69215  0.26455  0.83890  1.0000
  H   H3525     1.0  0.86539  0.30485  0.76606  1.0000
  C   C4422     1.0  0.52812  0.21615  0.49344  1.0000
  H   H3526     1.0  0.71424  0.30217  0.68992  1.0000
  C   C4423     1.0  0.69773  0.27741  0.73313  1.0000
  C   C4424     1.0  0.91286  0.29512  0.85887  1.0000
  H   H3527     1.0  0.89251  0.32841  0.94440  1.0000
  C   C4425     1.0  0.57537  0.35984  0.52363  1.0000
  H   H3528     1.0  0.49913  0.28620  0.62034  1.0000
  H   H3529     1.0  0.75915  0.22636  0.76365  1.0000
  C   C4426     1.0  0.83574  0.20432  0.85376  1.0000
  C   C4427     1.0  0.86951  0.25464  0.79522  1.0000
  C   C4428     1.0  0.89715  0.26273  0.77227  1.0000
  S   S592      1.0  0.85740  0.31903  0.93118  1.0000
  C   C4429     1.0  0.60251  0.26219  0.60484  1.0000
  C   C4430     1.0  0.62062  0.25409  0.63473  1.0000
  C   C4431     1.0  0.84164  0.22746  0.95283  1.0000
  H   H3530     1.0  0.65822  0.21064  0.87771  1.0000
  C   C4432     1.0  0.89332  0.35185  0.66234  1.0000
  H   H3531     1.0  0.64638  0.35069  0.56897  1.0000
  C   C4433     1.0  0.98075  0.28776  0.94048  1.0000
  H   H3532     1.0  0.58875  0.18864  0.66420  1.0000
  H   H3533     1.0  0.74730  0.18681  0.69139  1.0000
  H   H3534     1.0  0.58421  0.36021  0.56040  1.0000
  C   C4434     1.0  0.95618  0.36964  0.92107  1.0000
  H   H3535     1.0  0.72312  0.18982  0.59627  1.0000
  C   C4435     1.0  0.86181  0.37359  0.78131  1.0000
  C   C4436     1.0  0.88029  0.38014  0.93196  1.0000
  C   C4437     1.0  0.59408  0.28843  0.49531  1.0000
  P   P147      1.0  0.50510  0.37220  0.56842  1.0000
  H   H3536     1.0  0.80583  0.35291  0.83173  1.0000
  C   C4438     1.0  0.56271  0.21398  0.72580  1.0000
  C   C4439     1.0  0.56814  0.38313  0.57329  1.0000
  C   C4440     1.0  0.51102  0.37726  0.58798  1.0000
  H   H3537     1.0  0.93247  0.37242  0.79719  1.0000
  S   S593      1.0  0.75983  0.18434  0.61459  1.0000
  H   H3538     1.0  0.94220  0.20098  0.75111  1.0000
  C   C4441     1.0  0.62656  0.36627  0.53043  1.0000
  C   C4442     1.0  0.96735  0.20073  0.72947  1.0000
  Fe  Fe298     1.0  0.67006  0.31900  0.48490  1.0000
  H   H3539     1.0  0.89680  0.37830  0.64361  1.0000
  C   C4443     1.0  0.64283  0.36257  0.51666  1.0000
  C   C4444     1.0  0.54928  0.26262  0.48033  1.0000
  H   H3540     1.0  0.56583  0.37108  0.52980  1.0000
  C   C4445     1.0  0.95037  0.19547  0.73889  1.0000
  C   C4446     1.0  0.51932  0.37872  0.52976  1.0000
  C   C4447     1.0  0.65608  0.19650  0.88028  1.0000
  C   C4448     1.0  0.97764  0.19405  0.71338  1.0000
  H   H3541     1.0  0.70903  0.19464  0.83072  1.0000
  H   H3542     1.0  0.53056  0.38335  0.49991  1.0000
  C   C4449     1.0  0.64987  0.18750  0.89882  1.0000
  C   C4450     1.0  0.65922  0.18735  0.86542  1.0000
  C   C4451     1.0  0.48900  0.31663  0.53894  1.0000
  C   C4452     1.0  0.87171  0.38378  0.96421  1.0000
  C   C4453     1.0  0.98874  0.24224  0.85746  1.0000
  C   C4454     1.0  0.71532  0.21926  0.48017  1.0000
  H   H3543     1.0  0.80406  0.18484  0.49884  1.0000
  S   S594      1.0  0.64782  0.30708  0.48037  1.0000
  Fe  Fe299     1.0  0.83230  0.42757  0.99366  1.0000
  S   S595      1.0  0.86310  0.42283  0.99246  1.0000
  C   C4455     1.0  0.64931  0.57218  0.37557  1.0000
  Fe  Fe300     1.0  0.82151  0.44017  0.03127  1.0000
  S   S596      1.0  0.85136  0.43598  0.03290  1.0000
  S   S597      1.0  0.79792  0.44997  0.05476  1.0000
  Fe  Fe301     1.0  0.85652  0.44968  0.00252  1.0000
  C   C4456     1.0  0.48990  0.49967  0.36025  1.0000
  Fe  Fe302     1.0  0.85563  0.40954  0.02286  1.0000
  C   C4457     1.0  0.88608  0.42764  0.18513  1.0000
  S   S598      1.0  0.82606  0.45602  0.00113  1.0000
  S   S599      1.0  0.82525  0.41221  0.02369  1.0000
  Fe  Fe303     1.0  0.92618  0.51406  0.03871  1.0000
  S   S600      1.0  0.93516  0.52416  0.05964  1.0000
  S   S601      1.0  0.90674  0.49384  0.04941  1.0000
  H   H3544     1.0  0.91271  0.56825  0.25049  1.0000
  Fe  Fe304     1.0  0.93226  0.55209  0.03956  1.0000
  C   C4458     1.0  0.72833  0.42459  0.25806  1.0000
  C   C4459     1.0  0.73341  0.48392  0.20418  1.0000
  Fe  Fe305     1.0  0.78054  0.52328  0.31979  1.0000
  S   S602      1.0  0.77663  0.51900  0.29293  1.0000
  S   S603      1.0  0.76034  0.51390  0.34652  1.0000
  Fe  Fe306     1.0  0.81310  0.54282  0.30031  1.0000
  H   H3545     1.0  0.52941  0.51560  0.33788  1.0000
  H   H3546     1.0  0.69741  0.40083  0.22537  1.0000
  Fe  Fe307     1.0  0.78076  0.54843  0.28124  1.0000
  H   H3547     1.0  0.51338  0.44468  0.38343  1.0000
  Fe  Fe308     1.0  0.80788  0.51087  0.28593  1.0000
  S   S604      1.0  0.82272  0.48521  0.27420  1.0000
  S   S605      1.0  0.78210  0.55367  0.30864  1.0000
  S   S606      1.0  0.81176  0.51273  0.31383  1.0000
  Fe  Fe309     1.0  0.79685  0.53714  0.15117  1.0000
  S   S607      1.0  0.81559  0.50891  0.15069  1.0000
  H   H3548     1.0  0.59476  0.40914  0.45945  1.0000
  Fe  Fe310     1.0  0.76148  0.52194  0.16259  1.0000
  S   S608      1.0  0.77718  0.49203  0.16284  1.0000
  C   C4460     1.0  0.49079  0.54544  0.32455  1.0000
  Fe  Fe311     1.0  0.79595  0.49912  0.17727  1.0000
  S   S609      1.0  0.80688  0.47582  0.19962  1.0000
  Fe  Fe312     1.0  0.79577  0.50372  0.13603  1.0000
  S   S610      1.0  0.81345  0.48935  0.11234  1.0000
  S   S611      1.0  0.77892  0.52789  0.17930  1.0000
  S   S612      1.0  0.77834  0.53313  0.13446  1.0000
  C   C4461     1.0  0.84714  0.45253  0.14370  1.0000
  Fe  Fe313     1.0  0.56963  0.55255  0.34913  1.0000
  C   C4462     1.0  0.57621  0.50272  0.32114  1.0000
  S   S613      1.0  0.59412  0.53089  0.33881  1.0000
  H   H3549     1.0  0.56692  0.41837  0.38356  1.0000
  H   H3550     1.0  0.95340  0.47690  0.06716  1.0000
  H   H3551     1.0  0.55828  0.52839  0.32802  1.0000
  H   H3552     1.0  0.58872  0.50849  0.31647  1.0000
  S   S614      1.0  0.54175  0.54646  0.36554  1.0000
  C   C4463     1.0  0.92645  0.54002  0.22716  1.0000
  S   S615      1.0  0.95503  0.50609  0.02206  1.0000
  H   H3553     1.0  0.89779  0.45235  0.17152  1.0000
  P   P148      1.0  0.88839  0.54759  0.24360  1.0000
  H   H3554     1.0  0.96446  0.42943  0.12118  1.0000
  Fe  Fe314     1.0  0.95051  0.53538  0.00499  1.0000
  C   C4464     1.0  0.76877  0.39752  0.36289  1.0000
  S   S616      1.0  0.58049  0.40275  0.25863  1.0000
  Fe  Fe315     1.0  0.66589  0.44185  0.34200  1.0000
  S   S617      1.0  0.65234  0.43350  0.37227  1.0000
  S   S618      1.0  0.64912  0.44742  0.31978  1.0000
  Fe  Fe316     1.0  0.70231  0.44336  0.35113  1.0000
  S   S619      1.0  0.69189  0.43530  0.38233  1.0000
  S   S620      1.0  0.73118  0.44724  0.33549  1.0000
  Fe  Fe317     1.0  0.67998  0.41419  0.37543  1.0000
  Fe  Fe318     1.0  0.66516  0.45539  0.37628  1.0000
  S   S621      1.0  0.64743  0.47788  0.39169  1.0000
  S   S622      1.0  0.69251  0.42079  0.34467  1.0000
  S   S623      1.0  0.67685  0.46511  0.34565  1.0000
  H   H3555     1.0  0.63550  0.38562  0.44765  1.0000
  C   C4465     1.0  0.86954  0.56765  0.24018  1.0000
  H   H3556     1.0  0.59201  0.43967  0.26212  1.0000
  C   C4466     1.0  0.81125  0.39952  0.22910  1.0000
  H   H3557     1.0  0.68028  0.41616  0.31563  1.0000
  C   C4467     1.0  0.84471  0.55499  0.17358  1.0000
  C   C4468     1.0  0.52080  0.42055  0.29127  1.0000
  C   C4469     1.0  0.53348  0.40571  0.29980  1.0000
  C   C4470     1.0  0.55197  0.40044  0.29007  1.0000
  C   C4471     1.0  0.55773  0.40974  0.27156  1.0000
  C   C4472     1.0  0.54510  0.42465  0.26307  1.0000
  C   C4473     1.0  0.52675  0.43024  0.27300  1.0000
  C   C4474     1.0  0.95343  0.48760  0.98751  1.0000
  C   C4475     1.0  0.93509  0.43828  0.05646  1.0000
  H   H3558     1.0  0.54947  0.43182  0.24873  1.0000
  H   H3559     1.0  0.51700  0.44158  0.26627  1.0000
  C   C4476     1.0  0.60690  0.51568  0.35513  1.0000
  C   C4477     1.0  0.61732  0.49847  0.35105  1.0000
  C   C4478     1.0  0.62925  0.48668  0.36263  1.0000
  C   C4479     1.0  0.63105  0.49209  0.37829  1.0000
  C   C4480     1.0  0.62019  0.50911  0.38276  1.0000
  C   C4481     1.0  0.60798  0.52087  0.37123  1.0000
  H   H3560     1.0  0.61626  0.49424  0.33881  1.0000
  H   H3561     1.0  0.63710  0.47341  0.35932  1.0000
  H   H3562     1.0  0.62140  0.51330  0.39494  1.0000
  H   H3563     1.0  0.59984  0.53412  0.37452  1.0000
  C   C4482     1.0  0.49515  0.50957  0.38606  1.0000
  H   H3564     1.0  0.89289  0.52369  0.06901  1.0000
  C   C4483     1.0  0.82176  0.38424  0.35170  1.0000
  H   H3565     1.0  0.85929  0.42156  0.11491  1.0000
  H   H3566     1.0  0.69033  0.56605  0.22220  1.0000
  C   C4484     1.0  0.54936  0.46766  0.27394  1.0000
  H   H3567     1.0  0.79970  0.46492  0.37022  1.0000
  C   C4485     1.0  0.69915  0.44508  0.22660  1.0000
  H   H3568     1.0  0.94158  0.52083  0.14043  1.0000
  H   H3569     1.0  0.60808  0.38765  0.22638  1.0000
  C   C4486     1.0  0.78446  0.56257  0.08982  1.0000
  H   H3570     1.0  0.76541  0.50686  0.06754  1.0000
  C   C4487     1.0  0.84424  0.38786  0.11327  1.0000
  H   H3571     1.0  0.51084  0.39057  0.25527  1.0000
  H   H3572     1.0  0.53636  0.47302  0.30141  1.0000
  S   S624      1.0  0.95451  0.38770  0.07859  1.0000
  C   C4488     1.0  0.87379  0.44409  0.21676  1.0000
  C   C4489     1.0  0.75216  0.49511  0.34408  1.0000
  C   C4490     1.0  0.73456  0.49162  0.35428  1.0000
  C   C4491     1.0  0.72773  0.47716  0.35154  1.0000
  C   C4492     1.0  0.73881  0.46576  0.33911  1.0000
  C   C4493     1.0  0.75660  0.46884  0.32950  1.0000
  C   C4494     1.0  0.76320  0.48358  0.33179  1.0000
  H   H3573     1.0  0.72618  0.50010  0.36425  1.0000
  H   H3574     1.0  0.71407  0.47462  0.35925  1.0000
  H   H3575     1.0  0.76539  0.45966  0.32042  1.0000
  H   H3576     1.0  0.77704  0.48573  0.32436  1.0000
  C   C4495     1.0  0.62667  0.55063  0.25943  1.0000
  C   C4496     1.0  0.78354  0.56367  0.19741  1.0000
  C   C4497     1.0  0.87087  0.56955  0.06409  1.0000
  P   P149      1.0  0.98409  0.57068  0.14542  1.0000
  H   H3577     1.0  0.83033  0.52462  0.08987  1.0000
  H   H3578     1.0  0.88796  0.46603  0.19972  1.0000
  C   C4498     1.0  0.94944  0.53018  0.14204  1.0000
  H   H3579     1.0  0.92819  0.44834  0.00629  1.0000
  C   C4499     1.0  0.63270  0.39122  0.41890  1.0000
  H   H3580     1.0  0.96869  0.46451  0.03862  1.0000
  C   C4500     1.0  0.81901  0.48401  0.25260  1.0000
  C   C4501     1.0  0.81044  0.49969  0.24069  1.0000
  C   C4502     1.0  0.80708  0.49768  0.22388  1.0000
  C   C4503     1.0  0.81217  0.47995  0.21924  1.0000
  C   C4504     1.0  0.82107  0.46453  0.23098  1.0000
  C   C4505     1.0  0.82461  0.46658  0.24749  1.0000
  H   H3581     1.0  0.80624  0.51324  0.24456  1.0000
  H   H3582     1.0  0.80024  0.50965  0.21478  1.0000
  H   H3583     1.0  0.82500  0.45085  0.22743  1.0000
  H   H3584     1.0  0.83130  0.45449  0.25659  1.0000
  H   H3585     1.0  0.77535  0.46901  0.23131  1.0000
  C   C4506     1.0  0.62220  0.57437  0.36317  1.0000
  C   C4507     1.0  0.58009  0.44724  0.27070  1.0000
  C   C4508     1.0  0.74506  0.41964  0.24529  1.0000
  H   H3586     1.0  0.84027  0.52562  0.05305  1.0000
  H   H3587     1.0  0.92976  0.42746  0.05384  1.0000
  H   H3588     1.0  0.68273  0.47677  0.20543  1.0000
  H   H3589     1.0  0.72986  0.53888  0.13383  1.0000
  C   C4509     1.0  0.80246  0.46001  0.07139  1.0000
  C   C4510     1.0  0.82036  0.46249  0.07040  1.0000
  C   C4511     1.0  0.82344  0.47102  0.08343  1.0000
  C   C4512     1.0  0.80867  0.47738  0.09747  1.0000
  C   C4513     1.0  0.79088  0.47428  0.09897  1.0000
  C   C4514     1.0  0.78775  0.46575  0.08589  1.0000
  H   H3590     1.0  0.83184  0.45810  0.05944  1.0000
  H   H3591     1.0  0.83735  0.47297  0.08238  1.0000
  H   H3592     1.0  0.77960  0.47828  0.11022  1.0000
  H   H3593     1.0  0.77390  0.46363  0.08696  1.0000
  C   C4515     1.0  0.88608  0.47578  0.00660  1.0000
  C   C4516     1.0  0.88493  0.46547  0.02507  1.0000
  C   C4517     1.0  0.89151  0.47100  0.03801  1.0000
  C   C4518     1.0  0.89974  0.48667  0.03249  1.0000
  C   C4519     1.0  0.90187  0.49650  0.01379  1.0000
  C   C4520     1.0  0.89498  0.49110  0.00088  1.0000
  H   H3594     1.0  0.87909  0.45314  0.02947  1.0000
  H   H3595     1.0  0.89032  0.46301  0.05232  1.0000
  H   H3596     1.0  0.90866  0.50832  0.00936  1.0000
  H   H3597     1.0  0.77163  0.57305  0.09062  1.0000
  C   C4521     1.0  0.88365  0.53669  0.06413  1.0000
  H   H3598     1.0  0.71082  0.38529  0.26685  1.0000
  C   C4522     1.0  0.60184  0.40814  0.47052  1.0000
  C   C4523     1.0  0.81269  0.42497  0.20177  1.0000
  H   H3599     1.0  0.72473  0.43807  0.26191  1.0000
  C   C4524     1.0  0.90622  0.56067  0.26388  1.0000
  S   S625      1.0  0.96193  0.54723  0.02296  1.0000
  C   C4525     1.0  0.87631  0.40622  0.07633  1.0000
  C   C4526     1.0  0.87022  0.40090  0.06294  1.0000
  C   C4527     1.0  0.56165  0.39660  0.37338  1.0000
  H   H3600     1.0  0.86671  0.41559  0.08482  1.0000
  H   H3601     1.0  0.85582  0.40568  0.06163  1.0000
  C   C4528     1.0  0.71675  0.47620  0.27111  1.0000
  H   H3602     1.0  0.92626  0.46483  0.08906  1.0000
  H   H3603     1.0  0.50891  0.55030  0.44938  1.0000
  C   C4529     1.0  0.62370  0.53604  0.29245  1.0000
  C   C4530     1.0  0.62657  0.53455  0.27380  1.0000
  C   C4531     1.0  0.62390  0.56832  0.26365  1.0000
  S   S626      1.0  0.81174  0.53992  0.27176  1.0000
  C   C4532     1.0  0.94679  0.42351  0.01849  1.0000
  H   H3604     1.0  0.97859  0.53057  0.07157  1.0000
  C   C4533     1.0  0.96271  0.58072  0.19851  1.0000
  C   C4534     1.0  0.86091  0.44461  0.15442  1.0000
  H   H3605     1.0  0.62286  0.52373  0.30372  1.0000
  H   H3606     1.0  0.62817  0.52102  0.27056  1.0000
  H   H3607     1.0  0.62839  0.54936  0.24507  1.0000
  C   C4535     1.0  0.94170  0.53944  0.21191  1.0000
  C   C4536     1.0  0.73411  0.47832  0.18777  1.0000
  C   C4537     1.0  0.54867  0.46569  0.29302  1.0000
  C   C4538     1.0  0.95687  0.45909  0.04800  1.0000
  C   C4539     1.0  0.93797  0.57860  0.07082  1.0000
  H   H3608     1.0  0.68796  0.50413  0.17984  1.0000
  C   C4540     1.0  0.76321  0.44730  0.25228  1.0000
  C   C4541     1.0  0.91495  0.42272  0.15035  1.0000
  C   C4542     1.0  0.62172  0.56960  0.28237  1.0000
  C   C4543     1.0  0.74903  0.40238  0.23983  1.0000
  C   C4544     1.0  0.67265  0.39916  0.30144  1.0000
  C   C4545     1.0  0.54280  0.50668  0.33336  1.0000
  C   C4546     1.0  0.63922  0.42600  0.30133  1.0000
  P   P150      1.0  0.76798  0.54330  0.07359  1.0000
  S   S627      1.0  0.73033  0.53140  0.17324  1.0000
  H   H3609     1.0  0.67894  0.39992  0.41834  1.0000
  H   H3610     1.0  0.78529  0.40135  0.24948  1.0000
  C   C4547     1.0  0.90821  0.54780  0.22413  1.0000
  C   C4548     1.0  0.88522  0.55251  0.99655  1.0000
  S   S628      1.0  0.98739  0.49846  0.05382  1.0000
  H   H3611     1.0  0.72787  0.48392  0.26755  1.0000
  H   H3612     1.0  0.91285  0.39637  0.01143  1.0000
  C   C4549     1.0  0.97742  0.53500  0.14837  1.0000
  C   C4550     1.0  0.75347  0.52932  0.09188  1.0000
  C   C4551     1.0  0.73471  0.53097  0.09122  1.0000
  C   C4552     1.0  0.72342  0.52015  0.10532  1.0000
  C   C4553     1.0  0.73081  0.50750  0.12008  1.0000
  C   C4554     1.0  0.74951  0.50562  0.12069  1.0000
  C   C4555     1.0  0.76087  0.51632  0.10652  1.0000
  C   C4556     1.0  0.75289  0.56558  0.06609  1.0000
  H   H3613     1.0  0.82128  0.38673  0.07356  1.0000
  H   H3614     1.0  0.72876  0.54056  0.07981  1.0000
  H   H3615     1.0  0.70892  0.52165  0.10482  1.0000
  H   H3616     1.0  0.72205  0.49921  0.13105  1.0000
  H   H3617     1.0  0.75528  0.49578  0.13208  1.0000
  H   H3618     1.0  0.77547  0.51422  0.10689  1.0000
  H   H3619     1.0  0.76147  0.39850  0.22945  1.0000
  C   C4557     1.0  0.65277  0.42789  0.30984  1.0000
  S   S629      1.0  0.57070  0.57172  0.36667  1.0000
  C   C4558     1.0  0.70442  0.42773  0.22128  1.0000
  C   C4559     1.0  0.94218  0.54950  0.13925  1.0000
  C   C4560     1.0  0.85946  0.42785  0.12615  1.0000
  H   H3620     1.0  0.63859  0.40369  0.41473  1.0000
  C   C4561     1.0  0.71616  0.41216  0.26594  1.0000
  H   H3621     1.0  0.80901  0.43605  0.35759  1.0000
  C   C4562     1.0  0.95020  0.44530  0.04388  1.0000
  C   C4563     1.0  0.74127  0.47119  0.21864  1.0000
  C   C4564     1.0  0.77095  0.46338  0.24617  1.0000
  H   H3622     1.0  0.74322  0.45561  0.17303  1.0000
  H   H3623     1.0  0.86094  0.50256  0.08264  1.0000
  C   C4565     1.0  0.70526  0.47874  0.25845  1.0000
  C   C4566     1.0  0.87308  0.41979  0.13696  1.0000
  H   H3624     1.0  0.95907  0.48264  0.09607  1.0000
  C   C4567     1.0  0.98245  0.45591  0.99069  1.0000
  C   C4568     1.0  0.98378  0.42033  0.02667  1.0000
  H   H3625     1.0  0.84856  0.55351  0.25977  1.0000
  H   H3626     1.0  0.63426  0.42659  0.47931  1.0000
  C   C4569     1.0  0.75036  0.44711  0.20032  1.0000
  C   C4570     1.0  0.84326  0.49935  0.02182  1.0000
  Fe  Fe319     1.0  0.54134  0.56800  0.38132  1.0000
  S   S630      1.0  0.76243  0.56714  0.26174  1.0000
  P   P151      1.0  0.96182  0.43611  0.02307  1.0000
  H   H3627     1.0  0.81481  0.41559  0.08505  1.0000
  C   C4571     1.0  0.78928  0.45707  0.37115  1.0000
  C   C4572     1.0  0.64216  0.41033  0.29341  1.0000
  Fe  Fe320     1.0  0.96381  0.51825  0.04156  1.0000
  C   C4573     1.0  0.85137  0.52930  0.00558  1.0000
  H   H3628     1.0  0.94686  0.57645  0.13860  1.0000
  C   C4574     1.0  0.88198  0.49309  0.25866  1.0000
  C   C4575     1.0  0.86766  0.49365  0.24992  1.0000
  C   C4576     1.0  0.86006  0.51042  0.23876  1.0000
  C   C4577     1.0  0.86661  0.52669  0.23651  1.0000
  C   C4578     1.0  0.88034  0.52645  0.24603  1.0000
  C   C4579     1.0  0.88844  0.50940  0.25660  1.0000
  C   C4580     1.0  0.79738  0.40839  0.29882  1.0000
  S   S631      1.0  0.50873  0.51253  0.28603  1.0000
  C   C4581     1.0  0.89422  0.54896  0.26481  1.0000
  C   C4582     1.0  0.88515  0.54023  0.28246  1.0000
  C   C4583     1.0  0.50144  0.49878  0.37229  1.0000
  C   C4584     1.0  0.97059  0.55448  0.14472  1.0000
  C   C4585     1.0  0.69914  0.55994  0.39624  1.0000
  C   C4586     1.0  0.87540  0.41887  0.20177  1.0000
  C   C4587     1.0  0.93136  0.43321  0.01025  1.0000
  C   C4588     1.0  0.95267  0.56155  0.14071  1.0000
  H   H3629     1.0  0.66046  0.56778  0.28675  1.0000
  C   C4589     1.0  0.56503  0.45839  0.26279  1.0000
  C   C4590     1.0  0.77482  0.51334  0.05560  1.0000
  H   H3630     1.0  0.75698  0.43292  0.19857  1.0000
  C   C4591     1.0  0.74025  0.57486  0.07973  1.0000
  C   C4592     1.0  0.51544  0.43032  0.34375  1.0000
  H   H3631     1.0  0.82632  0.55265  0.10293  1.0000
  C   C4593     1.0  0.66952  0.41453  0.30971  1.0000
  C   C4594     1.0  0.80005  0.52864  0.02465  1.0000
  H   H3632     1.0  0.88786  0.48008  0.26730  1.0000
  H   H3633     1.0  0.86226  0.48116  0.25199  1.0000
  H   H3634     1.0  0.84881  0.51088  0.23218  1.0000
  H   H3635     1.0  0.86069  0.53953  0.22764  1.0000
  H   H3636     1.0  0.89951  0.50878  0.26349  1.0000
  H   H3637     1.0  0.87482  0.53220  0.28363  1.0000
  H   H3638     1.0  0.85574  0.53865  0.99245  1.0000
  H   H3639     1.0  0.92888  0.53424  0.24127  1.0000
  H   H3640     1.0  0.94232  0.50005  0.98649  1.0000
  C   C4595     1.0  0.58743  0.39267  0.38844  1.0000
  S   S632      1.0  0.90173  0.40420  0.09696  1.0000
  C   C4596     1.0  0.86894  0.56504  0.00308  1.0000
  H   H3641     1.0  0.86106  0.45126  0.16537  1.0000
  H   H3642     1.0  0.51530  0.48988  0.37085  1.0000
  C   C4597     1.0  0.86277  0.55478  0.04323  1.0000
  C   C4598     1.0  0.86925  0.42711  0.21749  1.0000
  H   H3643     1.0  0.72706  0.49830  0.20545  1.0000
  H   H3644     1.0  0.91470  0.44001  0.08210  1.0000
  H   H3645     1.0  0.77265  0.57457  0.37302  1.0000
  H   H3646     1.0  0.74060  0.47592  0.23114  1.0000
  C   C4599     1.0  0.84877  0.53431  0.02288  1.0000
  C   C4600     1.0  0.55904  0.51396  0.32763  1.0000
  H   H3647     1.0  0.59491  0.39878  0.39480  1.0000
  C   C4601     1.0  0.68237  0.44941  0.23958  1.0000
  S   S633      1.0  0.86617  0.57589  0.17989  1.0000
  C   C4602     1.0  0.50775  0.52795  0.30032  1.0000
  H   H3648     1.0  0.83613  0.45061  0.12087  1.0000
  C   C4603     1.0  0.63092  0.58103  0.37359  1.0000
  H   H3649     1.0  0.96068  0.39603  0.03176  1.0000
  C   C4604     1.0  0.78385  0.42458  0.22552  1.0000
  H   H3650     1.0  0.78091  0.48996  0.04207  1.0000
  H   H3651     1.0  0.56532  0.45953  0.24811  1.0000
  C   C4605     1.0  0.81882  0.57568  0.04283  1.0000
  C   C4606     1.0  0.88258  0.38908  0.05159  1.0000
  P   P152      1.0  0.67596  0.47152  0.24697  1.0000
  C   C4607     1.0  0.65123  0.47572  0.25755  1.0000
  C   C4608     1.0  0.69069  0.46892  0.26319  1.0000
  C   C4609     1.0  0.68843  0.45594  0.28032  1.0000
  C   C4610     1.0  0.69968  0.45369  0.29308  1.0000
  C   C4611     1.0  0.71367  0.46399  0.28859  1.0000
  C   C4612     1.0  0.63826  0.47610  0.24708  1.0000
  C   C4613     1.0  0.61909  0.47882  0.25511  1.0000
  C   C4614     1.0  0.61270  0.48129  0.27361  1.0000
  C   C4615     1.0  0.62550  0.48115  0.28404  1.0000
  C   C4616     1.0  0.64465  0.47851  0.27603  1.0000
  C   C4617     1.0  0.67889  0.49145  0.22775  1.0000
  C   C4618     1.0  0.68229  0.48986  0.20896  1.0000
  C   C4619     1.0  0.68502  0.50541  0.19436  1.0000
  C   C4620     1.0  0.68394  0.52271  0.19840  1.0000
  C   C4621     1.0  0.67980  0.52459  0.21706  1.0000
  C   C4622     1.0  0.67714  0.50907  0.23170  1.0000
  H   H3652     1.0  0.67775  0.44775  0.28391  1.0000
  H   H3653     1.0  0.69739  0.44411  0.30657  1.0000
  H   H3654     1.0  0.72212  0.46247  0.29868  1.0000
  H   H3655     1.0  0.64301  0.47403  0.23277  1.0000
  H   H3656     1.0  0.60915  0.47884  0.24707  1.0000
  H   H3657     1.0  0.59785  0.48321  0.27984  1.0000
  H   H3658     1.0  0.62071  0.48278  0.29850  1.0000
  H   H3659     1.0  0.65412  0.47833  0.28453  1.0000
  H   H3660     1.0  0.66862  0.40767  0.24956  1.0000
  H   H3661     1.0  0.87168  0.40576  0.20262  1.0000
  H   H3662     1.0  0.68621  0.53470  0.18702  1.0000
  H   H3663     1.0  0.67862  0.53811  0.22008  1.0000
  H   H3664     1.0  0.67384  0.51075  0.24611  1.0000
  C   C4623     1.0  0.49163  0.53257  0.31379  1.0000
  C   C4624     1.0  0.64910  0.54886  0.35901  1.0000
  H   H3665     1.0  0.50421  0.50915  0.39520  1.0000
  C   C4625     1.0  0.85137  0.56653  0.25048  1.0000
  H   H3666     1.0  0.65580  0.53592  0.35421  1.0000
  H   H3667     1.0  0.62411  0.55287  0.34850  1.0000
  H   H3668     1.0  0.94843  0.56866  0.06349  1.0000
  H   H3669     1.0  0.61901  0.55463  0.31122  1.0000
  H   H3670     1.0  0.92853  0.55525  0.13574  1.0000
  C   C4626     1.0  0.74250  0.45989  0.18587  1.0000
  S   S634      1.0  0.98706  0.40107  0.09723  1.0000
  H   H3671     1.0  0.80303  0.50359  0.01455  1.0000
  C   C4627     1.0  0.84203  0.56963  0.31172  1.0000
  Fe  Fe321     1.0  0.52992  0.57100  0.34479  1.0000
  C   C4628     1.0  0.82123  0.40805  0.21197  1.0000
  H   H3672     1.0  0.70816  0.45509  0.22064  1.0000
  H   H3673     1.0  0.85127  0.50771  0.99179  1.0000
  C   C4629     1.0  0.72052  0.55040  0.13961  1.0000
  C   C4630     1.0  0.50828  0.57095  0.42351  1.0000
  C   C4631     1.0  0.84652  0.44423  0.12946  1.0000
  H   H3674     1.0  0.62608  0.40131  0.34966  1.0000
  H   H3675     1.0  0.65921  0.43806  0.25902  1.0000
  H   H3676     1.0  0.53758  0.47627  0.26791  1.0000
  C   C4632     1.0  0.88854  0.54269  0.29890  1.0000
  C   C4633     1.0  0.65885  0.39682  0.29364  1.0000
  C   C4634     1.0  0.62780  0.38479  0.40549  1.0000
  C   C4635     1.0  0.67700  0.41823  0.24289  1.0000
  H   H3677     1.0  0.95059  0.54590  0.18182  1.0000
  H   H3678     1.0  0.70257  0.52495  0.32165  1.0000
  C   C4636     1.0  0.93772  0.39413  0.02143  1.0000
  C   C4637     1.0  0.71878  0.55068  0.15842  1.0000
  H   H3679     1.0  0.82849  0.53848  0.16757  1.0000
  C   C4638     1.0  0.81035  0.39527  0.38087  1.0000
  C   C4639     1.0  0.67163  0.43561  0.24813  1.0000
  C   C4640     1.0  0.62150  0.55351  0.29670  1.0000
  H   H3680     1.0  0.87072  0.46831  0.08481  1.0000
  C   C4641     1.0  0.60252  0.40524  0.33703  1.0000
  C   C4642     1.0  0.61362  0.41089  0.34573  1.0000
  C   C4643     1.0  0.60870  0.42897  0.34928  1.0000
  C   C4644     1.0  0.59295  0.44156  0.34374  1.0000
  C   C4645     1.0  0.58236  0.43635  0.33395  1.0000
  C   C4646     1.0  0.58690  0.41787  0.33123  1.0000
  P   P153      1.0  0.56249  0.45265  0.32571  1.0000
  C   C4647     1.0  0.54180  0.44458  0.34000  1.0000
  C   C4648     1.0  0.56110  0.47648  0.32708  1.0000
  C   C4649     1.0  0.54374  0.48813  0.33273  1.0000
  C   C4650     1.0  0.57723  0.48409  0.32079  1.0000
  C   C4651     1.0  0.53193  0.43575  0.33279  1.0000
  C   C4652     1.0  0.81776  0.53551  0.08935  1.0000
  C   C4653     1.0  0.73095  0.56417  0.30779  1.0000
  C   C4654     1.0  0.51871  0.44199  0.36938  1.0000
  C   C4655     1.0  0.53533  0.44726  0.35853  1.0000
  C   C4656     1.0  0.56368  0.45438  0.30113  1.0000
  C   C4657     1.0  0.57956  0.44541  0.28975  1.0000
  H   H3681     1.0  0.54948  0.40536  0.36817  1.0000
  H   H3682     1.0  0.73938  0.57471  0.30380  1.0000
  H   H3683     1.0  0.61735  0.43337  0.35598  1.0000
  H   H3684     1.0  0.58932  0.45532  0.34702  1.0000
  H   H3685     1.0  0.57854  0.41328  0.32434  1.0000
  H   H3686     1.0  0.53084  0.48314  0.33626  1.0000
  H   H3687     1.0  0.59060  0.47557  0.31566  1.0000
  H   H3688     1.0  0.53666  0.43337  0.31860  1.0000
  C   C4658     1.0  0.61475  0.41941  0.46756  1.0000
  C   C4659     1.0  0.80346  0.53328  0.08211  1.0000
  H   H3689     1.0  0.50754  0.42408  0.33788  1.0000
  H   H3690     1.0  0.54289  0.45387  0.36438  1.0000
  H   H3691     1.0  0.59155  0.43697  0.29539  1.0000
  C   C4660     1.0  0.87295  0.50584  0.18594  1.0000
  C   C4661     1.0  0.85779  0.49697  0.19078  1.0000
  C   C4662     1.0  0.85428  0.48896  0.17771  1.0000
  C   C4663     1.0  0.86576  0.48991  0.15976  1.0000
  C   C4664     1.0  0.88112  0.49862  0.15484  1.0000
  C   C4665     1.0  0.88449  0.50679  0.16799  1.0000
  P   P154      1.0  0.89465  0.50200  0.13107  1.0000
  C   C4666     1.0  0.89125  0.52716  0.12318  1.0000
  C   C4667     1.0  0.91923  0.49125  0.12942  1.0000
  C   C4668     1.0  0.92687  0.48320  0.14551  1.0000
  C   C4669     1.0  0.94602  0.47522  0.14371  1.0000
  C   C4670     1.0  0.95760  0.47506  0.12591  1.0000
  C   C4671     1.0  0.95005  0.48276  0.10987  1.0000
  C   C4672     1.0  0.93095  0.49074  0.11159  1.0000
  C   C4673     1.0  0.87311  0.53827  0.12664  1.0000
  C   C4674     1.0  0.87035  0.55782  0.12203  1.0000
  C   C4675     1.0  0.86155  0.57081  0.04995  1.0000
  C   C4676     1.0  0.90372  0.55551  0.11084  1.0000
  C   C4677     1.0  0.90656  0.53595  0.11523  1.0000
  C   C4678     1.0  0.88621  0.49154  0.11683  1.0000
  C   C4679     1.0  0.89144  0.47204  0.11814  1.0000
  C   C4680     1.0  0.88569  0.46373  0.10674  1.0000
  C   C4681     1.0  0.87473  0.47475  0.09397  1.0000
  C   C4682     1.0  0.86921  0.49410  0.09279  1.0000
  C   C4683     1.0  0.87482  0.50251  0.10425  1.0000
  H   H3692     1.0  0.87548  0.51243  0.19590  1.0000
  H   H3693     1.0  0.84862  0.49644  0.20456  1.0000
  H   H3694     1.0  0.84243  0.48229  0.18135  1.0000
  H   H3695     1.0  0.86222  0.48436  0.14964  1.0000
  H   H3696     1.0  0.89571  0.51440  0.16417  1.0000
  H   H3697     1.0  0.91819  0.48299  0.15942  1.0000
  H   H3698     1.0  0.95196  0.46912  0.15610  1.0000
  H   H3699     1.0  0.97246  0.46893  0.12448  1.0000
  H   H3700     1.0  0.92535  0.49669  0.09896  1.0000
  H   H3701     1.0  0.86109  0.53185  0.13317  1.0000
  C   C4684     1.0  0.82159  0.57899  0.00944  1.0000
  C   C4685     1.0  0.92068  0.55395  0.19047  1.0000
  H   H3702     1.0  0.70330  0.41604  0.27586  1.0000
  H   H3703     1.0  0.92075  0.52791  0.11256  1.0000
  H   H3704     1.0  0.90017  0.46329  0.12776  1.0000
  H   H3705     1.0  0.88989  0.44873  0.10756  1.0000
  S   S635      1.0  0.91492  0.57889  0.04793  1.0000
  H   H3706     1.0  0.87052  0.51752  0.10291  1.0000
  C   C4686     1.0  0.75880  0.43966  0.27164  1.0000
  C   C4687     1.0  0.76104  0.44868  0.28463  1.0000
  C   C4688     1.0  0.76800  0.46515  0.27839  1.0000
  C   C4689     1.0  0.77307  0.47236  0.25920  1.0000
  H   H3707     1.0  0.75375  0.42673  0.27683  1.0000
  H   H3708     1.0  0.75753  0.44282  0.29957  1.0000
  H   H3709     1.0  0.76987  0.47218  0.28834  1.0000
  H   H3710     1.0  0.77895  0.48478  0.25444  1.0000
  H   H3711     1.0  0.79744  0.55536  0.19353  1.0000
  H   H3712     1.0  0.89000  0.55179  0.08124  1.0000
  H   H3713     1.0  0.61765  0.42915  0.45423  1.0000
  H   H3714     1.0  0.82925  0.41672  0.11042  1.0000
  C   C4690     1.0  0.80819  0.39576  0.36280  1.0000
  P   P155      1.0  0.78760  0.41022  0.35454  1.0000
  C   C4691     1.0  0.78085  0.43110  0.36421  1.0000
  C   C4692     1.0  0.79323  0.41644  0.32906  1.0000
  C   C4693     1.0  0.79909  0.43329  0.31958  1.0000
  C   C4694     1.0  0.80404  0.43760  0.29996  1.0000
  C   C4695     1.0  0.80321  0.42517  0.28957  1.0000
  C   C4696     1.0  0.94626  0.42680  0.14866  1.0000
  C   C4697     1.0  0.88565  0.56645  0.11418  1.0000
  C   C4698     1.0  0.76210  0.43756  0.37254  1.0000
  C   C4699     1.0  0.75708  0.45353  0.38027  1.0000
  C   C4700     1.0  0.77060  0.46343  0.37935  1.0000
  H   H3715     1.0  0.90259  0.55683  0.31058  1.0000
  C   C4701     1.0  0.79445  0.44083  0.36384  1.0000
  H   H3716     1.0  0.98836  0.53387  0.09941  1.0000
  C   C4702     1.0  0.75461  0.40142  0.35275  1.0000
  H   H3717     1.0  0.82288  0.58124  0.25760  1.0000
  H   H3718     1.0  0.60613  0.39112  0.33460  1.0000
  H   H3719     1.0  0.62633  0.43645  0.30116  1.0000
  H   H3720     1.0  0.82721  0.38642  0.99411  1.0000
  C   C4703     1.0  0.66969  0.57573  0.27615  1.0000
  H   H3721     1.0  0.79973  0.44333  0.32712  1.0000
  H   H3722     1.0  0.80841  0.45072  0.29279  1.0000
  H   H3723     1.0  0.80687  0.42872  0.27435  1.0000
  C   C4704     1.0  0.94963  0.40388  0.02438  1.0000
  H   H3724     1.0  0.70787  0.48830  0.24505  1.0000
  H   H3725     1.0  0.75120  0.43060  0.37281  1.0000
  H   H3726     1.0  0.74254  0.45862  0.38637  1.0000
  H   H3727     1.0  0.76651  0.47629  0.38456  1.0000
  H   H3728     1.0  0.97278  0.50797  0.14876  1.0000
  C   C4705     1.0  0.79611  0.51131  0.02562  1.0000
  H   H3729     1.0  0.75514  0.41155  0.33956  1.0000
  H   H3730     1.0  0.79988  0.40371  0.38987  1.0000
  C   C4706     1.0  0.79164  0.53820  0.03928  1.0000
  C   C4707     1.0  0.57146  0.40389  0.38208  1.0000
  C   C4708     1.0  0.65630  0.52331  0.31984  1.0000
  C   C4709     1.0  0.65844  0.50629  0.31477  1.0000
  C   C4710     1.0  0.67257  0.50142  0.29975  1.0000
  C   C4711     1.0  0.68456  0.51355  0.28963  1.0000
  C   C4712     1.0  0.68273  0.53063  0.29465  1.0000
  C   C4713     1.0  0.66857  0.53535  0.31002  1.0000
  P   P156      1.0  0.69960  0.54534  0.28277  1.0000
  C   C4714     1.0  0.71097  0.54828  0.29979  1.0000
  C   C4715     1.0  0.71712  0.53493  0.26478  1.0000
  C   C4716     1.0  0.73594  0.52868  0.26635  1.0000
  C   C4717     1.0  0.74947  0.52177  0.25179  1.0000
  C   C4718     1.0  0.74435  0.52089  0.23561  1.0000
  C   C4719     1.0  0.72563  0.52696  0.23396  1.0000
  C   C4720     1.0  0.71205  0.53393  0.24851  1.0000
  C   C4721     1.0  0.73679  0.38997  0.24768  1.0000
  C   C4722     1.0  0.50617  0.55344  0.32230  1.0000
  C   C4723     1.0  0.72960  0.55248  0.32559  1.0000
  C   C4724     1.0  0.71893  0.53874  0.33058  1.0000
  C   C4725     1.0  0.70994  0.53636  0.31767  1.0000
  H   H3731     1.0  0.82052  0.43194  0.18874  1.0000
  H   H3732     1.0  0.91836  0.55934  0.17627  1.0000
  C   C4726     1.0  0.78360  0.50364  0.04113  1.0000
  P   P157      1.0  0.85239  0.55671  0.02370  1.0000
  C   C4727     1.0  0.77863  0.53084  0.05469  1.0000
  C   C4728     1.0  0.93881  0.54643  0.19359  1.0000
  H   H3733     1.0  0.64519  0.52693  0.33153  1.0000
  H   H3734     1.0  0.64933  0.49668  0.32265  1.0000
  H   H3735     1.0  0.67448  0.48795  0.29636  1.0000
  H   H3736     1.0  0.69556  0.50927  0.27830  1.0000
  H   H3737     1.0  0.66722  0.54813  0.31465  1.0000
  H   H3738     1.0  0.74037  0.52948  0.27857  1.0000
  H   H3739     1.0  0.76404  0.51759  0.25291  1.0000
  H   H3740     1.0  0.75495  0.51585  0.22419  1.0000
  H   H3741     1.0  0.72178  0.52666  0.22120  1.0000
  H   H3742     1.0  0.69762  0.53873  0.24705  1.0000
  H   H3743     1.0  0.53433  0.55485  0.30708  1.0000
  C   C4729     1.0  0.67816  0.38531  0.42362  1.0000
  H   H3744     1.0  0.52890  0.39822  0.31390  1.0000
  H   H3745     1.0  0.71818  0.52952  0.34428  1.0000
  C   C4730     1.0  0.88193  0.55251  0.07112  1.0000
  H   H3746     1.0  0.67830  0.56073  0.42191  1.0000
  C   C4731     1.0  0.83200  0.40373  0.10569  1.0000
  C   C4732     1.0  0.90543  0.55443  0.20569  1.0000
  P   P158      1.0  0.89245  0.41810  0.16419  1.0000
  C   C4733     1.0  0.89430  0.39294  0.17045  1.0000
  H   H3747     1.0  0.71038  0.56392  0.11417  1.0000
  H   H3748     1.0  0.53568  0.53246  0.28754  1.0000
  H   H3749     1.0  0.73719  0.55375  0.33537  1.0000
  H   H3750     1.0  0.77702  0.54540  0.22440  1.0000
  H   H3751     1.0  0.62780  0.56740  0.41302  1.0000
  H   H3752     1.0  0.90715  0.43106  0.00167  1.0000
  C   C4734     1.0  0.84271  0.52195  0.03958  1.0000
  P   P159      1.0  0.76045  0.43604  0.23515  1.0000
  H   H3753     1.0  0.67216  0.54874  0.37068  1.0000
  C   C4735     1.0  0.72164  0.56214  0.29498  1.0000
  C   C4736     1.0  0.52245  0.54861  0.30903  1.0000
  C   C4737     1.0  0.83140  0.55229  0.16516  1.0000
  H   H3754     1.0  0.80535  0.52064  0.07698  1.0000
  H   H3755     1.0  0.85194  0.54330  0.18259  1.0000
  C   C4738     1.0  0.79411  0.43324  0.20853  1.0000
  H   H3756     1.0  0.71860  0.56329  0.36971  1.0000
  C   C4739     1.0  0.69762  0.57992  0.13569  1.0000
  C   C4740     1.0  0.92252  0.40387  0.01307  1.0000
  S   S636      1.0  0.49718  0.42523  0.30302  1.0000
  C   C4741     1.0  0.92652  0.44532  0.07270  1.0000
  S   S637      1.0  0.53170  0.56196  0.41311  1.0000
  H   H3757     1.0  0.65962  0.56370  0.24340  1.0000
  H   H3758     1.0  0.98131  0.57036  0.10738  1.0000
  C   C4742     1.0  0.52316  0.53602  0.29793  1.0000
  H   H3759     1.0  0.68568  0.38890  0.30141  1.0000
  C   C4743     1.0  0.90060  0.55427  0.29785  1.0000
  S   S638      1.0  0.55786  0.57534  0.32682  1.0000
  H   H3760     1.0  0.72844  0.48842  0.17641  1.0000
  H   H3761     1.0  0.83602  0.49479  0.05188  1.0000
  C   C4744     1.0  0.75006  0.45274  0.21672  1.0000
  C   C4745     1.0  0.83320  0.56915  0.33058  1.0000
  H   H3762     1.0  0.81000  0.53440  0.01274  1.0000
  S   S639      1.0  0.92063  0.54245  0.02028  1.0000
  H   H3763     1.0  0.87656  0.52557  0.04428  1.0000
  C   C4746     1.0  0.77198  0.55797  0.21467  1.0000
  H   H3764     1.0  0.78799  0.44662  0.20061  1.0000
  H   H3765     1.0  0.49466  0.49140  0.34950  1.0000
  C   C4747     1.0  0.89467  0.39918  0.07885  1.0000
  C   C4748     1.0  0.69327  0.41436  0.22932  1.0000
  H   H3766     1.0  0.79530  0.55130  0.03860  1.0000
  H   H3767     1.0  0.71729  0.42452  0.21114  1.0000
  H   H3768     1.0  0.95576  0.53347  0.21429  1.0000
  C   C4749     1.0  0.78665  0.54678  0.08231  1.0000
  C   C4750     1.0  0.87425  0.53781  0.05014  1.0000
  C   C4751     1.0  0.84897  0.57273  0.17000  1.0000
  C   C4752     1.0  0.82377  0.40307  0.09145  1.0000
  H   H3769     1.0  0.89144  0.55989  0.20309  1.0000
  H   H3770     1.0  0.83704  0.46526  0.14620  1.0000
  C   C4753     1.0  0.84019  0.50447  0.03901  1.0000
  C   C4754     1.0  0.79270  0.40787  0.23598  1.0000
  C   C4755     1.0  0.84864  0.51186  0.00510  1.0000
  H   H3771     1.0  0.84173  0.48559  0.02142  1.0000
  H   H3772     1.0  0.60831  0.58139  0.36082  1.0000
  H   H3773     1.0  0.63166  0.40890  0.28690  1.0000
  H   H3774     1.0  0.88103  0.53640  0.31246  1.0000
  C   C4756     1.0  0.63124  0.55826  0.35599  1.0000
  H   H3775     1.0  0.67537  0.57509  0.32698  1.0000
  S   S640      1.0  0.83673  0.55708  0.29781  1.0000
  H   H3776     1.0  0.86261  0.58089  0.28873  1.0000
  H   H3777     1.0  0.72302  0.57131  0.28129  1.0000
  C   C4757     1.0  0.68888  0.56823  0.27087  1.0000
  C   C4758     1.0  0.70768  0.57048  0.37950  1.0000
  C   C4759     1.0  0.72042  0.39481  0.26083  1.0000
  C   C4760     1.0  0.92859  0.42409  0.15919  1.0000
  C   C4761     1.0  0.65825  0.55599  0.36852  1.0000
  H   H3778     1.0  0.98265  0.42589  0.05386  1.0000
  H   H3779     1.0  0.95559  0.57954  0.08868  1.0000
  H   H3780     1.0  0.82317  0.56030  0.33732  1.0000
  H   H3781     1.0  0.70360  0.54477  0.39935  1.0000
  H   H3782     1.0  0.88293  0.40702  0.13422  1.0000
  H   H3783     1.0  0.57144  0.58228  0.20445  1.0000
  C   C4762     1.0  0.87423  0.42833  0.15087  1.0000
  H   H3784     1.0  0.93785  0.47272  0.01242  1.0000
  C   C4763     1.0  0.88442  0.45288  0.20028  1.0000
  C   C4764     1.0  0.96697  0.52294  0.14679  1.0000
  C   C4765     1.0  0.89022  0.44492  0.18440  1.0000
  S   S641      1.0  0.48985  0.47068  0.31925  1.0000
  C   C4766     1.0  0.82946  0.57187  0.02544  1.0000
  C   C4767     1.0  0.69624  0.58051  0.15441  1.0000
  S   S642      1.0  0.87581  0.47038  0.99071  1.0000
  C   C4768     1.0  0.63258  0.57682  0.43540  1.0000
  H   H3785     1.0  0.86895  0.45050  0.22893  1.0000
  H   H3786     1.0  0.92458  0.38590  0.16700  1.0000
  C   C4769     1.0  0.81547  0.55125  0.09675  1.0000
  C   C4770     1.0  0.50869  0.43366  0.36193  1.0000
  H   H3787     1.0  0.92582  0.42255  0.17428  1.0000
  C   C4771     1.0  0.91958  0.42355  0.13090  1.0000
  H   H3788     1.0  0.83563  0.40167  0.20669  1.0000
  C   C4772     1.0  0.96532  0.45595  0.00377  1.0000
  C   C4773     1.0  0.90939  0.56330  0.28034  1.0000
  H   H3789     1.0  0.86091  0.42036  0.23025  1.0000
  C   C4774     1.0  0.83783  0.57983  0.34079  1.0000
  H   H3790     1.0  0.98286  0.55923  0.18591  1.0000
  H   H3791     1.0  0.89622  0.49900  0.98654  1.0000
  H   H3792     1.0  0.90987  0.42159  0.12374  1.0000
  C   C4775     1.0  0.83679  0.58228  0.24935  1.0000
  H   H3793     1.0  0.86452  0.39459  0.17447  1.0000
  H   H3794     1.0  0.61963  0.58299  0.28611  1.0000
  H   H3795     1.0  0.75233  0.57011  0.13304  1.0000
  C   C4776     1.0  0.79886  0.56481  0.09691  1.0000
  H   H3796     1.0  0.94114  0.42591  0.10561  1.0000
  C   C4777     1.0  0.62858  0.57949  0.41771  1.0000
  H   H3797     1.0  0.62985  0.39254  0.39105  1.0000
  H   H3798     1.0  0.70502  0.56592  0.18043  1.0000
  H   H3799     1.0  0.79685  0.57668  0.10328  1.0000
  H   H3800     1.0  0.82418  0.56957  0.05554  1.0000
  C   C4778     1.0  0.77716  0.58009  0.18505  1.0000
  C   C4779     1.0  0.75392  0.56853  0.21941  1.0000
  C   C4780     1.0  0.91929  0.42341  0.00760  1.0000
  S   S643      1.0  0.80605  0.56468  0.14194  1.0000
  H   H3801     1.0  0.73979  0.56890  0.09453  1.0000
  H   H3802     1.0  0.59468  0.57789  0.41272  1.0000
  H   H3803     1.0  0.91558  0.56219  0.10485  1.0000
  H   H3804     1.0  0.68838  0.57839  0.35213  1.0000
  C   C4781     1.0  0.95092  0.47203  0.00213  1.0000
  H   H3805     1.0  0.85116  0.38851  0.12386  1.0000
  H   H3806     1.0  0.91816  0.57289  0.27952  1.0000
  C   C4782     1.0  0.97103  0.58154  0.16494  1.0000
  H   H3807     1.0  0.63489  0.56282  0.44410  1.0000
  C   C4783     1.0  0.82211  0.56748  0.15346  1.0000
  C   C4784     1.0  0.70652  0.56571  0.16585  1.0000
  H   H3808     1.0  0.85637  0.56628  0.12487  1.0000
  C   C4785     1.0  0.98443  0.58362  0.10713  1.0000
  H   H3809     1.0  0.82933  0.57564  0.99604  1.0000
  C   C4786     1.0  0.70960  0.56468  0.12845  1.0000
  C   C4787     1.0  0.68488  0.56892  0.40892  1.0000
  C   C4788     1.0  0.93733  0.42608  0.12047  1.0000
  C   C4789     1.0  0.93310  0.45919  0.07664  1.0000
  H   H3810     1.0  0.56162  0.38893  0.29672  1.0000
  H   H3811     1.0  0.83123  0.57922  0.35543  1.0000
  H   H3812     1.0  0.95685  0.42759  0.15551  1.0000
  C   C4790     1.0  0.94833  0.46602  0.06432  1.0000
  H   H3813     1.0  0.72826  0.39598  0.35210  1.0000
  H   H3814     1.0  0.88771  0.53788  0.00359  1.0000
  C   C4791     1.0  0.98564  0.51839  0.08029  1.0000
  C   C4792     1.0  0.95060  0.42784  0.12930  1.0000
  H   H3815     1.0  0.65657  0.57753  0.38291  1.0000
  H   H3816     1.0  0.80391  0.57799  0.21563  1.0000
  H   H3817     1.0  0.56122  0.57778  0.41875  1.0000
  C   C4793     1.0  0.50068  0.56265  0.44202  1.0000
  C   C4794     1.0  0.67828  0.57732  0.22046  1.0000
  H   H3818     1.0  0.76214  0.56651  0.03614  1.0000
  C   C4795     1.0  0.73928  0.39270  0.35985  1.0000
  H   H3819     1.0  0.74502  0.56396  0.23278  1.0000
  H   H3820     1.0  0.76005  0.57736  0.15944  1.0000
  C   C4796     1.0  0.90706  0.38728  0.06749  1.0000
  S   S644      1.0  0.50421  0.57012  0.33555  1.0000
  H   H3821     1.0  0.78823  0.39081  0.32542  1.0000
  C   C4797     1.0  0.79248  0.40399  0.31847  1.0000
  H   H3822     1.0  0.49554  0.43005  0.37009  1.0000
  H   H3823     1.0  0.79162  0.57771  0.34057  1.0000
  C   C4798     1.0  0.75297  0.57347  0.04701  1.0000
  H   H3824     1.0  0.67441  0.38645  0.45267  1.0000
  C   C4799     1.0  0.89868  0.55884  0.98116  1.0000
  H   H3825     1.0  0.82036  0.38408  0.33787  1.0000
  H   H3826     1.0  0.71492  0.57377  0.25223  1.0000
  H   H3827     1.0  0.58831  0.57351  0.25651  1.0000
  H   H3828     1.0  0.79668  0.39877  0.29077  1.0000
  C   C4800     1.0  0.97319  0.57258  0.18331  1.0000
  H   H3829     1.0  0.96450  0.57385  0.21266  1.0000
  H   H3830     1.0  0.87045  0.58192  0.06899  1.0000
  C   C4801     1.0  0.76587  0.58111  0.36124  1.0000
  H   H3831     1.0  0.88353  0.58159  0.11070  1.0000
  C   C4802     1.0  0.87815  0.38544  0.17479  1.0000
  C   C4803     1.0  0.70012  0.57925  0.25671  1.0000
  C   C4804     1.0  0.66078  0.57609  0.23239  1.0000
  C   C4805     1.0  0.76729  0.38476  0.38030  1.0000
  H   H3832     1.0  0.81797  0.38651  0.23711  1.0000
  C   C4806     1.0  0.82443  0.38499  0.98129  1.0000
  C   C4807     1.0  0.59078  0.57877  0.24145  1.0000
  C   C4808     1.0  0.82750  0.38648  0.08497  1.0000
  H   H3833     1.0  0.56643  0.57066  0.23899  1.0000
  C   C4809     1.0  0.85561  0.58055  0.30329  1.0000
  C   C4810     1.0  0.57832  0.57705  0.23155  1.0000
  C   C4811     1.0  0.77659  0.58285  0.34297  1.0000
  C   C4812     1.0  0.58113  0.58359  0.21210  1.0000
  Fe  Fe322     1.0  0.92863  0.38385  0.10017  1.0000
  C   C4813     1.0  0.62410  0.41798  0.48171  1.0000
  H   H3834     1.0  0.91143  0.54912  0.97645  1.0000
  H   H3835     1.0  0.91963  0.39164  0.82151  1.0000
  H   H3836     1.0  0.98745  0.56525  0.91083  1.0000
  H   H3837     1.0  0.54561  0.40893  0.49961  1.0000
  C   C4814     1.0  0.60784  0.39369  0.50181  1.0000
  C   C4815     1.0  0.89140  0.38783  0.82598  1.0000
  H   H3838     1.0  0.90666  0.58257  0.96042  1.0000
  C   C4816     1.0  0.62063  0.40523  0.49880  1.0000
  H   H3839     1.0  0.97258  0.49989  0.96379  1.0000
  C   C4817     1.0  0.86873  0.38948  0.94588  1.0000
  H   H3840     1.0  0.48955  0.40273  0.58899  1.0000
  C   C4818     1.0  0.89602  0.57775  0.97219  1.0000
  H   H3841     1.0  0.86371  0.39419  0.65321  1.0000
  H   H3842     1.0  0.62816  0.40415  0.50954  1.0000
  C   C4819     1.0  0.85537  0.40479  0.76173  1.0000
  H   H3843     1.0  0.85743  0.40118  0.94249  1.0000
  C   C4820     1.0  0.97430  0.54528  0.95705  1.0000
  H   H3844     1.0  0.81695  0.41085  0.93869  1.0000
  H   H3845     1.0  0.85621  0.41946  0.75827  1.0000
  S   S645      1.0  0.95332  0.54225  0.97353  1.0000
  H   H3846     1.0  0.58853  0.38654  0.48946  1.0000
  C   C4821     1.0  0.52627  0.39864  0.54633  1.0000
  H   H3847     1.0  0.55339  0.40853  0.58287  1.0000
  C   C4822     1.0  0.82202  0.40078  0.96678  1.0000
  H   H3848     1.0  0.95916  0.56041  0.93529  1.0000
  C   C4823     1.0  0.84682  0.39810  0.75127  1.0000
  H   H3849     1.0  0.52391  0.38892  0.62959  1.0000
  H   H3850     1.0  0.52534  0.40310  0.55910  1.0000
  C   C4824     1.0  0.58789  0.38697  0.54200  1.0000
  C   C4825     1.0  0.97053  0.48751  0.97471  1.0000
  C   C4826     1.0  0.50586  0.39770  0.60972  1.0000
  H   H3851     1.0  0.88582  0.39610  0.83673  1.0000
  C   C4827     1.0  0.91044  0.38528  0.81747  1.0000
  H   H3852     1.0  0.98692  0.40041  0.78243  1.0000
  C   C4828     1.0  0.57011  0.41430  0.55479  1.0000
  C   C4829     1.0  0.50110  0.39344  0.59490  1.0000
  C   C4830     1.0  0.97283  0.55489  0.93874  1.0000
  H   H3853     1.0  0.84099  0.40760  0.73972  1.0000
  C   C4831     1.0  0.53630  0.40751  0.52941  1.0000
  C   C4832     1.0  0.81877  0.39872  0.95001  1.0000
  H   H3854     1.0  0.54288  0.41867  0.52929  1.0000
  C   C4833     1.0  0.49222  0.50908  0.73321  1.0000
  H   H3855     1.0  0.49132  0.39102  0.66243  1.0000
  H   H3856     1.0  0.50695  0.50248  0.73033  1.0000
  H   H3857     1.0  0.56617  0.42939  0.55338  1.0000
  C   C4834     1.0  0.86283  0.39261  0.77671  1.0000
  C   C4835     1.0  0.58265  0.40653  0.54014  1.0000
  H   H3858     1.0  0.86262  0.39105  0.97496  1.0000
  H   H3859     1.0  0.58829  0.41581  0.52751  1.0000
  H   H3860     1.0  0.87775  0.38445  0.91781  1.0000
  C   C4836     1.0  0.53784  0.40202  0.51269  1.0000
  C   C4837     1.0  0.59837  0.39532  0.48758  1.0000
  C   C4838     1.0  0.52057  0.38587  0.61776  1.0000
  S   S646      1.0  0.82318  0.42321  0.96898  1.0000
  C   C4839     1.0  0.56288  0.40259  0.57139  1.0000
  H   H3861     1.0  0.49777  0.40987  0.61540  1.0000
  C   C4840     1.0  0.98503  0.47166  0.97628  1.0000
  H   H3862     1.0  0.86937  0.39813  0.78462  1.0000
  H   H3863     1.0  0.49011  0.51625  0.70416  1.0000
  H   H3864     1.0  0.49004  0.50373  0.76312  1.0000
  C   C4841     1.0  0.52935  0.38763  0.51287  1.0000
  C   C4842     1.0  0.51766  0.38419  0.54662  1.0000
  C   C4843     1.0  0.60734  0.69239  0.14255  1.0000
  Fe  Fe323     1.0  0.67416  0.62675  0.12722  1.0000
  S   S647      1.0  0.64429  0.64257  0.13460  1.0000
  S   S648      1.0  0.68443  0.59763  0.12094  1.0000
  Fe  Fe324     1.0  0.69087  0.65945  0.12574  1.0000
  S   S649      1.0  0.66279  0.67795  0.13330  1.0000
  S   S650      1.0  0.71913  0.66728  0.11851  1.0000
  Fe  Fe325     1.0  0.65534  0.65259  0.15428  1.0000
  S   S651      1.0  0.63957  0.65306  0.18405  1.0000
  Fe  Fe326     1.0  0.65373  0.66703  0.11292  1.0000
  S   S652      1.0  0.63843  0.69137  0.09370  1.0000
  S   S653      1.0  0.68423  0.63487  0.14867  1.0000
  S   S654      1.0  0.68261  0.65033  0.10377  1.0000
  Fe  Fe327     1.0  0.70213  0.66043  0.27564  1.0000
  S   S655      1.0  0.68261  0.65553  0.30357  1.0000
  S   S656      1.0  0.73311  0.65010  0.27409  1.0000
  Fe  Fe328     1.0  0.67078  0.68347  0.25628  1.0000
  S   S657      1.0  0.64844  0.68096  0.28273  1.0000
  S   S658      1.0  0.66682  0.69874  0.22727  1.0000
  Fe  Fe329     1.0  0.66973  0.68601  0.29597  1.0000
  S   S659      1.0  0.66258  0.70247  0.31884  1.0000
  Fe  Fe330     1.0  0.66322  0.65075  0.28813  1.0000
  S   S660      1.0  0.65062  0.62486  0.29699  1.0000
  S   S661      1.0  0.69052  0.69131  0.26905  1.0000
  S   S662      1.0  0.68417  0.65292  0.26068  1.0000
  C   C4844     1.0  0.69174  0.58703  0.33835  1.0000
  H   H3865     1.0  0.73258  0.59442  0.11310  1.0000
  S   S663      1.0  0.70709  0.76121  0.32380  1.0000
  Fe  Fe331     1.0  0.77337  0.74572  0.28863  1.0000
  S   S664      1.0  0.78787  0.71778  0.28166  1.0000
  S   S665      1.0  0.76166  0.74751  0.31869  1.0000
  C   C4845     1.0  0.85113  0.59113  0.33214  1.0000
  Fe  Fe332     1.0  0.76215  0.77864  0.11894  1.0000
  Fe  Fe333     1.0  0.90074  0.63092  0.28822  1.0000
  S   S666      1.0  0.90710  0.61236  0.31541  1.0000
  S   S667      1.0  0.90879  0.61518  0.26467  1.0000
  Fe  Fe334     1.0  0.87960  0.66345  0.30731  1.0000
  S   S668      1.0  0.88357  0.64674  0.33584  1.0000
  S   S669      1.0  0.86532  0.69369  0.30681  1.0000
  Fe  Fe335     1.0  0.91319  0.63785  0.32102  1.0000
  S   S670      1.0  0.93876  0.63850  0.33118  1.0000
  Fe  Fe336     1.0  0.87688  0.62330  0.32724  1.0000
  S   S671      1.0  0.90955  0.65543  0.29262  1.0000
  S   S672      1.0  0.87027  0.64095  0.30000  1.0000
  Fe  Fe337     1.0  0.87668  0.60223  0.16436  1.0000
  S   S673      1.0  0.90560  0.60545  0.16340  1.0000
  C   C4846     1.0  0.53163  0.77023  0.06133  1.0000
  Fe  Fe338     1.0  0.86783  0.63939  0.13738  1.0000
  S   S674      1.0  0.89592  0.64589  0.13381  1.0000
  S   S675      1.0  0.84525  0.65707  0.12208  1.0000
  Fe  Fe339     1.0  0.90726  0.61566  0.13236  1.0000
  C   C4847     1.0  0.92853  0.59784  0.09438  1.0000
  Fe  Fe340     1.0  0.89189  0.63535  0.16509  1.0000
  S   S676      1.0  0.89916  0.65263  0.18134  1.0000
  S   S677      1.0  0.87948  0.60994  0.13324  1.0000
  S   S678      1.0  0.86264  0.63129  0.16884  1.0000
  Fe  Fe341     1.0  0.96261  0.70090  0.39021  1.0000
  S   S679      1.0  0.95977  0.73093  0.37464  1.0000
  C   C4848     1.0  0.61309  0.63814  0.26329  1.0000
  C   C4849     1.0  0.72809  0.59946  0.05543  1.0000
  Fe  Fe342     1.0  0.54806  0.76141  0.01711  1.0000
  S   S680      1.0  0.54425  0.73329  0.01600  1.0000
  H   H3866     1.0  0.71779  0.59848  0.08510  1.0000
  Fe  Fe343     1.0  0.58889  0.75441  0.99776  1.0000
  S   S681      1.0  0.58812  0.72614  0.99420  1.0000
  H   H3867     1.0  0.63581  0.61858  0.21394  1.0000
  C   C4850     1.0  0.73755  0.59552  0.34900  1.0000
  H   H3868     1.0  0.82393  0.59640  0.07590  1.0000
  Fe  Fe344     1.0  0.57242  0.72240  0.02419  1.0000
  S   S682      1.0  0.57973  0.69540  0.04535  1.0000
  C   C4851     1.0  0.83936  0.58794  0.15864  1.0000
  S   S683      1.0  0.57459  0.75008  0.02805  1.0000
  P   P160      1.0  0.62224  0.58914  0.24511  1.0000
  H   H3869     1.0  0.49812  0.75108  0.01463  1.0000
  S   S684      1.0  0.56552  0.62245  0.33406  1.0000
  H   H3870     1.0  0.61711  0.73901  0.10529  1.0000
  C   C4852     1.0  0.56189  0.68196  0.01017  1.0000
  C   C4853     1.0  0.85588  0.63872  0.39642  1.0000
  H   H3871     1.0  0.71456  0.62225  0.31343  1.0000
  C   C4854     1.0  0.49603  0.64004  0.42786  1.0000
  C   C4855     1.0  0.90353  0.78030  0.38229  1.0000
  H   H3872     1.0  0.66448  0.69454  0.05329  1.0000
  H   H3873     1.0  0.68061  0.77571  0.16669  1.0000
  H   H3874     1.0  0.53851  0.76099  0.08852  1.0000
  C   C4856     1.0  0.55027  0.68380  0.99791  1.0000
  S   S685      1.0  0.94258  0.76174  0.41455  1.0000
  C   C4857     1.0  0.51349  0.71073  0.16210  1.0000
  H   H3875     1.0  0.66780  0.61980  0.24894  1.0000
  C   C4858     1.0  0.98683  0.59662  0.09008  1.0000
  Fe  Fe345     1.0  0.78149  0.74845  0.14659  1.0000
  C   C4859     1.0  0.59643  0.59184  0.20254  1.0000
  H   H3876     1.0  0.98519  0.59348  0.07747  1.0000
  H   H3877     1.0  0.61244  0.67787  0.14127  1.0000
  C   C4860     1.0  0.84131  0.66246  0.43383  1.0000
  H   H3878     1.0  0.63800  0.74957  0.07558  1.0000
  C   C4861     1.0  0.63073  0.70358  0.98448  1.0000
  H   H3879     1.0  0.77954  0.60367  0.02883  1.0000
  C   C4862     1.0  0.74330  0.73202  0.08215  1.0000
  C   C4863     1.0  0.93922  0.65432  0.34471  1.0000
  C   C4864     1.0  0.95649  0.65517  0.34775  1.0000
  C   C4865     1.0  0.95733  0.66595  0.36004  1.0000
  C   C4866     1.0  0.94083  0.67579  0.36967  1.0000
  C   C4867     1.0  0.92359  0.67554  0.36608  1.0000
  C   C4868     1.0  0.92278  0.66499  0.35356  1.0000
  H   H3880     1.0  0.96927  0.64698  0.34098  1.0000
  H   H3881     1.0  0.97066  0.66585  0.36282  1.0000
  H   H3882     1.0  0.91072  0.68293  0.37358  1.0000
  H   H3883     1.0  0.90939  0.66434  0.35151  1.0000
  C   C4869     1.0  0.90494  0.62619  0.24199  1.0000
  C   C4870     1.0  0.90390  0.61511  0.23020  1.0000
  C   C4871     1.0  0.90184  0.62316  0.21166  1.0000
  C   C4872     1.0  0.90121  0.64233  0.20469  1.0000
  C   C4873     1.0  0.90202  0.65351  0.21651  1.0000
  C   C4874     1.0  0.90380  0.64547  0.23519  1.0000
  H   H3884     1.0  0.90484  0.60022  0.23543  1.0000
  H   H3885     1.0  0.90118  0.61449  0.20263  1.0000
  H   H3886     1.0  0.90143  0.66838  0.21117  1.0000
  H   H3887     1.0  0.90482  0.65404  0.24415  1.0000
  C   C4875     1.0  0.81996  0.71242  0.14148  1.0000
  C   C4876     1.0  0.83862  0.70356  0.14202  1.0000
  C   C4877     1.0  0.84639  0.68651  0.13619  1.0000
  C   C4878     1.0  0.83591  0.67886  0.12862  1.0000
  C   C4879     1.0  0.81775  0.68852  0.12658  1.0000
  C   C4880     1.0  0.80962  0.70505  0.13343  1.0000
  H   H3888     1.0  0.84702  0.70969  0.14731  1.0000
  H   H3889     1.0  0.86054  0.67936  0.13747  1.0000
  H   H3890     1.0  0.80977  0.68303  0.12016  1.0000
  H   H3891     1.0  0.79531  0.71193  0.13270  1.0000
  C   C4881     1.0  0.80921  0.71090  0.28893  1.0000
  C   C4882     1.0  0.81375  0.72161  0.29897  1.0000
  C   C4883     1.0  0.83114  0.71638  0.30419  1.0000
  C   C4884     1.0  0.84387  0.70025  0.29969  1.0000
  C   C4885     1.0  0.83929  0.68951  0.28974  1.0000
  C   C4886     1.0  0.82199  0.69491  0.28426  1.0000
  H   H3892     1.0  0.80391  0.73395  0.30272  1.0000
  H   H3893     1.0  0.83461  0.72471  0.31193  1.0000
  H   H3894     1.0  0.84920  0.67723  0.28600  1.0000
  H   H3895     1.0  0.81856  0.68681  0.27628  1.0000
  C   C4887     1.0  0.49418  0.62444  0.46070  1.0000
  C   C4888     1.0  0.92110  0.62446  0.38219  1.0000
  C   C4889     1.0  0.54473  0.70567  0.16803  1.0000
  C   C4890     1.0  0.66648  0.77509  0.19559  1.0000
  H   H3896     1.0  0.62174  0.66223  0.01296  1.0000
  C   C4891     1.0  0.58942  0.62277  0.32478  1.0000
  C   C4892     1.0  0.60257  0.60635  0.32187  1.0000
  C   C4893     1.0  0.62137  0.60720  0.31359  1.0000
  C   C4894     1.0  0.62710  0.62443  0.30815  1.0000
  C   C4895     1.0  0.61405  0.64077  0.31146  1.0000
  C   C4896     1.0  0.59526  0.63991  0.31980  1.0000
  C   C4897     1.0  0.98549  0.76866  0.43405  1.0000
  H   H3897     1.0  0.63145  0.59449  0.31120  1.0000
  H   H3898     1.0  0.61837  0.65408  0.30738  1.0000
  H   H3899     1.0  0.58513  0.65263  0.32209  1.0000
  C   C4898     1.0  0.74170  0.62734  0.26997  1.0000
  C   C4899     1.0  0.75700  0.61590  0.27739  1.0000
  H   H3900     1.0  0.76358  0.62128  0.28535  1.0000
  C   C4900     1.0  0.67605  0.71826  0.31929  1.0000
  C   C4901     1.0  0.66865  0.72986  0.33232  1.0000
  C   C4902     1.0  0.67839  0.74282  0.33337  1.0000
  C   C4903     1.0  0.69591  0.74423  0.32165  1.0000
  C   C4904     1.0  0.70367  0.73239  0.30876  1.0000
  C   C4905     1.0  0.69361  0.71959  0.30737  1.0000
  H   H3901     1.0  0.65513  0.72900  0.34156  1.0000
  H   H3902     1.0  0.63617  0.66837  0.33424  1.0000
  H   H3903     1.0  0.71731  0.73322  0.29988  1.0000
  H   H3904     1.0  0.69938  0.71081  0.29713  1.0000
  C   C4906     1.0  0.62317  0.69125  0.07962  1.0000
  C   C4907     1.0  0.61906  0.70724  0.06564  1.0000
  C   C4908     1.0  0.60611  0.70847  0.05482  1.0000
  C   C4909     1.0  0.59701  0.69372  0.05793  1.0000
  C   C4910     1.0  0.60137  0.67752  0.07168  1.0000
  C   C4911     1.0  0.61445  0.67625  0.08249  1.0000
  H   H3905     1.0  0.62586  0.71881  0.06322  1.0000
  H   H3906     1.0  0.60310  0.72091  0.04417  1.0000
  H   H3907     1.0  0.59442  0.66602  0.07415  1.0000
  H   H3908     1.0  0.61748  0.66387  0.09324  1.0000
  H   H3909     1.0  0.52069  0.72388  0.18079  1.0000
  H   H3910     1.0  0.49899  0.68946  0.19625  1.0000
  H   H3911     1.0  0.64205  0.71823  0.13379  1.0000
  H   H3912     1.0  0.55692  0.74407  0.15377  1.0000
  P   P161      1.0  0.86841  0.65231  0.40317  1.0000
  C   C4912     1.0  0.83041  0.76688  0.22006  1.0000
  C   C4913     1.0  0.83149  0.77578  0.24828  1.0000
  H   H3913     1.0  0.49742  0.70858  0.99246  1.0000
  H   H3914     1.0  0.71834  0.61241  0.05138  1.0000
  C   C4914     1.0  0.71945  0.68504  0.12932  1.0000
  C   C4915     1.0  0.73530  0.69301  0.12462  1.0000
  C   C4916     1.0  0.73488  0.70848  0.13188  1.0000
  C   C4917     1.0  0.71869  0.71576  0.14399  1.0000
  C   C4918     1.0  0.70339  0.70702  0.14951  1.0000
  C   C4919     1.0  0.70371  0.69177  0.14214  1.0000
  H   H3915     1.0  0.74760  0.68766  0.11486  1.0000
  H   H3916     1.0  0.74689  0.71496  0.12791  1.0000
  H   H3917     1.0  0.69107  0.71230  0.15928  1.0000
  H   H3918     1.0  0.69170  0.68535  0.14630  1.0000
  C   C4920     1.0  0.64742  0.66576  0.19585  1.0000
  C   C4921     1.0  0.65749  0.67970  0.18593  1.0000
  C   C4922     1.0  0.66318  0.68993  0.19569  1.0000
  C   C4923     1.0  0.65934  0.68589  0.21538  1.0000
  C   C4924     1.0  0.64963  0.67166  0.22531  1.0000
  C   C4925     1.0  0.64340  0.66186  0.21553  1.0000
  H   H3919     1.0  0.66066  0.68284  0.17077  1.0000
  H   H3920     1.0  0.67078  0.70086  0.18801  1.0000
  H   H3921     1.0  0.64656  0.66853  0.24051  1.0000
  H   H3922     1.0  0.63542  0.65129  0.22318  1.0000
  Fe  Fe346     1.0  0.73622  0.76504  0.30800  1.0000
  C   C4926     1.0  0.49695  0.74749  0.04406  1.0000
  C   C4927     1.0  0.91097  0.60442  0.08970  1.0000
  H   H3923     1.0  0.62092  0.64866  0.26216  1.0000
  H   H3924     1.0  0.50754  0.75371  0.15503  1.0000
  C   C4928     1.0  0.52836  0.76967  0.08055  1.0000
  C   C4929     1.0  0.98584  0.58787  0.12365  1.0000
  H   H3925     1.0  0.90069  0.61484  0.09644  1.0000
  S   S686      1.0  0.80971  0.73190  0.15202  1.0000
  C   C4930     1.0  0.74852  0.59744  0.33068  1.0000
  C   C4931     1.0  0.61137  0.60934  0.25574  1.0000
  H   H3926     1.0  0.97218  0.77048  0.46265  1.0000
  H   H3927     1.0  0.82018  0.67031  0.45748  1.0000
  P   P162      1.0  0.57643  0.74011  0.11540  1.0000
  H   H3928     1.0  0.76221  0.74294  0.24564  1.0000
  C   C4932     1.0  0.94544  0.77152  0.33652  1.0000
  C   C4933     1.0  0.56071  0.72890  0.11001  1.0000
  C   C4934     1.0  0.59326  0.61050  0.26714  1.0000
  C   C4935     1.0  0.58522  0.62531  0.27651  1.0000
  C   C4936     1.0  0.59507  0.63920  0.27447  1.0000
  C   C4937     1.0  0.83249  0.60340  0.08002  1.0000
  S   S687      1.0  0.79003  0.77770  0.33011  1.0000
  H   H3929     1.0  0.54477  0.67897  0.13817  1.0000
  S   S688      1.0  0.61593  0.76468  0.98822  1.0000
  C   C4938     1.0  0.56245  0.76011  0.12521  1.0000
  H   H3930     1.0  0.95487  0.60502  0.14823  1.0000
  H   H3931     1.0  0.53542  0.74252  0.12699  1.0000
  H   H3932     1.0  0.86974  0.76820  0.36340  1.0000
  C   C4939     1.0  0.52575  0.71443  0.17114  1.0000
  H   H3933     1.0  0.79325  0.61277  0.32358  1.0000
  C   C4940     1.0  0.62632  0.67544  0.00815  1.0000
  H   H3934     1.0  0.57148  0.62584  0.28574  1.0000
  H   H3935     1.0  0.58888  0.65054  0.28191  1.0000
  H   H3936     1.0  0.71933  0.72096  0.09886  1.0000
  H   H3937     1.0  0.76466  0.74562  0.06275  1.0000
  H   H3938     1.0  0.54107  0.60066  0.39846  1.0000
  S   S689      1.0  0.93350  0.60570  0.11206  1.0000
  C   C4941     1.0  0.74707  0.58402  0.13599  1.0000
  H   H3939     1.0  0.65428  0.63736  0.32799  1.0000
  C   C4942     1.0  0.87299  0.58486  0.22879  1.0000
  H   H3940     1.0  0.62058  0.60003  0.20451  1.0000
  C   C4943     1.0  0.89997  0.72423  0.38910  1.0000
  C   C4944     1.0  0.88534  0.73555  0.39926  1.0000
  C   C4945     1.0  0.87431  0.75113  0.38978  1.0000
  C   C4946     1.0  0.87818  0.75565  0.37015  1.0000
  C   C4947     1.0  0.89330  0.74470  0.35975  1.0000
  C   C4948     1.0  0.90401  0.72875  0.36945  1.0000
  P   P163      1.0  0.90042  0.75213  0.33449  1.0000
  C   C4949     1.0  0.88034  0.76666  0.32511  1.0000
  C   C4950     1.0  0.91830  0.76569  0.32925  1.0000
  H   H3941     1.0  0.49122  0.65182  0.41723  1.0000
  C   C4951     1.0  0.59646  0.70488  0.13029  1.0000
  C   C4952     1.0  0.86139  0.61907  0.39980  1.0000
  H   H3942     1.0  0.71283  0.75672  0.04506  1.0000
  C   C4953     1.0  0.93096  0.76175  0.34110  1.0000
  C   C4954     1.0  0.69018  0.71407  0.07083  1.0000
  C   C4955     1.0  0.76351  0.62277  0.38197  1.0000
  C   C4956     1.0  0.83971  0.64747  0.38913  1.0000
  H   H3943     1.0  0.74236  0.60357  0.31853  1.0000
  C   C4957     1.0  0.91015  0.73116  0.32493  1.0000
  C   C4958     1.0  0.89941  0.71758  0.32853  1.0000
  C   C4959     1.0  0.90685  0.70106  0.32173  1.0000
  C   C4960     1.0  0.92537  0.69763  0.31184  1.0000
  C   C4961     1.0  0.93636  0.71088  0.30848  1.0000
  C   C4962     1.0  0.92879  0.72764  0.31490  1.0000
  H   H3944     1.0  0.90855  0.71221  0.39650  1.0000
  H   H3945     1.0  0.88273  0.73239  0.41447  1.0000
  H   H3946     1.0  0.68690  0.59210  0.16018  1.0000
  C   C4963     1.0  0.49022  0.75549  0.02751  1.0000
  H   H3947     1.0  0.91591  0.72007  0.36194  1.0000
  C   C4964     1.0  0.74645  0.58764  0.36429  1.0000
  C   C4965     1.0  0.59012  0.72381  0.13157  1.0000
  H   H3948     1.0  0.66656  0.62020  0.19282  1.0000
  H   H3949     1.0  0.65262  0.77961  0.19246  1.0000
  H   H3950     1.0  0.92985  0.75093  0.35374  1.0000
  H   H3951     1.0  0.73282  0.62943  0.35818  1.0000
  S   S690      1.0  0.52771  0.59231  0.36162  1.0000
  H   H3952     1.0  0.97295  0.76733  0.43053  1.0000
  H   H3953     1.0  0.88524  0.71983  0.33653  1.0000
  H   H3954     1.0  0.89836  0.69074  0.32434  1.0000
  H   H3955     1.0  0.93127  0.68454  0.30707  1.0000
  H   H3956     1.0  0.95083  0.70803  0.30109  1.0000
  H   H3957     1.0  0.93769  0.73754  0.31226  1.0000
  H   H3958     1.0  0.78614  0.58417  0.17159  1.0000
  H   H3959     1.0  0.65629  0.77243  0.22532  1.0000
  C   C4966     1.0  0.80292  0.66369  0.33837  1.0000
  C   C4967     1.0  0.82004  0.68725  0.34839  1.0000
  C   C4968     1.0  0.83091  0.67151  0.34148  1.0000
  C   C4969     1.0  0.82243  0.65964  0.33663  1.0000
  C   C4970     1.0  0.77104  0.66106  0.32272  1.0000
  C   C4971     1.0  0.75879  0.65080  0.32102  1.0000
  C   C4972     1.0  0.74310  0.66000  0.31326  1.0000
  C   C4973     1.0  0.73946  0.67949  0.30721  1.0000
  C   C4974     1.0  0.75164  0.68980  0.30872  1.0000
  C   C4975     1.0  0.76754  0.68061  0.31615  1.0000
  H   H3960     1.0  0.71594  0.74628  0.26750  1.0000
  H   H3961     1.0  0.82672  0.69680  0.35143  1.0000
  H   H3962     1.0  0.84598  0.66877  0.33942  1.0000
  H   H3963     1.0  0.83117  0.64740  0.33149  1.0000
  H   H3964     1.0  0.73377  0.65205  0.31177  1.0000
  H   H3965     1.0  0.72738  0.68652  0.30103  1.0000
  H   H3966     1.0  0.74909  0.70490  0.30373  1.0000
  H   H3967     1.0  0.77734  0.68884  0.31596  1.0000
  C   C4976     1.0  0.52045  0.69756  0.15052  1.0000
  C   C4977     1.0  0.86491  0.67613  0.38976  1.0000
  H   H3968     1.0  0.69554  0.75029  0.10755  1.0000
  H   H3969     1.0  0.51495  0.62460  0.40773  1.0000
  C   C4978     1.0  0.59207  0.74795  0.09365  1.0000
  H   H3970     1.0  0.74510  0.76093  0.03897  1.0000
  C   C4979     1.0  0.83004  0.63683  0.38403  1.0000
  C   C4980     1.0  0.64324  0.63815  0.34038  1.0000
  C   C4981     1.0  0.66362  0.74964  0.27600  1.0000
  C   C4982     1.0  0.76809  0.73321  0.21993  1.0000
  C   C4983     1.0  0.69054  0.77818  0.24882  1.0000
  H   H3971     1.0  0.76148  0.63566  0.32543  1.0000
  H   H3972     1.0  0.83462  0.66250  0.38716  1.0000
  C   C4984     1.0  0.79921  0.61631  0.35897  1.0000
  C   C4985     1.0  0.79472  0.60362  0.37586  1.0000
  C   C4986     1.0  0.68034  0.59319  0.20621  1.0000
  H   H3973     1.0  0.51417  0.73031  0.11622  1.0000
  C   C4987     1.0  0.68222  0.77307  0.18104  1.0000
  C   C4988     1.0  0.70198  0.59014  0.37531  1.0000
  C   C4989     1.0  0.92041  0.58546  0.06606  1.0000
  H   H3974     1.0  0.84209  0.64117  0.27543  1.0000
  P   P164      1.0  0.71236  0.60338  0.35306  1.0000
  H   H3975     1.0  0.87334  0.61192  0.40612  1.0000
  C   C4990     1.0  0.94713  0.60640  0.17736  1.0000
  C   C4991     1.0  0.89339  0.64318  0.39852  1.0000
  H   H3976     1.0  0.89311  0.62336  0.98483  1.0000
  C   C4992     1.0  0.66431  0.76989  0.07341  1.0000
  H   H3977     1.0  0.93290  0.64565  0.41061  1.0000
  C   C4993     1.0  0.50829  0.60945  0.45522  1.0000
  C   C4994     1.0  0.78574  0.63212  0.35330  1.0000
  H   H3978     1.0  0.58549  0.59972  0.26933  1.0000
  H   H3979     1.0  0.92759  0.61602  0.37165  1.0000
  C   C4995     1.0  0.77689  0.60684  0.38737  1.0000
  P   P165      1.0  0.79177  0.64871  0.33181  1.0000
  H   H3980     1.0  0.86093  0.70043  0.34545  1.0000
  C   C4996     1.0  0.49641  0.75571  0.16723  1.0000
  H   H3981     1.0  0.85668  0.59344  0.39618  1.0000
  H   H3982     1.0  0.63535  0.62259  0.24592  1.0000
  C   C4997     1.0  0.66864  0.77094  0.21418  1.0000
  C   C4998     1.0  0.63291  0.65559  0.34385  1.0000
  C   C4999     1.0  0.62431  0.62238  0.36832  1.0000
  H   H3983     1.0  0.93017  0.76103  0.38169  1.0000
  C   C5000     1.0  0.56704  0.58840  0.40763  1.0000
  H   H3984     1.0  0.80517  0.59138  0.38009  1.0000
  H   H3985     1.0  0.66342  0.72375  0.06235  1.0000
  H   H3986     1.0  0.93682  0.61941  0.17513  1.0000
  C   C5001     1.0  0.55458  0.75775  0.14456  1.0000
  C   C5002     1.0  0.55157  0.69295  0.15611  1.0000
  H   H3987     1.0  0.83560  0.76065  0.15087  1.0000
  C   C5003     1.0  0.75931  0.59120  0.19000  1.0000
  C   C5004     1.0  0.61813  0.65651  0.35946  1.0000
  P   P166      1.0  0.75107  0.61234  0.17382  1.0000
  C   C5005     1.0  0.73233  0.62705  0.18714  1.0000
  C   C5006     1.0  0.76906  0.62588  0.16271  1.0000
  C   C5007     1.0  0.76674  0.64041  0.14688  1.0000
  C   C5008     1.0  0.78113  0.64995  0.13733  1.0000
  C   C5009     1.0  0.79785  0.64520  0.14360  1.0000
  C   C5010     1.0  0.79997  0.63150  0.15982  1.0000
  C   C5011     1.0  0.78552  0.62208  0.16953  1.0000
  C   C5012     1.0  0.73661  0.63628  0.19888  1.0000
  C   C5013     1.0  0.72229  0.64720  0.20985  1.0000
  C   C5014     1.0  0.70365  0.64923  0.20896  1.0000
  C   C5015     1.0  0.69926  0.63995  0.19748  1.0000
  C   C5016     1.0  0.71350  0.62866  0.18681  1.0000
  C   C5017     1.0  0.74424  0.60619  0.15533  1.0000
  C   C5018     1.0  0.73299  0.61975  0.14397  1.0000
  C   C5019     1.0  0.72904  0.61554  0.12867  1.0000
  C   C5020     1.0  0.73603  0.59769  0.12471  1.0000
  H   H3988     1.0  0.66624  0.73466  0.23637  1.0000
  C   C5021     1.0  0.75123  0.58821  0.15119  1.0000
  C   C5022     1.0  0.90476  0.64824  0.40753  1.0000
  C   C5023     1.0  0.86009  0.59130  0.31339  1.0000
  C   C5024     1.0  0.94978  0.59768  0.19552  1.0000
  H   H3989     1.0  0.73355  0.59306  0.21118  1.0000
  C   C5025     1.0  0.55559  0.60142  0.39631  1.0000
  H   H3990     1.0  0.75395  0.64447  0.14170  1.0000
  H   H3991     1.0  0.77936  0.66094  0.12498  1.0000
  H   H3992     1.0  0.80916  0.65219  0.13599  1.0000
  H   H3993     1.0  0.81295  0.62807  0.16465  1.0000
  H   H3994     1.0  0.78746  0.61170  0.18213  1.0000
  H   H3995     1.0  0.75101  0.63502  0.19956  1.0000
  H   H3996     1.0  0.72561  0.65425  0.21893  1.0000
  H   H3997     1.0  0.69262  0.65812  0.21707  1.0000
  H   H3998     1.0  0.68478  0.64173  0.19672  1.0000
  H   H3999     1.0  0.70975  0.62134  0.17829  1.0000
  H   H4000     1.0  0.72732  0.63369  0.14678  1.0000
  H   H4001     1.0  0.72047  0.62616  0.11990  1.0000
  H   H4002     1.0  0.66513  0.77286  0.02113  1.0000
  H   H4003     1.0  0.83203  0.72929  0.25691  1.0000
  H   H4004     1.0  0.77351  0.59707  0.40054  1.0000
  H   H4005     1.0  0.88697  0.58619  0.22104  1.0000
  H   H4006     1.0  0.72191  0.62942  0.25327  1.0000
  C   C5026     1.0  0.74719  0.68382  0.19559  1.0000
  C   C5027     1.0  0.75243  0.68844  0.17605  1.0000
  C   C5028     1.0  0.77107  0.68316  0.16707  1.0000
  C   C5029     1.0  0.78457  0.67334  0.17768  1.0000
  C   C5030     1.0  0.77952  0.66914  0.19738  1.0000
  C   C5031     1.0  0.76066  0.67408  0.20628  1.0000
  P   P167      1.0  0.79676  0.65593  0.21102  1.0000
  C   C5032     1.0  0.79886  0.63140  0.21172  1.0000
  C   C5033     1.0  0.81873  0.66360  0.20243  1.0000
  C   C5034     1.0  0.83446  0.65267  0.20946  1.0000
  C   C5035     1.0  0.85121  0.65893  0.20443  1.0000
  C   C5036     1.0  0.85221  0.67661  0.19303  1.0000
  C   C5037     1.0  0.83635  0.68806  0.18683  1.0000
  C   C5038     1.0  0.81969  0.68158  0.19129  1.0000
  C   C5039     1.0  0.78360  0.62276  0.22083  1.0000
  C   C5040     1.0  0.78537  0.60360  0.22193  1.0000
  C   C5041     1.0  0.80239  0.59292  0.21430  1.0000
  C   C5042     1.0  0.81737  0.60156  0.20468  1.0000
  C   C5043     1.0  0.81552  0.62078  0.20304  1.0000
  C   C5044     1.0  0.78990  0.66098  0.23419  1.0000
  C   C5045     1.0  0.79046  0.64660  0.25036  1.0000
  C   C5046     1.0  0.78802  0.65100  0.26783  1.0000
  C   C5047     1.0  0.78557  0.66960  0.26918  1.0000
  C   C5048     1.0  0.78475  0.68395  0.25324  1.0000
  C   C5049     1.0  0.78666  0.67968  0.23585  1.0000
  H   H4007     1.0  0.73261  0.68777  0.20230  1.0000
  H   H4008     1.0  0.74196  0.69607  0.16790  1.0000
  H   H4009     1.0  0.77503  0.68667  0.15188  1.0000
  H   H4010     1.0  0.79895  0.66919  0.17047  1.0000
  H   H4011     1.0  0.75634  0.67036  0.22143  1.0000
  H   H4012     1.0  0.83370  0.63945  0.21913  1.0000
  H   H4013     1.0  0.86332  0.65027  0.20974  1.0000
  H   H4014     1.0  0.86520  0.68152  0.18926  1.0000
  H   H4015     1.0  0.83695  0.70206  0.17869  1.0000
  H   H4016     1.0  0.80760  0.69090  0.18641  1.0000
  H   H4017     1.0  0.77043  0.63074  0.22726  1.0000
  H   H4018     1.0  0.77362  0.59693  0.22870  1.0000
  H   H4019     1.0  0.62546  0.76484  0.04665  1.0000
  H   H4020     1.0  0.79772  0.59600  0.99823  1.0000
  H   H4021     1.0  0.82717  0.62717  0.19503  1.0000
  H   H4022     1.0  0.79317  0.63202  0.24956  1.0000
  H   H4023     1.0  0.78835  0.63996  0.28030  1.0000
  H   H4024     1.0  0.78451  0.67296  0.28249  1.0000
  H   H4025     1.0  0.78290  0.69838  0.25435  1.0000
  H   H4026     1.0  0.78645  0.69087  0.22352  1.0000
  C   C5050     1.0  0.53609  0.71407  0.09877  1.0000
  C   C5051     1.0  0.55535  0.70924  0.09197  1.0000
  C   C5052     1.0  0.56761  0.71679  0.09735  1.0000
  C   C5053     1.0  0.61204  0.69868  0.15616  1.0000
  C   C5054     1.0  0.60622  0.71757  0.15726  1.0000
  C   C5055     1.0  0.59560  0.73016  0.14481  1.0000
  H   H4027     1.0  0.52660  0.70875  0.09401  1.0000
  H   H4028     1.0  0.56074  0.70003  0.08210  1.0000
  H   H4029     1.0  0.58243  0.71355  0.09122  1.0000
  H   H4030     1.0  0.62055  0.68897  0.16559  1.0000
  H   H4031     1.0  0.61029  0.72245  0.16756  1.0000
  H   H4032     1.0  0.59188  0.74486  0.14543  1.0000
  C   C5056     1.0  0.54135  0.73303  0.11744  1.0000
  H   H4033     1.0  0.83350  0.67180  0.42363  1.0000
  H   H4034     1.0  0.84225  0.60175  0.15619  1.0000
  C   C5057     1.0  0.95756  0.59829  0.16212  1.0000
  C   C5058     1.0  0.85890  0.65135  0.42791  1.0000
  H   H4035     1.0  0.74028  0.77195  0.09836  1.0000
  H   H4036     1.0  0.55413  0.70860  0.17498  1.0000
  C   C5059     1.0  0.86068  0.63787  0.46058  1.0000
  H   H4037     1.0  0.68259  0.59450  0.29501  1.0000
  H   H4038     1.0  0.71511  0.77092  0.08386  1.0000
  H   H4039     1.0  0.82935  0.77098  0.20547  1.0000
  C   C5060     1.0  0.66217  0.59422  0.26823  1.0000
  C   C5061     1.0  0.56315  0.61461  0.38148  1.0000
  C   C5062     1.0  0.58228  0.61453  0.37759  1.0000
  H   H4040     1.0  0.89330  0.60345  0.07211  1.0000
  H   H4041     1.0  0.68532  0.74606  0.03817  1.0000
  H   H4042     1.0  0.53528  0.68525  0.00308  1.0000
  H   H4043     1.0  0.84711  0.76519  0.30279  1.0000
  C   C5063     1.0  0.63334  0.68166  0.02027  1.0000
  H   H4044     1.0  0.63040  0.62219  0.43602  1.0000
  S   S691      1.0  0.74727  0.76156  0.27830  1.0000
  H   H4045     1.0  0.55430  0.62440  0.37244  1.0000
  H   H4046     1.0  0.58792  0.62416  0.36527  1.0000
  H   H4047     1.0  0.69356  0.77733  0.12975  1.0000
  Fe  Fe347     1.0  0.56021  0.73955  0.98628  1.0000
  C   C5064     1.0  0.90691  0.59822  0.07563  1.0000
  C   C5065     1.0  0.62122  0.62329  0.25400  1.0000
  C   C5066     1.0  0.92216  0.77338  0.40589  1.0000
  H   H4048     1.0  0.79292  0.59049  0.05733  1.0000
  H   H4049     1.0  0.81324  0.61391  0.35039  1.0000
  H   H4050     1.0  0.64366  0.70401  0.02423  1.0000
  C   C5067     1.0  0.67864  0.73407  0.10191  1.0000
  C   C5068     1.0  0.71355  0.73867  0.07261  1.0000
  H   H4051     1.0  0.75592  0.76602  0.35514  1.0000
  H   H4052     1.0  0.84783  0.60419  0.11821  1.0000
  C   C5069     1.0  0.68886  0.63874  0.34980  1.0000
  C   C5070     1.0  0.68433  0.65810  0.34880  1.0000
  C   C5071     1.0  0.69726  0.66709  0.35103  1.0000
  C   C5072     1.0  0.71460  0.65663  0.35469  1.0000
  H   H4053     1.0  0.67881  0.63205  0.34768  1.0000
  H   H4054     1.0  0.67095  0.66629  0.34578  1.0000
  H   H4055     1.0  0.69385  0.68222  0.34967  1.0000
  H   H4056     1.0  0.72462  0.66374  0.35623  1.0000
  C   C5073     1.0  0.76793  0.59124  0.32773  1.0000
  C   C5074     1.0  0.64515  0.59086  0.23017  1.0000
  H   H4057     1.0  0.53733  0.77109  0.16708  1.0000
  C   C5075     1.0  0.67554  0.71245  0.06357  1.0000
  C   C5076     1.0  0.58522  0.75608  0.07710  1.0000
  C   C5077     1.0  0.76795  0.63544  0.36504  1.0000
  C   C5078     1.0  0.70313  0.60013  0.33465  1.0000
  H   H4058     1.0  0.95526  0.76824  0.34568  1.0000
  S   S692      1.0  0.56266  0.76829  0.98703  1.0000
  C   C5079     1.0  0.61615  0.78304  0.99842  1.0000
  H   H4059     1.0  0.56626  0.68613  0.15374  1.0000
  H   H4060     1.0  0.60988  0.67005  0.36195  1.0000
  C   C5080     1.0  0.79340  0.59471  0.02789  1.0000
  H   H4061     1.0  0.81200  0.59666  0.29797  1.0000
  H   H4062     1.0  0.63606  0.59014  0.45584  1.0000
  C   C5081     1.0  0.68396  0.74314  0.11309  1.0000
  H   H4063     1.0  0.52606  0.59753  0.43208  1.0000
  H   H4064     1.0  0.51339  0.59754  0.46553  1.0000
  C   C5082     1.0  0.67585  0.75550  0.06446  1.0000
  H   H4065     1.0  0.89366  0.62859  0.37718  1.0000
  C   C5083     1.0  0.64612  0.72952  0.26208  1.0000
  C   C5084     1.0  0.63977  0.73193  0.28060  1.0000
  C   C5085     1.0  0.59389  0.60165  0.38908  1.0000
  C   C5086     1.0  0.83232  0.75718  0.25803  1.0000
  C   C5087     1.0  0.66959  0.74789  0.25716  1.0000
  C   C5088     1.0  0.66112  0.73725  0.25048  1.0000
  P   P168      1.0  0.68937  0.75726  0.24232  1.0000
  C   C5089     1.0  0.72488  0.72963  0.08574  1.0000
  C   C5090     1.0  0.70923  0.73810  0.24507  1.0000
  C   C5091     1.0  0.71925  0.73590  0.25898  1.0000
  C   C5092     1.0  0.73313  0.71981  0.26259  1.0000
  C   C5093     1.0  0.73667  0.70554  0.25277  1.0000
  C   C5094     1.0  0.72681  0.70766  0.23886  1.0000
  C   C5095     1.0  0.71313  0.72383  0.23501  1.0000
  H   H4066     1.0  0.85560  0.72147  0.39462  1.0000
  C   C5096     1.0  0.68658  0.76439  0.21831  1.0000
  H   H4067     1.0  0.65870  0.71845  0.10112  1.0000
  H   H4068     1.0  0.62354  0.62707  0.40487  1.0000
  C   C5097     1.0  0.72120  0.74947  0.05544  1.0000
  H   H4069     1.0  0.87665  0.65632  0.98576  1.0000
  C   C5098     1.0  0.70234  0.76331  0.20355  1.0000
  H   H4070     1.0  0.63975  0.72125  0.25678  1.0000
  H   H4071     1.0  0.62849  0.72549  0.28978  1.0000
  C   C5099     1.0  0.74065  0.59039  0.04173  1.0000
  H   H4072     1.0  0.75351  0.73414  0.22014  1.0000
  C   C5100     1.0  0.73963  0.75183  0.05185  1.0000
  C   C5101     1.0  0.68431  0.58502  0.32409  1.0000
  H   H4073     1.0  0.74083  0.71821  0.27332  1.0000
  H   H4074     1.0  0.74662  0.69261  0.25628  1.0000
  H   H4075     1.0  0.72910  0.69635  0.23173  1.0000
  H   H4076     1.0  0.70498  0.72475  0.22482  1.0000
  S   S693      1.0  0.77734  0.77994  0.14021  1.0000
  C   C5102     1.0  0.58906  0.68081  0.98432  1.0000
  C   C5103     1.0  0.51225  0.78065  0.08930  1.0000
  C   C5104     1.0  0.86835  0.63873  0.44143  1.0000
  C   C5105     1.0  0.64852  0.74199  0.28753  1.0000
  Fe  Fe348     1.0  0.55702  0.59432  0.34550  1.0000
  H   H4077     1.0  0.71636  0.75899  0.20629  1.0000
  C   C5106     1.0  0.87729  0.64596  0.99874  1.0000
  C   C5107     1.0  0.88646  0.62738  0.99818  1.0000
  C   C5108     1.0  0.88750  0.61405  0.01489  1.0000
  C   C5109     1.0  0.87960  0.61933  0.03215  1.0000
  C   C5110     1.0  0.87054  0.63800  0.03289  1.0000
  C   C5111     1.0  0.86941  0.65130  0.01603  1.0000
  P   P169      1.0  0.86231  0.64487  0.05536  1.0000
  C   C5112     1.0  0.85207  0.62642  0.07222  1.0000
  C   C5113     1.0  0.88156  0.64885  0.06268  1.0000
  C   C5114     1.0  0.87784  0.65894  0.07689  1.0000
  C   C5115     1.0  0.89250  0.66142  0.08336  1.0000
  C   C5116     1.0  0.91104  0.65400  0.07557  1.0000
  C   C5117     1.0  0.91491  0.64442  0.06103  1.0000
  C   C5118     1.0  0.90025  0.64187  0.05455  1.0000
  C   C5119     1.0  0.85446  0.62154  0.09083  1.0000
  C   C5120     1.0  0.84598  0.60769  0.10386  1.0000
  H   H4078     1.0  0.76778  0.77835  0.23259  1.0000
  C   C5121     1.0  0.83623  0.61739  0.38652  1.0000
  C   C5122     1.0  0.84100  0.61725  0.06689  1.0000
  C   C5123     1.0  0.84484  0.66651  0.05412  1.0000
  C   C5124     1.0  0.82584  0.66656  0.06220  1.0000
  C   C5125     1.0  0.81270  0.68352  0.06211  1.0000
  C   C5126     1.0  0.81841  0.70055  0.05401  1.0000
  C   C5127     1.0  0.83728  0.70063  0.04595  1.0000
  C   C5128     1.0  0.85045  0.68371  0.04604  1.0000
  H   H4079     1.0  0.75176  0.72547  0.09260  1.0000
  C   C5129     1.0  0.61619  0.76025  0.05980  1.0000
  H   H4080     1.0  0.89496  0.59968  0.01456  1.0000
  H   H4081     1.0  0.88114  0.60891  0.04489  1.0000
  H   H4082     1.0  0.86274  0.66581  0.01612  1.0000
  H   H4083     1.0  0.86356  0.66457  0.08330  1.0000
  H   H4084     1.0  0.88941  0.66879  0.09470  1.0000
  H   H4085     1.0  0.92238  0.65536  0.08104  1.0000
  H   H4086     1.0  0.92926  0.63831  0.05527  1.0000
  H   H4087     1.0  0.90366  0.63388  0.04370  1.0000
  H   H4088     1.0  0.86268  0.62848  0.09549  1.0000
  H   H4089     1.0  0.87572  0.74578  0.31272  1.0000
  C   C5130     1.0  0.98503  0.77055  0.45208  1.0000
  H   H4090     1.0  0.63392  0.67341  0.03432  1.0000
  H   H4091     1.0  0.83881  0.62095  0.05265  1.0000
  H   H4092     1.0  0.82108  0.65364  0.06898  1.0000
  H   H4093     1.0  0.79811  0.68349  0.06862  1.0000
  H   H4094     1.0  0.80826  0.71369  0.05420  1.0000
  H   H4095     1.0  0.84174  0.71385  0.03993  1.0000
  H   H4096     1.0  0.86509  0.68403  0.04011  1.0000
  C   C5131     1.0  0.84276  0.75075  0.16133  1.0000
  C   C5132     1.0  0.86040  0.73981  0.15572  1.0000
  C   C5133     1.0  0.86928  0.72650  0.16912  1.0000
  C   C5134     1.0  0.86044  0.72397  0.18812  1.0000
  C   C5135     1.0  0.84251  0.73466  0.19388  1.0000
  C   C5136     1.0  0.83389  0.74829  0.18031  1.0000
  P   P170      1.0  0.83018  0.73048  0.21820  1.0000
  C   C5137     1.0  0.84063  0.70755  0.23022  1.0000
  C   C5138     1.0  0.83132  0.74814  0.22975  1.0000
  C   C5139     1.0  0.72784  0.59166  0.07443  1.0000
  C   C5140     1.0  0.51577  0.60953  0.43618  1.0000
  H   H4097     1.0  0.86767  0.66805  0.36363  1.0000
  H   H4098     1.0  0.54402  0.76153  0.05482  1.0000
  C   C5141     1.0  0.83201  0.74347  0.24889  1.0000
  C   C5142     1.0  0.85770  0.70484  0.23562  1.0000
  C   C5143     1.0  0.86628  0.68700  0.24417  1.0000
  C   C5144     1.0  0.85784  0.67176  0.24750  1.0000
  C   C5145     1.0  0.84065  0.67441  0.24256  1.0000
  C   C5146     1.0  0.83215  0.69220  0.23380  1.0000
  C   C5147     1.0  0.80585  0.73148  0.21897  1.0000
  C   C5148     1.0  0.80080  0.72633  0.20475  1.0000
  C   C5149     1.0  0.78204  0.72721  0.20522  1.0000
  H   H4099     1.0  0.73846  0.58634  0.37860  1.0000
  C   C5150     1.0  0.77298  0.73825  0.23423  1.0000
  C   C5151     1.0  0.79177  0.73745  0.23375  1.0000
  H   H4100     1.0  0.49328  0.74799  0.07320  1.0000
  H   H4101     1.0  0.86702  0.74142  0.14094  1.0000
  H   H4102     1.0  0.88287  0.71783  0.16474  1.0000
  H   H4103     1.0  0.86752  0.71330  0.19807  1.0000
  H   H4104     1.0  0.81996  0.75654  0.18424  1.0000
  S   S694      1.0  0.73469  0.78034  0.13912  1.0000
  H   H4105     1.0  0.57064  0.75754  0.07708  1.0000
  C   C5152     1.0  0.66481  0.77185  0.03580  1.0000
  H   H4106     1.0  0.86452  0.71648  0.23303  1.0000
  H   H4107     1.0  0.87948  0.68497  0.24826  1.0000
  H   H4108     1.0  0.86470  0.65793  0.25392  1.0000
  H   H4109     1.0  0.83399  0.66265  0.24525  1.0000
  H   H4110     1.0  0.81916  0.69386  0.22959  1.0000
  H   H4111     1.0  0.81125  0.72193  0.19305  1.0000
  H   H4112     1.0  0.77844  0.72318  0.19409  1.0000
  C   C5153     1.0  0.85748  0.71306  0.36900  1.0000
  C   C5154     1.0  0.71920  0.63722  0.35570  1.0000
  H   H4113     1.0  0.79523  0.74156  0.24490  1.0000
  C   C5155     1.0  0.52910  0.72605  0.11140  1.0000
  S   S695      1.0  0.75540  0.74760  0.16936  1.0000
  C   C5156     1.0  0.83500  0.59861  0.09851  1.0000
  C   C5157     1.0  0.68753  0.59905  0.38804  1.0000
  H   H4114     1.0  0.89879  0.65798  0.41686  1.0000
  S   S696      1.0  0.71685  0.73578  0.15248  1.0000
  C   C5158     1.0  0.73341  0.62050  0.25942  1.0000
  S   S697      1.0  0.50864  0.77990  0.11332  1.0000
  C   C5159     1.0  0.86492  0.67958  0.37057  1.0000
  C   C5160     1.0  0.62608  0.61295  0.41311  1.0000
  S   S698      1.0  0.96176  0.70754  0.41801  1.0000
  H   H4115     1.0  0.82891  0.61148  0.23746  1.0000
  C   C5161     1.0  0.91966  0.77060  0.38924  1.0000
  H   H4116     1.0  0.52382  0.72278  0.99158  1.0000
  C   C5162     1.0  0.75490  0.59038  0.26474  1.0000
  C   C5163     1.0  0.70660  0.61139  0.31655  1.0000
  C   C5164     1.0  0.83367  0.66157  0.45299  1.0000
  C   C5165     1.0  0.69103  0.68060  0.06077  1.0000
  C   C5166     1.0  0.63765  0.70980  0.99667  1.0000
  C   C5167     1.0  0.87086  0.75971  0.31559  1.0000
  C   C5168     1.0  0.49754  0.58692  0.41412  1.0000
  C   C5169     1.0  0.82025  0.64454  0.29996  1.0000
  C   C5170     1.0  0.68837  0.59589  0.30605  1.0000
  C   C5171     1.0  0.81419  0.61011  0.29849  1.0000
  C   C5172     1.0  0.80679  0.63634  0.31403  1.0000
  C   C5173     1.0  0.80370  0.61916  0.31304  1.0000
  C   C5174     1.0  0.80058  0.69081  0.35111  1.0000
  S   S699      1.0  0.76825  0.74716  0.12365  1.0000
  H   H4117     1.0  0.59817  0.59309  0.32570  1.0000
  H   H4118     1.0  0.50996  0.73721  0.04386  1.0000
  C   C5175     1.0  0.60623  0.58710  0.23198  1.0000
  C   C5176     1.0  0.84340  0.64935  0.46636  1.0000
  S   S700      1.0  0.94087  0.68580  0.38845  1.0000
  C   C5177     1.0  0.82805  0.61806  0.28492  1.0000
  C   C5178     1.0  0.79201  0.67886  0.34648  1.0000
  H   H4119     1.0  0.83676  0.61064  0.27413  1.0000
  C   C5179     1.0  0.53943  0.68884  0.14743  1.0000
  H   H4120     1.0  0.65220  0.73340  0.15379  1.0000
  Fe  Fe349     1.0  0.74177  0.74904  0.14590  1.0000
  C   C5180     1.0  0.86106  0.69795  0.36026  1.0000
  H   H4121     1.0  0.74061  0.59632  0.02700  1.0000
  H   H4122     1.0  0.55598  0.68202  0.02491  1.0000
  H   H4123     1.0  0.82927  0.60921  0.38186  1.0000
  P   P171      1.0  0.61876  0.60101  0.38406  1.0000
  C   C5181     1.0  0.64752  0.60689  0.21595  1.0000
  Fe  Fe350     1.0  0.75016  0.77891  0.16108  1.0000
  H   H4124     1.0  0.70203  0.61783  0.28837  1.0000
  H   H4125     1.0  0.77689  0.68172  0.34896  1.0000
  H   H4126     1.0  0.79216  0.70303  0.35647  1.0000
  C   C5182     1.0  0.86212  0.69136  0.39825  1.0000
  H   H4127     1.0  0.77539  0.58859  0.28053  1.0000
  H   H4128     1.0  0.67079  0.75658  0.28193  1.0000
  C   C5183     1.0  0.74010  0.60208  0.25670  1.0000
  S   S701      1.0  0.78673  0.77061  0.28161  1.0000
  H   H4129     1.0  0.71230  0.76593  0.17379  1.0000
  H   H4130     1.0  0.64540  0.78274  0.98665  1.0000
  H   H4131     1.0  0.60205  0.64094  0.38347  1.0000
  H   H4132     1.0  0.75763  0.64795  0.36124  1.0000
  C   C5184     1.0  0.70640  0.62818  0.35301  1.0000
  C   C5185     1.0  0.66498  0.60795  0.20398  1.0000
  H   H4133     1.0  0.83049  0.59333  0.19856  1.0000
  C   C5186     1.0  0.84029  0.59936  0.23800  1.0000
  C   C5187     1.0  0.65361  0.72537  0.12803  1.0000
  C   C5188     1.0  0.58609  0.58850  0.40407  1.0000
  C   C5189     1.0  0.54327  0.77299  0.15215  1.0000
  H   H4134     1.0  0.88155  0.62943  0.43725  1.0000
  C   C5190     1.0  0.55806  0.77782  0.11351  1.0000
  H   H4135     1.0  0.71661  0.66987  0.07108  1.0000
  C   C5191     1.0  0.83108  0.63525  0.28568  1.0000
  H   H4136     1.0  0.69381  0.59406  0.19683  1.0000
  H   H4137     1.0  0.81833  0.59719  0.14187  1.0000
  C   C5192     1.0  0.58119  0.68038  0.00344  1.0000
  C   C5193     1.0  0.50952  0.62474  0.42250  1.0000
  C   C5194     1.0  0.85180  0.60850  0.39451  1.0000
  Fe  Fe351     1.0  0.77285  0.77406  0.31106  1.0000
  H   H4138     1.0  0.90167  0.77795  0.36948  1.0000
  C   C5195     1.0  0.67609  0.69584  0.05839  1.0000
  Fe  Fe352     1.0  0.96072  0.73725  0.40175  1.0000
  H   H4139     1.0  0.64762  0.60024  0.27325  1.0000
  H   H4140     1.0  0.70133  0.60632  0.23816  1.0000
  C   C5196     1.0  0.90179  0.63166  0.38539  1.0000
  C   C5197     1.0  0.85464  0.77081  0.30967  1.0000
  C   C5198     1.0  0.93225  0.62919  0.39156  1.0000
  H   H4141     1.0  0.87057  0.59967  0.30660  1.0000
  C   C5199     1.0  0.75063  0.74323  0.06526  1.0000
  H   H4142     1.0  0.71597  0.69898  0.07997  1.0000
  H   H4143     1.0  0.82261  0.65792  0.30018  1.0000
  H   H4144     1.0  0.81796  0.64366  0.37782  1.0000
  C   C5200     1.0  0.76356  0.59738  0.27485  1.0000
  H   H4145     1.0  0.59344  0.69970  0.11960  1.0000
  C   C5201     1.0  0.67358  0.60528  0.25465  1.0000
  C   C5202     1.0  0.69944  0.60906  0.30228  1.0000
  H   H4146     1.0  0.85446  0.72734  0.36102  1.0000
  C   C5203     1.0  0.63884  0.69891  0.01459  1.0000
  H   H4147     1.0  0.64707  0.60837  0.34909  1.0000
  C   C5204     1.0  0.85837  0.60065  0.22759  1.0000
  H   H4148     1.0  0.77628  0.59268  0.31354  1.0000
  H   H4149     1.0  0.86124  0.61384  0.21873  1.0000
  C   C5205     1.0  0.70540  0.68191  0.06846  1.0000
  H   H4150     1.0  0.69110  0.66755  0.05732  1.0000
  S   S702      1.0  0.85633  0.60504  0.34482  1.0000
  H   H4151     1.0  0.59183  0.76876  0.04764  1.0000
  C   C5206     1.0  0.61123  0.74574  0.09298  1.0000
  C   C5207     1.0  0.92054  0.77939  0.31257  1.0000
  H   H4152     1.0  0.64408  0.74319  0.30212  1.0000
  H   H4153     1.0  0.68269  0.61413  0.38510  1.0000
  C   C5208     1.0  0.72188  0.78273  0.07885  1.0000
  H   H4154     1.0  0.72521  0.76139  0.35349  1.0000
  C   C5209     1.0  0.59720  0.76240  0.06033  1.0000
  C   C5210     1.0  0.92409  0.64115  0.40416  1.0000
  C   C5211     1.0  0.62321  0.75181  0.07609  1.0000
  H   H4155     1.0  0.58973  0.67916  0.01324  1.0000
  C   C5212     1.0  0.85813  0.70975  0.38794  1.0000
  H   H4156     1.0  0.66423  0.76975  0.08775  1.0000
  C   C5213     1.0  0.69251  0.59770  0.24870  1.0000
  H   H4157     1.0  0.59862  0.59694  0.18744  1.0000
  H   H4158     1.0  0.74978  0.62541  0.39101  1.0000
  H   H4159     1.0  0.94731  0.62437  0.38833  1.0000
  H   H4160     1.0  0.86296  0.68911  0.41279  1.0000
  H   H4161     1.0  0.94169  0.60401  0.20730  1.0000
  C   C5214     1.0  0.60894  0.59359  0.21239  1.0000
  H   H4162     1.0  0.51134  0.69409  0.14368  1.0000
  C   C5215     1.0  0.67433  0.74301  0.13169  1.0000
  H   H4163     1.0  0.64150  0.72340  0.99243  1.0000
  H   H4164     1.0  0.67901  0.74931  0.14048  1.0000
  H   H4165     1.0  0.73378  0.59689  0.24839  1.0000
  C   C5216     1.0  0.70495  0.69853  0.07354  1.0000
  H   H4166     1.0  0.67227  0.75184  0.34338  1.0000
  C   C5217     1.0  0.63903  0.62162  0.35249  1.0000
  H   H4167     1.0  0.86322  0.76023  0.39762  1.0000
  C   C5218     1.0  0.61378  0.63998  0.37162  1.0000
  C   C5219     1.0  0.65925  0.73400  0.13921  1.0000
  C   C5220     1.0  0.66326  0.72536  0.10948  1.0000
  P   P172      1.0  0.68976  0.73553  0.07739  1.0000
  C   C5221     1.0  0.67620  0.75673  0.04548  1.0000
  H   H4168     1.0  0.83275  0.75340  0.27283  1.0000
  H   H4169     1.0  0.72087  0.77359  0.24220  1.0000
  C   C5222     1.0  0.80365  0.59044  0.01067  1.0000
  H   H4170     1.0  0.75893  0.77367  0.20471  1.0000
  H   H4171     1.0  0.86812  0.62823  0.47093  1.0000
  C   C5223     1.0  0.62448  0.68658  0.99033  1.0000
  C   C5224     1.0  0.74756  0.58508  0.20717  1.0000
  H   H4172     1.0  0.61162  0.77443  0.11812  1.0000
  C   C5225     1.0  0.63000  0.61024  0.43086  1.0000
  H   H4173     1.0  0.91129  0.78230  0.30292  1.0000
  C   C5226     1.0  0.70011  0.76746  0.18502  1.0000
  H   H4174     1.0  0.66816  0.59542  0.41467  1.0000
  H   H4175     1.0  0.56304  0.78000  0.09848  1.0000
  C   C5227     1.0  0.62520  0.59761  0.40640  1.0000
  C   C5228     1.0  0.72653  0.77490  0.35483  1.0000
  H   H4176     1.0  0.85441  0.59418  0.99944  1.0000
  C   C5229     1.0  0.74380  0.77750  0.35579  1.0000
  C   C5230     1.0  0.80096  0.58730  0.04396  1.0000
  C   C5231     1.0  0.73608  0.78337  0.08719  1.0000
  C   C5232     1.0  0.83047  0.78064  0.22932  1.0000
  C   C5233     1.0  0.49308  0.77202  0.17405  1.0000
  H   H4177     1.0  0.82833  0.58797  0.10874  1.0000
  C   C5234     1.0  0.63320  0.59220  0.44202  1.0000
  H   H4178     1.0  0.85391  0.58434  0.04389  1.0000
  H   H4179     1.0  0.50328  0.59357  0.39997  1.0000
  C   C5235     1.0  0.82584  0.58533  0.15054  1.0000
  C   C5236     1.0  0.67914  0.58845  0.40483  1.0000
  C   C5237     1.0  0.51903  0.78224  0.05064  1.0000
  C   C5238     1.0  0.70782  0.78240  0.24769  1.0000
  S   S703      1.0  0.52352  0.78355  0.02643  1.0000
  H   H4180     1.0  0.64231  0.78172  0.11613  1.0000
  C   C5239     1.0  0.94206  0.58488  0.08495  1.0000
  P   P173      1.0  0.48886  0.72183  0.16623  1.0000
  H   H4181     1.0  0.50164  0.78232  0.16724  1.0000
  C   C5240     1.0  0.86647  0.58411  0.99422  1.0000
  C   C5241     1.0  0.62326  0.71651  0.91577  1.0000
  H   H4182     1.0  0.53740  0.63156  0.50672  1.0000
  C   C5242     1.0  0.53151  0.72941  0.96142  1.0000
  H   H4183     1.0  0.59321  0.71542  0.95813  1.0000
  C   C5243     1.0  0.51513  0.76380  0.89874  1.0000
  C   C5244     1.0  0.52678  0.72917  0.94471  1.0000
  H   H4184     1.0  0.52573  0.66572  0.50544  1.0000
  H   H4185     1.0  0.61591  0.61480  0.96962  1.0000
  H   H4186     1.0  0.65213  0.65754  0.97679  1.0000
  C   C5245     1.0  0.51779  0.65785  0.50158  1.0000
  S   S704      1.0  0.55202  0.73728  0.96013  1.0000
  C   C5246     1.0  0.60793  0.72211  0.92962  1.0000
  H   H4187     1.0  0.50837  0.72084  0.93224  1.0000
  H   H4188     1.0  0.66734  0.62467  0.97517  1.0000
  H   H4189     1.0  0.62535  0.72533  0.90181  1.0000
  C   C5247     1.0  0.50440  0.76924  0.88501  1.0000
  C   C5248     1.0  0.98541  0.69774  0.62077  1.0000
  H   H4190     1.0  0.49477  0.76082  0.88512  1.0000
  C   C5249     1.0  0.51139  0.72173  0.94516  1.0000
  H   H4191     1.0  0.87790  0.60504  0.97172  1.0000
  C   C5250     1.0  0.61502  0.64275  0.97223  1.0000
  H   H4192     1.0  0.51375  0.75119  0.90947  1.0000
  H   H4193     1.0  0.97174  0.70511  0.62691  1.0000
  H   H4194     1.0  0.64309  0.67507  0.94092  1.0000
  C   C5251     1.0  0.63588  0.69954  0.91995  1.0000
  H   H4195     1.0  0.83749  0.64867  0.48121  1.0000
  C   C5252     1.0  0.52795  0.77433  0.89830  1.0000
  C   C5253     1.0  0.60520  0.71078  0.94762  1.0000
  H   H4196     1.0  0.64779  0.69523  0.90922  1.0000
  C   C5254     1.0  0.51406  0.62843  0.49739  1.0000
  C   C5255     1.0  0.63314  0.68812  0.93796  1.0000
  H   H4197     1.0  0.53547  0.73415  0.93136  1.0000
  C   C5256     1.0  0.52433  0.63860  0.50234  1.0000
  C   C5257     1.0  0.61770  0.69361  0.95191  1.0000
  H   H4198     1.0  0.59803  0.73522  0.92649  1.0000
  H   H4199     1.0  0.58285  0.68291  0.95728  1.0000
  C   C5258     1.0  0.49700  0.63743  0.49192  1.0000
  C   C5259     1.0  0.50105  0.66698  0.49568  1.0000
  H   H4200     1.0  0.51943  0.61358  0.49778  1.0000
  H   H4201     1.0  0.53669  0.76969  0.90864  1.0000
  C   C5260     1.0  0.87987  0.59037  0.97865  1.0000
  C   C5261     1.0  0.50083  0.71406  0.96238  1.0000
  H   H4202     1.0  0.98070  0.67045  0.63639  1.0000
  H   H4203     1.0  0.52639  0.77658  0.94341  1.0000
  H   H4204     1.0  0.60045  0.64749  0.97127  1.0000
  H   H4205     1.0  0.54884  0.68588  0.96932  1.0000
  H   H4206     1.0  0.62951  0.71255  0.97088  1.0000
  C   C5262     1.0  0.50533  0.71469  0.97909  1.0000
  C   C5263     1.0  0.65272  0.62972  0.97438  1.0000
  C   C5264     1.0  0.62376  0.62416  0.97124  1.0000
  C   C5265     1.0  0.62503  0.65493  0.97451  1.0000
  P   P174      1.0  0.61403  0.67911  0.97528  1.0000
  C   C5266     1.0  0.49720  0.77556  0.95398  1.0000
  C   C5267     1.0  0.57724  0.68254  0.97210  1.0000
  C   C5268     1.0  0.64259  0.61762  0.97236  1.0000
  C   C5269     1.0  0.64402  0.64832  0.97537  1.0000
  H   H4207     1.0  0.64932  0.60319  0.97163  1.0000
  C   C5270     1.0  0.52037  0.72264  0.97863  1.0000
  H   H4208     1.0  0.49577  0.77161  0.94172  1.0000
  C   C5271     1.0  0.51440  0.77846  0.95486  1.0000
  H   H4209     1.0  0.49607  0.68194  0.49490  1.0000
  C   C5272     1.0  0.55794  0.68408  0.97888  1.0000
  C   C5273     1.0  0.49076  0.65685  0.49071  1.0000
  C   C5274     1.0  0.51629  0.78324  0.97081  1.0000
  S   S705      1.0  0.97983  0.92864  0.29182  1.0000
  C   C5275     1.0  0.52334  0.89831  0.14735  1.0000
  H   H4210     1.0  0.68470  0.90076  0.98829  1.0000
  H   H4211     1.0  0.77209  0.94861  0.29205  1.0000
  S   S706      1.0  0.75842  0.81123  0.24951  1.0000
  H   H4212     1.0  0.87595  0.94032  0.41970  1.0000
  H   H4213     1.0  0.84755  0.93211  0.35607  1.0000
  H   H4214     1.0  0.93024  0.90416  0.37618  1.0000
  C   C5276     1.0  0.65312  0.78584  0.04498  1.0000
  C   C5277     1.0  0.62202  0.98251  0.28012  1.0000
  H   H4215     1.0  0.73764  0.83555  0.22301  1.0000
  H   H4216     1.0  0.52088  0.93707  0.11885  1.0000
  S   S707      1.0  0.73459  0.79922  0.17997  1.0000
  H   H4217     1.0  0.90673  0.91814  0.40122  1.0000
  C   C5278     1.0  0.94503  0.91115  0.27792  1.0000
  Fe  Fe353     1.0  0.83125  0.86877  0.38734  1.0000
  Fe  Fe354     1.0  0.82767  0.85487  0.35371  1.0000
  S   S708      1.0  0.85851  0.84314  0.34694  1.0000
  C   C5279     1.0  0.53230  0.89639  0.12901  1.0000
  Fe  Fe355     1.0  0.86239  0.86914  0.35315  1.0000
  S   S709      1.0  0.88492  0.88394  0.33435  1.0000
  S   S710      1.0  0.83181  0.88232  0.35694  1.0000
  Fe  Fe356     1.0  0.93071  0.95651  0.34049  1.0000
  S   S711      1.0  0.96197  0.94829  0.33768  1.0000
  S   S712      1.0  0.90963  0.94285  0.36366  1.0000
  H   H4218     1.0  0.96843  0.89489  0.28998  1.0000
  C   C5280     1.0  0.50282  0.79330  0.05935  1.0000
  H   H4219     1.0  0.78625  0.84858  0.37328  1.0000
  Fe  Fe357     1.0  0.96225  0.95116  0.30725  1.0000
  C   C5281     1.0  0.96365  0.83513  0.38129  1.0000
  H   H4220     1.0  0.62006  0.95134  0.01265  1.0000
  H   H4221     1.0  0.94996  0.89236  0.32975  1.0000
  S   S713      1.0  0.93097  0.95739  0.31056  1.0000
  H   H4222     1.0  0.67891  0.82123  0.08343  1.0000
  Fe  Fe358     1.0  0.60006  0.90621  0.14071  1.0000
  S   S714      1.0  0.57955  0.91316  0.16673  1.0000
  S   S715      1.0  0.62128  0.87948  0.13784  1.0000
  Fe  Fe359     1.0  0.58411  0.94153  0.11529  1.0000
  Fe  Fe360     1.0  0.58485  0.94255  0.15516  1.0000
  S   S716      1.0  0.58815  0.96426  0.16947  1.0000
  S   S717      1.0  0.60733  0.93465  0.13083  1.0000
  S   S718      1.0  0.57860  0.91246  0.12329  1.0000
  Fe  Fe361     1.0  0.68257  0.82191  0.03812  1.0000
  S   S719      1.0  0.67421  0.82092  0.01197  1.0000
  S   S720      1.0  0.69795  0.79590  0.05480  1.0000
  Fe  Fe362     1.0  0.66145  0.86171  0.03837  1.0000
  S   S721      1.0  0.65102  0.86424  0.01256  1.0000
  S   S722      1.0  0.65336  0.88746  0.05049  1.0000
  Fe  Fe363     1.0  0.64568  0.83532  0.02519  1.0000
  S   S723      1.0  0.61755  0.82955  0.02621  1.0000
  Fe  Fe364     1.0  0.68014  0.84992  0.00141  1.0000
  H   H4223     1.0  0.93682  0.79957  0.29505  1.0000
  S   S724      1.0  0.65345  0.83409  0.05226  1.0000
  S   S725      1.0  0.69122  0.84962  0.02634  1.0000
  H   H4224     1.0  0.90614  0.94726  0.41852  1.0000
  H   H4225     1.0  0.69783  0.78784  0.35375  1.0000
  C   C5282     1.0  0.72805  0.91334  0.99640  1.0000
  C   C5283     1.0  0.72869  0.97784  0.12132  1.0000
  H   H4226     1.0  0.81375  0.92563  0.45117  1.0000
  C   C5284     1.0  0.92698  0.91194  0.27596  1.0000
  C   C5285     1.0  0.56208  0.81524  0.06779  1.0000
  H   H4227     1.0  0.87374  0.88261  0.29878  1.0000
  C   C5286     1.0  0.89433  0.95880  0.41679  1.0000
  H   H4228     1.0  0.79877  0.91099  0.43472  1.0000
  C   C5287     1.0  0.63337  0.96646  0.27406  1.0000
  C   C5288     1.0  0.89222  0.79577  0.40857  1.0000
  C   C5289     1.0  0.51047  0.87772  0.12873  1.0000
  H   H4229     1.0  0.94451  0.87065  0.38201  1.0000
  C   C5290     1.0  0.68002  0.86540  0.36762  1.0000
  C   C5291     1.0  0.54319  0.82410  0.06961  1.0000
  C   C5292     1.0  0.78899  0.81603  0.31959  1.0000
  H   H4230     1.0  0.49291  0.80248  0.05115  1.0000
  H   H4231     1.0  0.95898  0.79243  0.31632  1.0000
  H   H4232     1.0  0.61412  0.91539  0.98245  1.0000
  H   H4233     1.0  0.60928  0.87062  0.00806  1.0000
  C   C5293     1.0  0.63335  0.80360  0.00367  1.0000
  H   H4234     1.0  0.64628  0.80818  0.00127  1.0000
  C   C5294     1.0  0.63371  0.95751  0.20225  1.0000
  H   H4235     1.0  0.60867  0.90354  0.04994  1.0000
  H   H4236     1.0  0.74029  0.91675  0.99845  1.0000
  C   C5295     1.0  0.60578  0.96112  0.18216  1.0000
  C   C5296     1.0  0.61874  0.94417  0.18527  1.0000
  C   C5297     1.0  0.63249  0.94232  0.19548  1.0000
  H   H4237     1.0  0.81500  0.86365  0.45489  1.0000
  H   H4238     1.0  0.71110  0.94094  0.99727  1.0000
  H   H4239     1.0  0.61799  0.93246  0.18000  1.0000
  H   H4240     1.0  0.64229  0.92909  0.19802  1.0000
  C   C5298     1.0  0.64403  0.88430  0.07470  1.0000
  C   C5299     1.0  0.63359  0.89998  0.08192  1.0000
  C   C5300     1.0  0.62641  0.89826  0.10119  1.0000
  C   C5301     1.0  0.62982  0.88091  0.11353  1.0000
  C   C5302     1.0  0.64020  0.86508  0.10635  1.0000
  C   C5303     1.0  0.64714  0.86674  0.08685  1.0000
  H   H4241     1.0  0.63079  0.91351  0.07257  1.0000
  H   H4242     1.0  0.61836  0.91052  0.10639  1.0000
  H   H4243     1.0  0.64282  0.85159  0.11579  1.0000
  H   H4244     1.0  0.65516  0.85458  0.08126  1.0000
  C   C5304     1.0  0.91011  0.97841  0.45055  1.0000
  H   H4245     1.0  0.54254  0.80633  0.11191  1.0000
  H   H4246     1.0  0.95164  0.92310  0.27152  1.0000
  C   C5305     1.0  0.61716  0.81199  0.01499  1.0000
  H   H4247     1.0  0.75931  0.79688  0.35710  1.0000
  C   C5306     1.0  0.97477  0.89147  0.33879  1.0000
  C   C5307     1.0  0.60073  0.82198  0.10296  1.0000
  C   C5308     1.0  0.69039  0.79213  0.12337  1.0000
  C   C5309     1.0  0.82199  0.97420  0.36586  1.0000
  C   C5310     1.0  0.77641  0.83934  0.37746  1.0000
  H   H4248     1.0  0.66955  0.87295  0.35939  1.0000
  H   H4249     1.0  0.57589  0.88651  0.01095  1.0000
  S   S726      1.0  0.74603  0.79202  0.30327  1.0000
  H   H4250     1.0  0.75212  0.84129  0.28935  1.0000
  C   C5311     1.0  0.74832  0.84813  0.30118  1.0000
  H   H4251     1.0  0.97594  0.81188  0.41601  1.0000
  H   H4252     1.0  0.50307  0.78776  0.99860  1.0000
  C   C5312     1.0  0.89196  0.89920  0.34385  1.0000
  C   C5313     1.0  0.88145  0.90529  0.36024  1.0000
  C   C5314     1.0  0.88695  0.91855  0.36659  1.0000
  C   C5315     1.0  0.90312  0.92542  0.35671  1.0000
  C   C5316     1.0  0.91410  0.91843  0.34105  1.0000
  C   C5317     1.0  0.90834  0.90571  0.33445  1.0000
  H   H4253     1.0  0.86885  0.90019  0.36771  1.0000
  H   H4254     1.0  0.87852  0.92368  0.37893  1.0000
  H   H4255     1.0  0.92700  0.92294  0.33385  1.0000
  H   H4256     1.0  0.91662  0.90100  0.32195  1.0000
  H   H4257     1.0  0.87420  0.85867  0.44663  1.0000
  C   C5318     1.0  0.76319  0.84174  0.36667  1.0000
  C   C5319     1.0  0.95035  0.95463  0.41646  1.0000
  H   H4258     1.0  0.58492  0.80005  0.11080  1.0000
  H   H4259     1.0  0.89802  0.89831  0.43276  1.0000
  H   H4260     1.0  0.78555  0.82421  0.26359  1.0000
  H   H4261     1.0  0.79452  0.96788  0.15757  1.0000
  S   S727      1.0  0.86227  0.85693  0.38369  1.0000
  C   C5320     1.0  0.74498  0.79856  0.08085  1.0000
  C   C5321     1.0  0.73935  0.81331  0.06637  1.0000
  C   C5322     1.0  0.72477  0.81284  0.05829  1.0000
  C   C5323     1.0  0.71612  0.79742  0.06446  1.0000
  C   C5324     1.0  0.85338  0.97618  0.29318  1.0000
  H   H4262     1.0  0.54982  0.97086  0.07056  1.0000
  H   H4263     1.0  0.74624  0.82509  0.06146  1.0000
  H   H4264     1.0  0.72047  0.82420  0.04715  1.0000
  H   H4265     1.0  0.93649  0.80084  0.37554  1.0000
  C   C5325     1.0  0.90647  0.83084  0.43296  1.0000
  C   C5326     1.0  0.79516  0.79895  0.33119  1.0000
  Fe  Fe365     1.0  0.85558  0.83196  0.37795  1.0000
  H   H4266     1.0  0.48981  0.87284  0.15427  1.0000
  C   C5327     1.0  0.80377  0.83233  0.33389  1.0000
  C   C5328     1.0  0.81009  0.81520  0.34539  1.0000
  C   C5329     1.0  0.80569  0.79863  0.34412  1.0000
  H   H4267     1.0  0.82087  0.92099  0.37960  1.0000
  H   H4268     1.0  0.50849  0.92498  0.09814  1.0000
  H   H4269     1.0  0.81824  0.81471  0.35538  1.0000
  C   C5330     1.0  0.78495  0.98227  0.30341  1.0000
  C   C5331     1.0  0.75334  0.80730  0.22958  1.0000
  H   H4270     1.0  0.64397  0.79593  0.07065  1.0000
  Fe  Fe366     1.0  0.75937  0.78680  0.27420  1.0000
  C   C5332     1.0  0.74293  0.80188  0.19856  1.0000
  C   C5333     1.0  0.73690  0.81924  0.20389  1.0000
  C   C5334     1.0  0.74241  0.82206  0.21904  1.0000
  C   C5335     1.0  0.87712  0.95473  0.41768  1.0000
  C   C5336     1.0  0.95449  0.89513  0.28854  1.0000
  H   H4271     1.0  0.72787  0.83057  0.19628  1.0000
  C   C5337     1.0  0.93987  0.84895  0.33004  1.0000
  H   H4272     1.0  0.79449  0.94382  0.39373  1.0000
  H   H4273     1.0  0.95137  0.96071  0.42752  1.0000
  P   P175      1.0  0.58095  0.84081  0.09876  1.0000
  C   C5338     1.0  0.58879  0.86105  0.08290  1.0000
  C   C5339     1.0  0.56630  0.83434  0.08714  1.0000
  C   C5340     1.0  0.54758  0.84383  0.08803  1.0000
  C   C5341     1.0  0.53605  0.83861  0.07946  1.0000
  C   C5342     1.0  0.57369  0.82051  0.07628  1.0000
  C   C5343     1.0  0.58164  0.87912  0.08676  1.0000
  C   C5344     1.0  0.58878  0.89443  0.07490  1.0000
  C   C5345     1.0  0.56960  0.84608  0.12159  1.0000
  C   C5346     1.0  0.57824  0.85512  0.12997  1.0000
  C   C5347     1.0  0.56947  0.85985  0.14735  1.0000
  C   C5348     1.0  0.55225  0.85513  0.15676  1.0000
  C   C5349     1.0  0.54396  0.84541  0.14893  1.0000
  C   C5350     1.0  0.55263  0.84079  0.13145  1.0000
  C   C5351     1.0  0.64025  0.97361  0.13968  1.0000
  Fe  Fe367     1.0  0.55829  0.92134  0.14834  1.0000
  H   H4274     1.0  0.58841  0.81383  0.07422  1.0000
  H   H4275     1.0  0.57079  0.88147  0.09903  1.0000
  H   H4276     1.0  0.58386  0.90817  0.07841  1.0000
  H   H4277     1.0  0.59157  0.85898  0.12287  1.0000
  H   H4278     1.0  0.57584  0.86755  0.15332  1.0000
  H   H4279     1.0  0.54514  0.85940  0.16992  1.0000
  H   H4280     1.0  0.53044  0.84207  0.15609  1.0000
  H   H4281     1.0  0.54581  0.83346  0.12563  1.0000
  S   S728      1.0  0.85350  0.92091  0.45175  1.0000
  H   H4282     1.0  0.97297  0.93122  0.42200  1.0000
  H   H4283     1.0  0.92075  0.86908  0.30215  1.0000
  C   C5352     1.0  0.81384  0.90919  0.43162  1.0000
  H   H4284     1.0  0.73299  0.97028  0.11002  1.0000
  P   P176      1.0  0.95755  0.85990  0.31257  1.0000
  H   H4285     1.0  0.66350  0.92393  0.06167  1.0000
  H   H4286     1.0  0.88066  0.79089  0.33523  1.0000
  H   H4287     1.0  0.94088  0.82824  0.31448  1.0000
  H   H4288     1.0  0.57328  0.94094  0.05746  1.0000
  C   C5353     1.0  0.62859  0.95944  0.26102  1.0000
  S   S729      1.0  0.50295  0.86541  0.11605  1.0000
  C   C5354     1.0  0.80648  0.96793  0.37849  1.0000
  C   C5355     1.0  0.50165  0.87933  0.14719  1.0000
  C   C5356     1.0  0.72880  0.89528  0.99438  1.0000
  H   H4289     1.0  0.52414  0.91796  0.99745  1.0000
  C   C5357     1.0  0.91542  0.84915  0.35844  1.0000
  C   C5358     1.0  0.71309  0.89092  0.99155  1.0000
  C   C5359     1.0  0.82698  0.86363  0.46021  1.0000
  C   C5360     1.0  0.64016  0.96299  0.03628  1.0000
  C   C5361     1.0  0.50798  0.88974  0.15638  1.0000
  C   C5362     1.0  0.59306  0.96471  0.00634  1.0000
  H   H4290     1.0  0.64442  0.79759  0.03754  1.0000
  C   C5363     1.0  0.52457  0.94174  0.10371  1.0000
  C   C5364     1.0  0.77950  0.97766  0.32297  1.0000
  H   H4291     1.0  0.98174  0.82994  0.35508  1.0000
  H   H4292     1.0  0.53871  0.90230  0.02503  1.0000
  C   C5365     1.0  0.92641  0.89545  0.38991  1.0000
  C   C5366     1.0  0.52243  0.94092  0.07246  1.0000
  H   H4293     1.0  0.80627  0.97741  0.27923  1.0000
  C   C5367     1.0  0.65619  0.93194  0.98831  1.0000
  C   C5368     1.0  0.98073  0.82529  0.30774  1.0000
  H   H4294     1.0  0.70580  0.96401  0.13590  1.0000
  C   C5369     1.0  0.76483  0.81274  0.39853  1.0000
  H   H4295     1.0  0.88137  0.80499  0.41640  1.0000
  H   H4296     1.0  0.69975  0.85558  0.34426  1.0000
  C   C5370     1.0  0.91957  0.82637  0.33966  1.0000
  P   P177      1.0  0.67448  0.94051  0.99252  1.0000
  H   H4297     1.0  0.73398  0.87259  0.34351  1.0000
  C   C5371     1.0  0.69656  0.90454  0.99073  1.0000
  C   C5372     1.0  0.75049  0.82975  0.37187  1.0000
  H   H4298     1.0  0.51754  0.95272  0.98773  1.0000
  S   S730      1.0  0.86913  0.95465  0.46750  1.0000
  H   H4299     1.0  0.82949  0.79511  0.22183  1.0000
  C   C5373     1.0  0.89607  0.97750  0.41387  1.0000
  C   C5374     1.0  0.93669  0.96315  0.40560  1.0000
  H   H4300     1.0  0.61998  0.84033  0.09810  1.0000
  C   C5375     1.0  0.70140  0.93591  0.19809  1.0000
  C   C5376     1.0  0.71924  0.93965  0.19002  1.0000
  C   C5377     1.0  0.72788  0.93694  0.17185  1.0000
  C   C5378     1.0  0.71849  0.93096  0.16155  1.0000
  C   C5379     1.0  0.70032  0.92772  0.16941  1.0000
  C   C5380     1.0  0.69205  0.92979  0.18792  1.0000
  P   P178      1.0  0.68681  0.92270  0.15553  1.0000
  C   C5381     1.0  0.66936  0.94327  0.14874  1.0000
  C   C5382     1.0  0.70207  0.91570  0.13452  1.0000
  C   C5383     1.0  0.70586  0.92927  0.11800  1.0000
  C   C5384     1.0  0.71765  0.92392  0.10175  1.0000
  C   C5385     1.0  0.72590  0.90503  0.10190  1.0000
  C   C5386     1.0  0.72239  0.89148  0.11830  1.0000
  C   C5387     1.0  0.71051  0.89677  0.13453  1.0000
  C   C5388     1.0  0.66396  0.95827  0.15807  1.0000
  H   H4301     1.0  0.93358  0.86863  0.34830  1.0000
  C   C5389     1.0  0.66019  0.93470  0.04962  1.0000
  H   H4302     1.0  0.97856  0.82151  0.32286  1.0000
  C   C5390     1.0  0.66046  0.94401  0.13435  1.0000
  C   C5391     1.0  0.67557  0.90363  0.16949  1.0000
  C   C5392     1.0  0.68538  0.88841  0.18087  1.0000
  C   C5393     1.0  0.67708  0.87326  0.19114  1.0000
  C   C5394     1.0  0.65882  0.87334  0.19038  1.0000
  C   C5395     1.0  0.64884  0.88855  0.17938  1.0000
  C   C5396     1.0  0.65715  0.90364  0.16897  1.0000
  H   H4303     1.0  0.69454  0.93820  0.21211  1.0000
  H   H4304     1.0  0.72626  0.94485  0.19778  1.0000
  H   H4305     1.0  0.74171  0.93990  0.16562  1.0000
  H   H4306     1.0  0.72530  0.92934  0.14738  1.0000
  H   H4307     1.0  0.67803  0.92739  0.19427  1.0000
  H   H4308     1.0  0.69964  0.94397  0.11760  1.0000
  H   H4309     1.0  0.72037  0.93440  0.08899  1.0000
  H   H4310     1.0  0.73499  0.90083  0.08930  1.0000
  H   H4311     1.0  0.72876  0.87681  0.11838  1.0000
  H   H4312     1.0  0.70795  0.88602  0.14697  1.0000
  H   H4313     1.0  0.67026  0.95819  0.16938  1.0000
  S   S731      1.0  0.80859  0.85364  0.33524  1.0000
  S   S732      1.0  0.59054  0.95464  0.08444  1.0000
  C   C5397     1.0  0.56627  0.95893  0.03153  1.0000
  H   H4314     1.0  0.66435  0.93264  0.12696  1.0000
  H   H4315     1.0  0.69953  0.88814  0.18166  1.0000
  H   H4316     1.0  0.68478  0.86145  0.19973  1.0000
  H   H4317     1.0  0.65235  0.86165  0.19837  1.0000
  H   H4318     1.0  0.63466  0.88861  0.17875  1.0000
  H   H4319     1.0  0.64902  0.91519  0.16063  1.0000
  C   C5398     1.0  0.82230  0.91741  0.44105  1.0000
  H   H4320     1.0  0.59572  0.97953  0.04868  1.0000
  C   C5399     1.0  0.75296  0.98078  0.24266  1.0000
  C   C5400     1.0  0.90832  0.89213  0.42181  1.0000
  C   C5401     1.0  0.69214  0.80544  0.13226  1.0000
  C   C5402     1.0  0.68889  0.82457  0.12377  1.0000
  C   C5403     1.0  0.68391  0.83022  0.10616  1.0000
  P   P179      1.0  0.69060  0.84122  0.13621  1.0000
  C   C5404     1.0  0.67566  0.83555  0.15910  1.0000
  C   C5405     1.0  0.71454  0.83863  0.13773  1.0000
  C   C5406     1.0  0.71847  0.84605  0.15112  1.0000
  C   C5407     1.0  0.73699  0.84435  0.15228  1.0000
  C   C5408     1.0  0.75171  0.83543  0.13994  1.0000
  C   C5409     1.0  0.74792  0.82847  0.12626  1.0000
  C   C5410     1.0  0.72941  0.83005  0.12510  1.0000
  C   C5411     1.0  0.65616  0.83938  0.16091  1.0000
  C   C5412     1.0  0.64452  0.83406  0.17829  1.0000
  C   C5413     1.0  0.65228  0.82433  0.19390  1.0000
  C   C5414     1.0  0.67172  0.81983  0.19208  1.0000
  C   C5415     1.0  0.68336  0.82522  0.17473  1.0000
  C   C5416     1.0  0.68392  0.86514  0.12380  1.0000
  C   C5417     1.0  0.66914  0.87800  0.13212  1.0000
  C   C5418     1.0  0.66357  0.89610  0.12190  1.0000
  C   C5419     1.0  0.67296  0.90168  0.10343  1.0000
  C   C5420     1.0  0.68820  0.88924  0.09527  1.0000
  C   C5421     1.0  0.69383  0.87113  0.10550  1.0000
  H   H4321     1.0  0.63685  0.95097  0.06593  1.0000
  H   H4322     1.0  0.83132  0.78646  0.25551  1.0000
  P   P180      1.0  0.54122  0.96153  0.03938  1.0000
  H   H4323     1.0  0.69619  0.80083  0.14574  1.0000
  H   H4324     1.0  0.68117  0.84479  0.09920  1.0000
  H   H4325     1.0  0.70719  0.85273  0.16095  1.0000
  H   H4326     1.0  0.73997  0.84935  0.16313  1.0000
  H   H4327     1.0  0.76605  0.83354  0.14119  1.0000
  H   H4328     1.0  0.75936  0.82147  0.11677  1.0000
  H   H4329     1.0  0.72687  0.82433  0.11448  1.0000
  H   H4330     1.0  0.64994  0.84634  0.14882  1.0000
  H   H4331     1.0  0.62946  0.83735  0.17950  1.0000
  H   H4332     1.0  0.64327  0.81998  0.20730  1.0000
  H   H4333     1.0  0.67789  0.81173  0.20396  1.0000
  H   H4334     1.0  0.69835  0.82071  0.17350  1.0000
  H   H4335     1.0  0.66143  0.87405  0.14626  1.0000
  H   H4336     1.0  0.65132  0.90543  0.12807  1.0000
  H   H4337     1.0  0.66815  0.91547  0.09535  1.0000
  H   H4338     1.0  0.69535  0.89343  0.08086  1.0000
  H   H4339     1.0  0.70554  0.86155  0.09891  1.0000
  C   C5422     1.0  0.79125  0.96378  0.33342  1.0000
  C   C5423     1.0  0.91322  0.90334  0.40407  1.0000
  C   C5424     1.0  0.75927  0.78976  0.22450  1.0000
  C   C5425     1.0  0.70840  0.79804  0.25394  1.0000
  C   C5426     1.0  0.81390  0.95892  0.30464  1.0000
  C   C5427     1.0  0.80840  0.95447  0.32430  1.0000
  P   P181      1.0  0.83673  0.94759  0.29346  1.0000
  C   C5428     1.0  0.83980  0.92247  0.30055  1.0000
  C   C5429     1.0  0.83995  0.95131  0.26831  1.0000
  C   C5430     1.0  0.82560  0.95020  0.26033  1.0000
  C   C5431     1.0  0.82865  0.95124  0.24102  1.0000
  C   C5432     1.0  0.84619  0.95290  0.22960  1.0000
  C   C5433     1.0  0.86067  0.95356  0.23749  1.0000
  C   C5434     1.0  0.85758  0.95283  0.25676  1.0000
  C   C5435     1.0  0.82410  0.91422  0.30717  1.0000
  C   C5436     1.0  0.82631  0.89478  0.31059  1.0000
  C   C5437     1.0  0.84415  0.88337  0.30750  1.0000
  C   C5438     1.0  0.85987  0.89148  0.30081  1.0000
  C   C5439     1.0  0.85772  0.91099  0.29714  1.0000
  C   C5440     1.0  0.85316  0.95704  0.29978  1.0000
  C   C5441     1.0  0.58333  0.88109  0.99847  1.0000
  H   H4340     1.0  0.76562  0.80138  0.41074  1.0000
  H   H4341     1.0  0.63869  0.95917  0.11930  1.0000
  C   C5442     1.0  0.87671  0.95411  0.31745  1.0000
  C   C5443     1.0  0.86464  0.94609  0.31233  1.0000
  H   H4342     1.0  0.78719  0.96036  0.34861  1.0000
  C   C5444     1.0  0.91223  0.98065  0.46762  1.0000
  H   H4343     1.0  0.92199  0.97954  0.27333  1.0000
  C   C5445     1.0  0.52751  0.92629  0.00529  1.0000
  H   H4344     1.0  0.81747  0.94388  0.33257  1.0000
  H   H4345     1.0  0.81201  0.94856  0.26898  1.0000
  H   H4346     1.0  0.81728  0.95107  0.23490  1.0000
  H   H4347     1.0  0.84848  0.95410  0.21459  1.0000
  H   H4348     1.0  0.87418  0.95530  0.22858  1.0000
  H   H4349     1.0  0.86898  0.95361  0.26250  1.0000
  H   H4350     1.0  0.81011  0.92273  0.30937  1.0000
  H   H4351     1.0  0.81416  0.88853  0.31582  1.0000
  H   H4352     1.0  0.84575  0.86825  0.31052  1.0000
  H   H4353     1.0  0.87003  0.91708  0.29156  1.0000
  H   H4354     1.0  0.66173  0.81590  0.26557  1.0000
  C   C5446     1.0  0.68979  0.85557  0.39739  1.0000
  C   C5447     1.0  0.52777  0.95666  0.01015  1.0000
  H   H4355     1.0  0.88581  0.94564  0.32680  1.0000
  H   H4356     1.0  0.86429  0.93147  0.31836  1.0000
  C   C5448     1.0  0.80004  0.84094  0.27158  1.0000
  C   C5449     1.0  0.78751  0.83824  0.26239  1.0000
  C   C5450     1.0  0.77746  0.85363  0.25163  1.0000
  C   C5451     1.0  0.77992  0.87177  0.25000  1.0000
  C   C5452     1.0  0.79247  0.87462  0.25926  1.0000
  C   C5453     1.0  0.80254  0.85903  0.27003  1.0000
  P   P182      1.0  0.79676  0.89775  0.25662  1.0000
  C   C5454     1.0  0.82187  0.89544  0.25070  1.0000
  C   C5455     1.0  0.78646  0.91444  0.23809  1.0000
  C   C5456     1.0  0.79770  0.92189  0.22111  1.0000
  C   C5457     1.0  0.78949  0.93541  0.20732  1.0000
  S   S733      1.0  0.53058  0.91171  0.15918  1.0000
  C   C5458     1.0  0.75879  0.93443  0.22724  1.0000
  C   C5459     1.0  0.76693  0.92093  0.24109  1.0000
  C   C5460     1.0  0.83066  0.90431  0.25902  1.0000
  C   C5461     1.0  0.85005  0.90293  0.25380  1.0000
  C   C5462     1.0  0.86083  0.89243  0.24050  1.0000
  C   C5463     1.0  0.85223  0.88328  0.23238  1.0000
  C   C5464     1.0  0.83281  0.88478  0.23743  1.0000
  C   C5465     1.0  0.78692  0.90681  0.27787  1.0000
  C   C5466     1.0  0.78390  0.89471  0.29555  1.0000
  C   C5467     1.0  0.86130  0.96914  0.41647  1.0000
  C   C5468     1.0  0.77530  0.93354  0.29308  1.0000
  C   C5469     1.0  0.78263  0.92631  0.27678  1.0000
  H   H4357     1.0  0.80782  0.82899  0.27995  1.0000
  H   H4358     1.0  0.76782  0.85135  0.24446  1.0000
  H   H4359     1.0  0.77217  0.88336  0.24134  1.0000
  H   H4360     1.0  0.81245  0.86079  0.27717  1.0000
  H   H4361     1.0  0.81279  0.91762  0.21851  1.0000
  C   C5470     1.0  0.53455  0.95352  0.06451  1.0000
  C   C5471     1.0  0.68229  0.81689  0.09725  1.0000
  H   H4362     1.0  0.78788  0.82280  0.40134  1.0000
  H   H4363     1.0  0.75801  0.91577  0.25425  1.0000
  H   H4364     1.0  0.82263  0.91239  0.26943  1.0000
  H   H4365     1.0  0.85670  0.91015  0.25997  1.0000
  H   H4366     1.0  0.87586  0.89141  0.23649  1.0000
  H   H4367     1.0  0.86060  0.87509  0.22210  1.0000
  H   H4368     1.0  0.82632  0.87775  0.23088  1.0000
  H   H4369     1.0  0.78733  0.87965  0.29699  1.0000
  H   H4370     1.0  0.78503  0.93603  0.26336  1.0000
  C   C5472     1.0  0.93019  0.85661  0.34584  1.0000
  C   C5473     1.0  0.54099  0.96067  0.07641  1.0000
  C   C5474     1.0  0.69184  0.81008  0.26041  1.0000
  H   H4371     1.0  0.50092  0.89119  0.17055  1.0000
  P   P183      1.0  0.73286  0.83285  0.35849  1.0000
  H   H4372     1.0  0.69244  0.82214  0.26525  1.0000
  C   C5475     1.0  0.84789  0.78899  0.31293  1.0000
  H   H4373     1.0  0.52513  0.97177  0.00538  1.0000
  H   H4374     1.0  0.84830  0.96571  0.34711  1.0000
  H   H4375     1.0  0.92542  0.79046  0.47156  1.0000
  C   C5476     1.0  0.80617  0.94877  0.38353  1.0000
  C   C5477     1.0  0.82104  0.93585  0.37557  1.0000
  C   C5478     1.0  0.83612  0.94210  0.36239  1.0000
  C   C5479     1.0  0.83654  0.96119  0.35743  1.0000
  C   C5480     1.0  0.75139  0.81525  0.38795  1.0000
  H   H4376     1.0  0.79821  0.94136  0.19439  1.0000
  C   C5481     1.0  0.67458  0.80652  0.26062  1.0000
  H   H4377     1.0  0.84677  0.85736  0.43525  1.0000
  C   C5482     1.0  0.97143  0.86810  0.32373  1.0000
  H   H4378     1.0  0.84788  0.96581  0.41784  1.0000
  H   H4379     1.0  0.54155  0.95998  0.10496  1.0000
  C   C5483     1.0  0.53536  0.94793  0.02618  1.0000
  H   H4380     1.0  0.58689  0.78713  0.01177  1.0000
  C   C5484     1.0  0.66514  0.94569  0.01567  1.0000
  H   H4381     1.0  0.86781  0.90164  0.42153  1.0000
  C   C5485     1.0  0.51762  0.93492  0.09200  1.0000
  C   C5486     1.0  0.64992  0.96073  0.01824  1.0000
  H   H4382     1.0  0.68396  0.78767  0.09893  1.0000
  H   H4383     1.0  0.92555  0.96125  0.38274  1.0000
  C   C5487     1.0  0.84427  0.89620  0.41451  1.0000
  H   H4384     1.0  0.90437  0.89727  0.28324  1.0000
  C   C5488     1.0  0.93453  0.87632  0.39333  1.0000
  H   H4385     1.0  0.89191  0.79721  0.47006  1.0000
  C   C5489     1.0  0.92787  0.88054  0.29518  1.0000
  C   C5490     1.0  0.77659  0.90199  0.31184  1.0000
  C   C5491     1.0  0.77223  0.92139  0.31060  1.0000
  C   C5492     1.0  0.53620  0.95465  0.09590  1.0000
  S   S734      1.0  0.86789  0.80106  0.38527  1.0000
  C   C5493     1.0  0.74564  0.79504  0.35696  1.0000
  H   H4386     1.0  0.53259  0.88534  0.10539  1.0000
  C   C5494     1.0  0.61180  0.86460  0.98108  1.0000
  C   C5495     1.0  0.64799  0.91844  0.00245  1.0000
  H   H4387     1.0  0.91527  0.81476  0.33727  1.0000
  H   H4388     1.0  0.56775  0.80434  0.05972  1.0000
  S   S735      1.0  0.82354  0.96877  0.47242  1.0000
  C   C5496     1.0  0.60263  0.89189  0.05883  1.0000
  C   C5497     1.0  0.79308  0.83267  0.32109  1.0000
  C   C5498     1.0  0.69565  0.92266  0.99296  1.0000
  S   S736      1.0  0.65129  0.95465  0.21488  1.0000
  H   H4389     1.0  0.58779  0.81262  0.02635  1.0000
  C   C5499     1.0  0.73812  0.86560  0.33179  1.0000
  C   C5500     1.0  0.60676  0.97615  0.18932  1.0000
  H   H4390     1.0  0.60933  0.96349  0.24316  1.0000
  C   C5501     1.0  0.94783  0.83106  0.39506  1.0000
  H   H4391     1.0  0.96911  0.90459  0.34344  1.0000
  C   C5502     1.0  0.96123  0.92925  0.39971  1.0000
  H   H4392     1.0  0.94683  0.93131  0.37788  1.0000
  C   C5503     1.0  0.53920  0.79059  0.14041  1.0000
  C   C5504     1.0  0.96264  0.93779  0.41342  1.0000
  C   C5505     1.0  0.94808  0.93791  0.38847  1.0000
  H   H4393     1.0  0.56897  0.93056  0.98768  1.0000
  H   H4394     1.0  0.54180  0.85518  0.09550  1.0000
  C   C5506     1.0  0.73011  0.81009  0.35755  1.0000
  C   C5507     1.0  0.93603  0.95493  0.39122  1.0000
  S   S737      1.0  0.56174  0.95143  0.13883  1.0000
  C   C5508     1.0  0.60039  0.80608  0.01774  1.0000
  C   C5509     1.0  0.60914  0.87414  0.05448  1.0000
  C   C5510     1.0  0.60224  0.85876  0.06641  1.0000
  H   H4395     1.0  0.61993  0.87218  0.04214  1.0000
  S   S738      1.0  0.82433  0.84241  0.38459  1.0000
  C   C5511     1.0  0.71153  0.92699  0.99570  1.0000
  H   H4396     1.0  0.60764  0.84504  0.06291  1.0000
  H   H4397     1.0  0.74137  0.89108  0.31116  1.0000
  H   H4398     1.0  0.90677  0.97191  0.25178  1.0000
  C   C5512     1.0  0.87366  0.78516  0.32789  1.0000
  H   H4399     1.0  0.66302  0.87303  0.39337  1.0000
  C   C5513     1.0  0.70698  0.84572  0.38890  1.0000
  H   H4400     1.0  0.97019  0.91585  0.39793  1.0000
  H   H4401     1.0  0.71374  0.87692  0.98991  1.0000
  C   C5514     1.0  0.75432  0.78713  0.20874  1.0000
  C   C5515     1.0  0.77734  0.82479  0.39328  1.0000
  C   C5516     1.0  0.57368  0.96744  0.01306  1.0000
  H   H4402     1.0  0.97166  0.84438  0.38279  1.0000
  H   H4403     1.0  0.64485  0.97013  0.00626  1.0000
  C   C5517     1.0  0.93220  0.81261  0.44786  1.0000
  H   H4404     1.0  0.68690  0.85554  0.41225  1.0000
  H   H4405     1.0  0.78108  0.81638  0.30947  1.0000
  C   C5518     1.0  0.61803  0.82599  0.10212  1.0000
  C   C5519     1.0  0.59839  0.80333  0.10921  1.0000
  H   H4406     1.0  0.52150  0.84583  0.08060  1.0000
  C   C5520     1.0  0.68517  0.79791  0.10600  1.0000
  Fe  Fe368     1.0  0.96134  0.97929  0.32965  1.0000
  C   C5521     1.0  0.96943  0.82698  0.36555  1.0000
  C   C5522     1.0  0.90119  0.80575  0.46014  1.0000
  C   C5523     1.0  0.85272  0.90397  0.42428  1.0000
  H   H4407     1.0  0.68087  0.92003  0.03012  1.0000
  C   C5524     1.0  0.54646  0.79293  0.12110  1.0000
  H   H4408     1.0  0.63761  0.94724  0.25601  1.0000
  H   H4409     1.0  0.64609  0.81481  0.10631  1.0000
  C   C5525     1.0  0.60219  0.87222  0.99682  1.0000
  C   C5526     1.0  0.88962  0.79264  0.39207  1.0000
  C   C5527     1.0  0.96394  0.88450  0.33092  1.0000
  C   C5528     1.0  0.52369  0.94586  0.99988  1.0000
  C   C5529     1.0  0.74226  0.87612  0.31349  1.0000
  C   C5530     1.0  0.67392  0.79067  0.25479  1.0000
  C   C5531     1.0  0.62078  0.97446  0.19911  1.0000
  C   C5532     1.0  0.64514  0.94985  0.05199  1.0000
  C   C5533     1.0  0.74740  0.86737  0.29819  1.0000
  C   C5534     1.0  0.59989  0.79160  0.00954  1.0000
  C   C5535     1.0  0.77006  0.94160  0.21034  1.0000
  H   H4410     1.0  0.89858  0.82835  0.36507  1.0000
  H   H4411     1.0  0.74376  0.93971  0.22973  1.0000
  C   C5536     1.0  0.97692  0.82282  0.42233  1.0000
  H   H4412     1.0  0.90112  0.84159  0.42183  1.0000
  H   H4413     1.0  0.98106  0.86095  0.44590  1.0000
  H   H4414     1.0  0.74156  0.88464  0.99492  1.0000
  C   C5537     1.0  0.63273  0.91270  0.00040  1.0000
  H   H4415     1.0  0.78792  0.84585  0.31230  1.0000
  C   C5538     1.0  0.65285  0.78487  0.06374  1.0000
  C   C5539     1.0  0.60512  0.95346  0.01796  1.0000
  C   C5540     1.0  0.67015  0.93259  0.03157  1.0000
  C   C5541     1.0  0.89441  0.82014  0.44610  1.0000
  C   C5542     1.0  0.53570  0.91748  0.02081  1.0000
  H   H4416     1.0  0.91956  0.92455  0.26803  1.0000
  H   H4417     1.0  0.87990  0.82267  0.44510  1.0000
  H   H4418     1.0  0.74520  0.82268  0.32140  1.0000
  H   H4419     1.0  0.74175  0.80581  0.39229  1.0000
  H   H4420     1.0  0.83511  0.79742  0.30867  1.0000
  H   H4421     1.0  0.98613  0.91804  0.36185  1.0000
  H   H4422     1.0  0.94684  0.80913  0.44853  1.0000
  H   H4423     1.0  0.53002  0.80232  0.14615  1.0000
  H   H4424     1.0  0.54638  0.92121  0.04296  1.0000
  C   C5543     1.0  0.96369  0.85212  0.43286  1.0000
  C   C5544     1.0  0.86038  0.86074  0.45555  1.0000
  C   C5545     1.0  0.85746  0.79621  0.32193  1.0000
  C   C5546     1.0  0.97996  0.85036  0.43922  1.0000
  H   H4425     1.0  0.90775  0.85544  0.37033  1.0000
  H   H4426     1.0  0.62648  0.90235  0.01145  1.0000
  C   C5547     1.0  0.59790  0.94513  0.03641  1.0000
  C   C5548     1.0  0.95968  0.81453  0.36359  1.0000
  H   H4427     1.0  0.85287  0.88803  0.40436  1.0000
  C   C5549     1.0  0.71088  0.84578  0.36963  1.0000
  H   H4428     1.0  0.76329  0.85277  0.35419  1.0000
  C   C5550     1.0  0.93799  0.81878  0.39275  1.0000
  C   C5551     1.0  0.71278  0.80740  0.35646  1.0000
  H   H4429     1.0  0.54407  0.90292  0.12184  1.0000
  C   C5552     1.0  0.67633  0.86542  0.38676  1.0000
  H   H4430     1.0  0.65334  0.91242  0.01516  1.0000
  S   S739      1.0  0.81395  0.88605  0.40892  1.0000
  C   C5553     1.0  0.92545  0.82722  0.43382  1.0000
  C   C5554     1.0  0.78891  0.98286  0.15499  1.0000
  H   H4431     1.0  0.71713  0.83817  0.39744  1.0000
  H   H4432     1.0  0.96435  0.80772  0.35175  1.0000
  C   C5555     1.0  0.91012  0.83404  0.35537  1.0000
  P   P184      1.0  0.94112  0.84043  0.41612  1.0000
  H   H4433     1.0  0.95239  0.86413  0.43476  1.0000
  S   S740      1.0  0.68161  0.97348  0.23764  1.0000
  C   C5556     1.0  0.73924  0.84619  0.33491  1.0000
  C   C5557     1.0  0.71106  0.78986  0.35505  1.0000
  H   H4434     1.0  0.64623  0.95988  0.27903  1.0000
  C   C5558     1.0  0.63292  0.81150  0.10683  1.0000
  H   H4435     1.0  0.70067  0.81880  0.35639  1.0000
  H   H4436     1.0  0.92581  0.81530  0.40300  1.0000
  H   H4437     1.0  0.76372  0.95225  0.19975  1.0000
  C   C5559     1.0  0.92973  0.86492  0.41112  1.0000
  H   H4438     1.0  0.75053  0.87551  0.28402  1.0000
  C   C5560     1.0  0.91662  0.87301  0.42539  1.0000
  H   H4439     1.0  0.91287  0.86463  0.43933  1.0000
  C   C5561     1.0  0.96215  0.83846  0.42416  1.0000
  C   C5562     1.0  0.97256  0.84323  0.29875  1.0000
  C   C5563     1.0  0.52575  0.88637  0.11970  1.0000
  C   C5564     1.0  0.93424  0.83392  0.32692  1.0000
  C   C5565     1.0  0.94401  0.81046  0.37716  1.0000
  S   S741      1.0  0.76310  0.79903  0.09106  1.0000
  C   C5566     1.0  0.49932  0.79235  0.07874  1.0000
  C   C5567     1.0  0.71347  0.97423  0.13590  1.0000
  H   H4440     1.0  0.97696  0.97162  0.37249  1.0000
  C   C5568     1.0  0.94583  0.87986  0.29758  1.0000
  H   H4441     1.0  0.90050  0.97011  0.45063  1.0000
  H   H4442     1.0  0.81058  0.78546  0.35315  1.0000
  C   C5569     1.0  0.84494  0.86008  0.44910  1.0000
  H   H4443     1.0  0.76670  0.92701  0.32324  1.0000
  H   H4444     1.0  0.85207  0.81024  0.32468  1.0000
  C   C5570     1.0  0.69719  0.85558  0.35909  1.0000
  C   C5571     1.0  0.84183  0.91417  0.43794  1.0000
  C   C5572     1.0  0.53982  0.92824  0.03108  1.0000
  H   H4445     1.0  0.51649  0.93579  0.06375  1.0000
  Fe  Fe369     1.0  0.84470  0.94146  0.47140  1.0000
  C   C5573     1.0  0.63283  0.78920  0.99537  1.0000
  C   C5574     1.0  0.82482  0.89815  0.41868  1.0000
  H   H4446     1.0  0.60731  0.93696  0.04563  1.0000
  H   H4447     1.0  0.72171  0.80077  0.25393  1.0000
  C   C5575     1.0  0.92008  0.80196  0.46098  1.0000
  C   C5576     1.0  0.74428  0.83757  0.31945  1.0000
  C   C5577     1.0  0.91847  0.89658  0.28446  1.0000
  H   H4448     1.0  0.77463  0.89249  0.32545  1.0000
  C   C5578     1.0  0.57852  0.94766  0.04316  1.0000
  C   C5579     1.0  0.61256  0.96860  0.25383  1.0000
  H   H4449     1.0  0.53411  0.81986  0.06325  1.0000
  C   C5580     1.0  0.61343  0.78881  0.11360  1.0000
  H   H4450     1.0  0.85778  0.98108  0.37185  1.0000
  H   H4451     1.0  0.97826  0.97737  0.40310  1.0000
  C   C5581     1.0  0.64592  0.95907  0.12992  1.0000
  C   C5582     1.0  0.87686  0.97317  0.31079  1.0000
  H   H4452     1.0  0.87018  0.86460  0.47805  1.0000
  C   C5583     1.0  0.62564  0.92021  0.98410  1.0000
  S   S742      1.0  0.96400  0.98153  0.29879  1.0000
  H   H4453     1.0  0.61280  0.97007  0.10297  1.0000
  C   C5584     1.0  0.80218  0.97313  0.29430  1.0000
  C   C5585     1.0  0.85795  0.86458  0.47327  1.0000
  H   H4454     1.0  0.97050  0.86183  0.27168  1.0000
  C   C5586     1.0  0.58043  0.97842  0.07725  1.0000
  C   C5587     1.0  0.63071  0.79290  0.11246  1.0000
  C   C5588     1.0  0.64950  0.97338  0.15349  1.0000
  C   C5589     1.0  0.97636  0.84803  0.27903  1.0000
  H   H4455     1.0  0.62820  0.97451  0.03793  1.0000
  H   H4456     1.0  0.69663  0.98055  0.16211  1.0000
  H   H4457     1.0  0.91036  0.78819  0.42839  1.0000
  H   H4458     1.0  0.88624  0.97937  0.31476  1.0000
  H   H4459     1.0  0.59884  0.97146  0.99222  1.0000
  C   C5590     1.0  0.90846  0.78609  0.41548  1.0000
  H   H4460     1.0  0.62621  0.85731  0.98055  1.0000
  H   H4461     1.0  0.67188  0.98096  0.99159  1.0000
  H   H4462     1.0  0.56448  0.97626  0.00391  1.0000
  C   C5591     1.0  0.93506  0.78913  0.30801  1.0000
  P   P185      1.0  0.91860  0.98298  0.41151  1.0000
  C   C5592     1.0  0.94753  0.78516  0.31996  1.0000
  H   H4463     1.0  0.66044  0.78801  0.25519  1.0000
  H   H4464     1.0  0.56269  0.98164  0.10412  1.0000
  H   H4465     1.0  0.55943  0.88941  0.98553  1.0000
  C   C5593     1.0  0.82444  0.86778  0.47782  1.0000
  H   H4466     1.0  0.82018  0.90501  0.47990  1.0000
  C   C5594     1.0  0.98809  0.83504  0.26854  1.0000
  H   H4467     1.0  0.76605  0.98071  0.14445  1.0000
  H   H4468     1.0  0.79479  0.97780  0.38464  1.0000
  Fe  Fe370     1.0  0.66038  0.97914  0.21968  1.0000
  H   H4469     1.0  0.50314  0.98101  0.03488  1.0000
  H   H4470     1.0  0.72628  0.97748  0.24017  1.0000
  H   H4471     1.0  0.75001  0.97661  0.25783  1.0000
  Fe  Fe371     1.0  0.84797  0.98101  0.47098  1.0000
  C   C5595     1.0  0.57409  0.88264  0.98420  1.0000
  C   C5596     1.0  0.73949  0.98134  0.23270  1.0000
  C   C5597     1.0  0.70814  0.98376  0.15060  1.0000
  C   C5598     1.0  0.50126  0.78440  0.98620  1.0000
  C   C5599     1.0  0.49343  0.94387  0.90979  1.0000
  C   C5600     1.0  0.78428  0.95446  0.61557  1.0000
  H   H4472     1.0  0.69205  0.94333  0.95294  1.0000
  Fe  Fe372     1.0  0.68775  0.96177  0.87597  1.0000
  H   H4473     1.0  0.81195  0.95709  0.56326  1.0000
  Fe  Fe373     1.0  0.86505  0.94810  0.49873  1.0000
  S   S743      1.0  0.88980  0.93415  0.51249  1.0000
  S   S744      1.0  0.84192  0.93311  0.50285  1.0000
  C   C5601     1.0  0.59762  0.79860  0.95530  1.0000
  C   C5602     1.0  0.81002  0.85367  0.53245  1.0000
  C   C5603     1.0  0.79097  0.94575  0.79624  1.0000
  S   S745      1.0  0.92811  0.94344  0.60119  1.0000
  C   C5604     1.0  0.49341  0.93077  0.89960  1.0000
  S   S746      1.0  0.84579  0.97564  0.50197  1.0000
  H   H4474     1.0  0.54021  0.79811  0.88390  1.0000
  C   C5605     1.0  0.55918  0.84976  0.84195  1.0000
  H   H4475     1.0  0.70297  0.89172  0.94123  1.0000
  C   C5606     1.0  0.72008  0.96998  0.73378  1.0000
  H   H4476     1.0  0.87689  0.91944  0.55578  1.0000
  S   S747      1.0  0.51232  0.96850  0.82244  1.0000
  H   H4477     1.0  0.55643  0.79736  0.83583  1.0000
  C   C5607     1.0  0.90496  0.96852  0.54576  1.0000
  P   P186      1.0  0.83205  0.97122  0.58285  1.0000
  C   C5608     1.0  0.54194  0.79781  0.79673  1.0000
  H   H4478     1.0  0.85399  0.91331  0.54130  1.0000
  Fe  Fe374     1.0  0.57849  0.93067  0.81581  1.0000
  S   S748      1.0  0.58670  0.92176  0.78820  1.0000
  S   S749      1.0  0.59500  0.92059  0.83876  1.0000
  Fe  Fe375     1.0  0.55720  0.91723  0.79396  1.0000
  S   S750      1.0  0.54953  0.88931  0.79632  1.0000
  S   S751      1.0  0.55021  0.92392  0.82253  1.0000
  C   C5609     1.0  0.59391  0.87695  0.89839  1.0000
  H   H4479     1.0  0.87959  0.97301  0.66357  1.0000
  Fe  Fe376     1.0  0.65533  0.94613  0.90313  1.0000
  S   S752      1.0  0.64271  0.92262  0.92316  1.0000
  C   C5610     1.0  0.65735  0.90637  0.93722  1.0000
  C   C5611     1.0  0.67654  0.90600  0.93343  1.0000
  H   H4480     1.0  0.68257  0.91605  0.92184  1.0000
  C   C5612     1.0  0.60706  0.93731  0.83926  1.0000
  C   C5613     1.0  0.59969  0.86453  0.91417  1.0000
  C   C5614     1.0  0.62269  0.94960  0.85621  1.0000
  C   C5615     1.0  0.61417  0.93567  0.85510  1.0000
  H   H4481     1.0  0.62783  0.94842  0.86864  1.0000
  H   H4482     1.0  0.61301  0.92373  0.86657  1.0000
  H   H4483     1.0  0.64195  0.98088  0.93857  1.0000
  C   C5616     1.0  0.51261  0.87393  0.76536  1.0000
  C   C5617     1.0  0.51813  0.89133  0.75888  1.0000
  C   C5618     1.0  0.52899  0.89663  0.76844  1.0000
  C   C5619     1.0  0.53489  0.88428  0.78422  1.0000
  C   C5620     1.0  0.52956  0.86687  0.79048  1.0000
  C   C5621     1.0  0.51839  0.86179  0.78124  1.0000
  H   H4484     1.0  0.51406  0.90070  0.74640  1.0000
  H   H4485     1.0  0.53321  0.91000  0.76331  1.0000
  H   H4486     1.0  0.53438  0.85707  0.80234  1.0000
  C   C5622     1.0  0.67775  0.97819  0.97770  1.0000
  S   S753      1.0  0.49930  0.86710  0.75308  1.0000
  H   H4487     1.0  0.98190  0.92371  0.54442  1.0000
  S   S754      1.0  0.56832  0.96108  0.80396  1.0000
  H   H4488     1.0  0.54708  0.79324  0.78350  1.0000
  C   C5623     1.0  0.86507  0.97291  0.59143  1.0000
  C   C5624     1.0  0.68484  0.95974  0.80861  1.0000
  C   C5625     1.0  0.84975  0.97415  0.67119  1.0000
  H   H4489     1.0  0.56875  0.85580  0.82974  1.0000
  H   H4490     1.0  0.90404  0.97428  0.48073  1.0000
  C   C5626     1.0  0.51148  0.86948  0.92858  1.0000
  C   C5627     1.0  0.84964  0.92382  0.54982  1.0000
  H   H4491     1.0  0.72755  0.96733  0.72005  1.0000
  H   H4492     1.0  0.58869  0.87200  0.88893  1.0000
  H   H4493     1.0  0.85675  0.83570  0.51993  1.0000
  C   C5628     1.0  0.50624  0.78537  0.87099  1.0000
  C   C5629     1.0  0.69391  0.97214  0.94139  1.0000
  Fe  Fe377     1.0  0.96540  0.97430  0.58642  1.0000
  C   C5630     1.0  0.56567  0.95528  0.96562  1.0000
  H   H4494     1.0  0.98091  0.90951  0.62215  1.0000
  C   C5631     1.0  0.91240  0.94924  0.54791  1.0000
  C   C5632     1.0  0.90795  0.93882  0.53738  1.0000
  C   C5633     1.0  0.89583  0.94759  0.52493  1.0000
  H   H4495     1.0  0.71217  0.94766  0.77971  1.0000
  H   H4496     1.0  0.79941  0.86622  0.52961  1.0000
  H   H4497     1.0  0.91368  0.92391  0.53910  1.0000
  C   C5634     1.0  0.67014  0.85701  0.92849  1.0000
  C   C5635     1.0  0.85706  0.95258  0.62830  1.0000
  C   C5636     1.0  0.51987  0.89349  0.84400  1.0000
  C   C5637     1.0  0.50953  0.90753  0.83233  1.0000
  C   C5638     1.0  0.50060  0.92455  0.83773  1.0000
  C   C5639     1.0  0.50192  0.92756  0.85482  1.0000
  C   C5640     1.0  0.51225  0.91347  0.86667  1.0000
  C   C5641     1.0  0.52132  0.89646  0.86104  1.0000
  P   P187      1.0  0.51515  0.91775  0.88813  1.0000
  C   C5642     1.0  0.52100  0.89531  0.90378  1.0000
  C   C5643     1.0  0.53370  0.93044  0.88333  1.0000
  C   C5644     1.0  0.54293  0.92944  0.89759  1.0000
  C   C5645     1.0  0.55807  0.93824  0.89364  1.0000
  C   C5646     1.0  0.56406  0.94810  0.87547  1.0000
  C   C5647     1.0  0.55456  0.94970  0.86141  1.0000
  C   C5648     1.0  0.53933  0.94107  0.86533  1.0000
  H   H4498     1.0  0.97474  0.93411  0.65074  1.0000
  C   C5649     1.0  0.75357  0.95596  0.81418  1.0000
  C   C5650     1.0  0.53024  0.86066  0.92823  1.0000
  C   C5651     1.0  0.54440  0.86894  0.91551  1.0000
  C   C5652     1.0  0.53982  0.88607  0.90317  1.0000
  H   H4499     1.0  0.87963  0.97386  0.51282  1.0000
  C   C5653     1.0  0.89327  0.97732  0.53292  1.0000
  H   H4500     1.0  0.52260  0.83097  0.88481  1.0000
  C   C5654     1.0  0.64967  0.89324  0.95214  1.0000
  H   H4501     1.0  0.49546  0.94113  0.85841  1.0000
  C   C5655     1.0  0.63371  0.93361  0.96988  1.0000
  S   S755      1.0  0.91845  0.96291  0.64714  1.0000
  C   C5656     1.0  0.53519  0.83115  0.85550  1.0000
  C   C5657     1.0  0.50685  0.88672  0.91643  1.0000
  H   H4502     1.0  0.53857  0.92170  0.91170  1.0000
  H   H4503     1.0  0.56535  0.93722  0.90455  1.0000
  C   C5658     1.0  0.52690  0.97627  0.94455  1.0000
  H   H4504     1.0  0.78300  0.94166  0.51481  1.0000
  C   C5659     1.0  0.66728  0.83156  0.95569  1.0000
  H   H4505     1.0  0.49126  0.96448  0.76568  1.0000
  C   C5660     1.0  0.54712  0.80024  0.82626  1.0000
  H   H4506     1.0  0.55893  0.86202  0.91517  1.0000
  H   H4507     1.0  0.55098  0.89210  0.89314  1.0000
  H   H4508     1.0  0.67870  0.86578  0.91782  1.0000
  Fe  Fe378     1.0  0.64899  0.97373  0.86716  1.0000
  S   S756      1.0  0.96145  0.95866  0.56684  1.0000
  P   P188      1.0  0.83617  0.87350  0.50739  1.0000
  C   C5661     1.0  0.82894  0.85324  0.52376  1.0000
  H   H4509     1.0  0.89844  0.89132  0.52265  1.0000
  H   H4510     1.0  0.50910  0.90548  0.81876  1.0000
  H   H4511     1.0  0.51489  0.84811  0.78598  1.0000
  C   C5662     1.0  0.58373  0.87527  0.96829  1.0000
  C   C5663     1.0  0.86151  0.87069  0.52960  1.0000
  C   C5664     1.0  0.84219  0.83644  0.52699  1.0000
  C   C5665     1.0  0.83670  0.82048  0.53929  1.0000
  C   C5666     1.0  0.81791  0.82112  0.54823  1.0000
  C   C5667     1.0  0.80457  0.83768  0.54475  1.0000
  C   C5668     1.0  0.81871  0.89471  0.50974  1.0000
  C   C5669     1.0  0.83008  0.96262  0.73140  1.0000
  H   H4512     1.0  0.49800  0.78925  0.86026  1.0000
  C   C5670     1.0  0.79277  0.92846  0.51342  1.0000
  C   C5671     1.0  0.79801  0.91590  0.52934  1.0000
  C   C5672     1.0  0.81103  0.89912  0.52753  1.0000
  C   C5673     1.0  0.80063  0.92434  0.49565  1.0000
  H   H4513     1.0  0.86869  0.98027  0.57698  1.0000
  H   H4514     1.0  0.85327  0.86199  0.54069  1.0000
  C   C5674     1.0  0.55384  0.79434  0.80918  1.0000
  H   H4515     1.0  0.83622  0.98227  0.54159  1.0000
  C   C5675     1.0  0.72561  0.97863  0.86363  1.0000
  H   H4516     1.0  0.49377  0.80870  0.91675  1.0000
  C   C5676     1.0  0.81366  0.90759  0.49380  1.0000
  C   C5677     1.0  0.64897  0.93946  0.97193  1.0000
  H   H4517     1.0  0.79226  0.91948  0.54300  1.0000
  H   H4518     1.0  0.81531  0.88974  0.53993  1.0000
  C   C5678     1.0  0.59522  0.89573  0.89447  1.0000
  C   C5679     1.0  0.60261  0.90209  0.90618  1.0000
  C   C5680     1.0  0.60846  0.88970  0.92194  1.0000
  H   H4519     1.0  0.53381  0.84739  0.93780  1.0000
  H   H4520     1.0  0.59085  0.90524  0.88210  1.0000
  H   H4521     1.0  0.60425  0.91652  0.90278  1.0000
  H   H4522     1.0  0.61458  0.89466  0.93068  1.0000
  Fe  Fe379     1.0  0.57462  0.95212  0.77662  1.0000
  H   H4523     1.0  0.78996  0.83810  0.55148  1.0000
  H   H4524     1.0  0.57634  0.87637  0.95744  1.0000
  H   H4525     1.0  0.60397  0.92585  0.93347  1.0000
  C   C5681     1.0  0.88220  0.89461  0.50210  1.0000
  H   H4526     1.0  0.65531  0.92917  0.82711  1.0000
  Fe  Fe380     1.0  0.93467  0.96065  0.61785  1.0000
  H   H4527     1.0  0.69326  0.84000  0.94096  1.0000
  Fe  Fe381     1.0  0.93073  0.96841  0.57747  1.0000
  C   C5682     1.0  0.58702  0.92593  0.96125  1.0000
  H   H4528     1.0  0.62970  0.97802  0.97305  1.0000
  H   H4529     1.0  0.86790  0.94447  0.57357  1.0000
  S   S757      1.0  0.97460  0.90613  0.58691  1.0000
  C   C5683     1.0  0.68180  0.92573  0.83454  1.0000
  H   H4530     1.0  0.74367  0.98319  0.83625  1.0000
  C   C5684     1.0  0.67837  0.84246  0.94151  1.0000
  C   C5685     1.0  0.60264  0.86602  0.96667  1.0000
  C   C5686     1.0  0.81385  0.97170  0.76108  1.0000
  H   H4531     1.0  0.82147  0.93221  0.54518  1.0000
  H   H4532     1.0  0.66061  0.97781  0.77177  1.0000
  C   C5687     1.0  0.87375  0.94547  0.67331  1.0000
  C   C5688     1.0  0.83137  0.93445  0.55198  1.0000
  C   C5689     1.0  0.76319  0.93738  0.81827  1.0000
  C   C5690     1.0  0.52978  0.79055  0.88431  1.0000
  H   H4533     1.0  0.81264  0.94125  0.60519  1.0000
  H   H4534     1.0  0.50062  0.96763  0.95016  1.0000
  C   C5691     1.0  0.60935  0.95248  0.82413  1.0000
  S   S758      1.0  0.54568  0.94680  0.77994  1.0000
  Fe  Fe382     1.0  0.82284  0.96152  0.50357  1.0000
  H   H4535     1.0  0.83031  0.93542  0.68791  1.0000
  H   H4536     1.0  0.88472  0.95414  0.62975  1.0000
  H   H4537     1.0  0.85924  0.94954  0.76211  1.0000
  C   C5692     1.0  0.83593  0.96332  0.67804  1.0000
  H   H4538     1.0  0.64482  0.87253  0.91980  1.0000
  C   C5693     1.0  0.61814  0.82022  0.93907  1.0000
  H   H4539     1.0  0.59323  0.91154  0.96672  1.0000
  H   H4540     1.0  0.81365  0.80873  0.55772  1.0000
  C   C5694     1.0  0.68807  0.89221  0.94437  1.0000
  P   P189      1.0  0.61433  0.85518  0.94676  1.0000
  C   C5695     1.0  0.60782  0.83292  0.95058  1.0000
  C   C5696     1.0  0.85994  0.93479  0.68029  1.0000
  H   H4541     1.0  0.78008  0.94131  0.62274  1.0000
  H   H4542     1.0  0.75620  0.92707  0.82867  1.0000
  C   C5697     1.0  0.51848  0.79652  0.87088  1.0000
  H   H4543     1.0  0.98680  0.93520  0.50984  1.0000
  H   H4544     1.0  0.88849  0.93868  0.67128  1.0000
  H   H4545     1.0  0.83063  0.96415  0.78221  1.0000
  P   P190      1.0  0.79296  0.98237  0.77590  1.0000
  H   H4546     1.0  0.71090  0.95643  0.81705  1.0000
  S   S759      1.0  0.79810  0.96774  0.52710  1.0000
  S   S760      1.0  0.66814  0.94568  0.87277  1.0000
  C   C5698     1.0  0.86257  0.92731  0.55797  1.0000
  Fe  Fe383     1.0  0.54048  0.95354  0.80841  1.0000
  C   C5699     1.0  0.88704  0.88723  0.51960  1.0000
  P   P191      1.0  0.51999  0.81761  0.85283  1.0000
  C   C5700     1.0  0.52853  0.80995  0.83084  1.0000
  C   C5701     1.0  0.49744  0.83347  0.85321  1.0000
  C   C5702     1.0  0.68038  0.87898  0.95923  1.0000
  H   H4547     1.0  0.79701  0.93437  0.48327  1.0000
  H   H4548     1.0  0.65489  0.94990  0.96076  1.0000
  S   S761      1.0  0.59099  0.96852  0.75053  1.0000
  H   H4549     1.0  0.54940  0.83614  0.82612  1.0000
  C   C5703     1.0  0.57341  0.93664  0.97294  1.0000
  H   H4550     1.0  0.67365  0.82048  0.96595  1.0000
  H   H4551     1.0  0.56825  0.78705  0.80557  1.0000
  C   C5704     1.0  0.52331  0.80703  0.80145  1.0000
  C   C5705     1.0  0.51660  0.81303  0.81845  1.0000
  C   C5706     1.0  0.62450  0.96501  0.84127  1.0000
  Fe  Fe384     1.0  0.95939  0.93491  0.59204  1.0000
  H   H4552     1.0  0.88974  0.90451  0.49172  1.0000
  H   H4553     1.0  0.68038  0.91287  0.84488  1.0000
  H   H4554     1.0  0.82123  0.96995  0.68006  1.0000
  C   C5707     1.0  0.54808  0.83857  0.83995  1.0000
  C   C5708     1.0  0.68928  0.95718  0.95596  1.0000
  S   S762      1.0  0.69506  0.86116  0.97219  1.0000
  H   H4555     1.0  0.92151  0.94236  0.55771  1.0000
  C   C5709     1.0  0.88860  0.96688  0.52267  1.0000
  C   C5710     1.0  0.85736  0.94159  0.56808  1.0000
  C   C5711     1.0  0.72117  0.95561  0.74980  1.0000
  H   H4556     1.0  0.58455  0.83731  0.97414  1.0000
  H   H4557     1.0  0.51391  0.80942  0.79202  1.0000
  H   H4558     1.0  0.50203  0.81977  0.82195  1.0000
  H   H4559     1.0  0.70800  0.92683  0.83998  1.0000
  H   H4560     1.0  0.86304  0.89653  0.48495  1.0000
  H   H4561     1.0  0.89903  0.98074  0.67852  1.0000
  C   C5712     1.0  0.69890  0.95046  0.81881  1.0000
  H   H4562     1.0  0.78934  0.91783  0.81253  1.0000
  H   H4563     1.0  0.65786  0.95876  0.80443  1.0000
  H   H4564     1.0  0.70893  0.97781  0.89162  1.0000
  C   C5713     1.0  0.86867  0.96503  0.66882  1.0000
  C   C5714     1.0  0.77119  0.97137  0.61603  1.0000
  H   H4565     1.0  0.53440  0.96577  0.93634  1.0000
  H   H4566     1.0  0.86394  0.91960  0.68374  1.0000
  C   C5715     1.0  0.59243  0.82817  0.96462  1.0000
  C   C5716     1.0  0.98829  0.93363  0.65337  1.0000
  H   H4567     1.0  0.62133  0.79313  0.93291  1.0000
  C   C5717     1.0  0.83893  0.95219  0.57052  1.0000
  H   H4568     1.0  0.49224  0.89325  0.91703  1.0000
  C   C5718     1.0  0.82602  0.94859  0.56226  1.0000
  C   C5719     1.0  0.83988  0.86858  0.48437  1.0000
  H   H4569     1.0  0.73925  0.96003  0.82153  1.0000
  H   H4570     1.0  0.55927  0.95734  0.84733  1.0000
  H   H4571     1.0  0.57612  0.95445  0.87218  1.0000
  C   C5720     1.0  0.69738  0.93355  0.83173  1.0000
  H   H4572     1.0  0.83073  0.95268  0.62282  1.0000
  C   C5721     1.0  0.84642  0.95485  0.73840  1.0000
  H   H4573     1.0  0.63952  0.82681  0.96809  1.0000
  C   C5722     1.0  0.50788  0.97706  0.95258  1.0000
  C   C5723     1.0  0.64795  0.83531  0.95696  1.0000
  H   H4574     1.0  0.53219  0.94261  0.85419  1.0000
  C   C5724     1.0  0.66918  0.95183  0.81164  1.0000
  C   C5725     1.0  0.83034  0.96385  0.76801  1.0000
  H   H4575     1.0  0.59853  0.85006  0.91687  1.0000
  H   H4576     1.0  0.50632  0.94739  0.90994  1.0000
  H   H4577     1.0  0.65529  0.86898  0.97398  1.0000
  C   C5726     1.0  0.86706  0.89004  0.49831  1.0000
  C   C5727     1.0  0.87819  0.96828  0.60279  1.0000
  C   C5728     1.0  0.78140  0.96452  0.79218  1.0000
  C   C5729     1.0  0.80272  0.95449  0.60563  1.0000
  S   S763      1.0  0.67691  0.95945  0.90711  1.0000
  C   C5730     1.0  0.66768  0.93491  0.82455  1.0000
  S   S764      1.0  0.96570  0.94982  0.61090  1.0000
  H   H4578     1.0  0.52735  0.88062  0.83934  1.0000
  C   C5731     1.0  0.87671  0.87527  0.53335  1.0000
  H   H4579     1.0  0.63488  0.89336  0.95499  1.0000
  H   H4580     1.0  0.89156  0.97242  0.59724  1.0000
  C   C5732     1.0  0.84103  0.94371  0.68260  1.0000
  H   H4581     1.0  0.85407  0.94454  0.64249  1.0000
  H   H4582     1.0  0.49337  0.93570  0.82822  1.0000
  H   H4583     1.0  0.84700  0.80757  0.54181  1.0000
  H   H4584     1.0  0.63021  0.82350  0.92833  1.0000
  C   C5733     1.0  0.87433  0.95791  0.62112  1.0000
  H   H4585     1.0  0.62029  0.97767  0.81315  1.0000
  C   C5734     1.0  0.84783  0.96728  0.59841  1.0000
  C   C5735     1.0  0.61306  0.80312  0.94147  1.0000
  C   C5736     1.0  0.58545  0.95250  0.93506  1.0000
  C   C5737     1.0  0.58735  0.81108  0.96690  1.0000
  H   H4586     1.0  0.59406  0.78508  0.95753  1.0000
  C   C5738     1.0  0.59308  0.93392  0.94242  1.0000
  S   S765      1.0  0.63458  0.97320  0.89725  1.0000
  H   H4587     1.0  0.52993  0.88569  0.86949  1.0000
  H   H4588     1.0  0.50050  0.86303  0.93840  1.0000
  H   H4589     1.0  0.57584  0.80718  0.97812  1.0000
  H   H4590     1.0  0.60473  0.95341  0.81149  1.0000
  H   H4591     1.0  0.59057  0.95811  0.92040  1.0000
  H   H4592     1.0  0.62835  0.93927  0.95710  1.0000
  H   H4593     1.0  0.50786  0.85382  0.82912  1.0000
  C   C5739     1.0  0.60705  0.87083  0.92608  1.0000
  C   C5740     1.0  0.65077  0.86092  0.92983  1.0000
  C   C5741     1.0  0.63947  0.85026  0.94429  1.0000
  H   H4594     1.0  0.56613  0.86243  0.86086  1.0000
  C   C5742     1.0  0.80826  0.97148  0.59614  1.0000
  C   C5743     1.0  0.84655  0.95550  0.75669  1.0000
  C   C5744     1.0  0.78186  0.93225  0.80924  1.0000
  C   C5745     1.0  0.61813  0.96627  0.82510  1.0000
  H   H4595     1.0  0.83005  0.96227  0.71718  1.0000
  C   C5746     1.0  0.84383  0.95726  0.61703  1.0000
  S   S766      1.0  0.71756  0.96033  0.85998  1.0000
  C   C5747     1.0  0.71126  0.95898  0.76750  1.0000
  H   H4596     1.0  0.75685  0.97136  0.62355  1.0000
  H   H4597     1.0  0.88023  0.86994  0.54707  1.0000
  C   C5748     1.0  0.66115  0.87961  0.96314  1.0000
  H   H4598     1.0  0.80546  0.94145  0.78959  1.0000
  H   H4599     1.0  0.72951  0.94179  0.74850  1.0000
  C   C5749     1.0  0.76261  0.96946  0.80120  1.0000
  S   S767      1.0  0.63473  0.98271  0.84270  1.0000
  H   H4600     1.0  0.85901  0.94844  0.72960  1.0000
  C   C5750     1.0  0.55755  0.85362  0.85947  1.0000
  C   C5751     1.0  0.49580  0.85034  0.83973  1.0000
  C   C5752     1.0  0.53308  0.83577  0.87288  1.0000
  C   C5753     1.0  0.57162  0.96337  0.94659  1.0000
  H   H4601     1.0  0.70025  0.96982  0.92732  1.0000
  C   C5754     1.0  0.54448  0.84664  0.87493  1.0000
  H   H4602     1.0  0.54296  0.84993  0.88842  1.0000
  P   P192      1.0  0.68712  0.98152  0.79183  1.0000
  C   C5755     1.0  0.85675  0.87783  0.51190  1.0000
  C   C5756     1.0  0.81387  0.97107  0.74264  1.0000
  C   C5757     1.0  0.68078  0.96015  0.97418  1.0000
  H   H4603     1.0  0.55517  0.96350  0.97478  1.0000
  S   S768      1.0  0.90958  0.98193  0.55917  1.0000
  H   H4604     1.0  0.76456  0.97555  0.76006  1.0000
  H   H4605     1.0  0.80146  0.97713  0.73683  1.0000
  C   C5758     1.0  0.70016  0.97677  0.76923  1.0000
  H   H4606     1.0  0.81040  0.87065  0.48620  1.0000
  C   C5759     1.0  0.92029  0.98330  0.65305  1.0000
  C   C5760     1.0  0.51383  0.98378  0.83567  1.0000
  H   H4607     1.0  0.86243  0.98370  0.69828  1.0000
  H   H4608     1.0  0.52959  0.78550  0.97151  1.0000
