data_image0
_chemical_formula_structural       FeS2FeS2FeSFeS3FeS2FeS2FeSFeS3FeS2FeSFeCS2FeS2FeCFeHS2C3H4C13H5PC3HCHCHC2HPHCHC5HC6H4C3HCH3C3PC18H6CH10C4HCHCHCHC2HC9HC6H4CH2C5HCH2C2PHCH3CPC2H2CH2CH2CHSHCHCH4C5HC4HC2HC4H8C3H3CHSC2H3CH2C2HC3HCHCH8C3H2C3HC3HC2SH4CHC2HC2H2CHC2H2CH2C4H3CHCHC2HC3HFeS2FeS2FeHFeS3FeS2FeS2FeSFeS3HSCH2SHC3HC2H3C5HCPHC6H4C5HC3HC2HCHC2H2CHCHC6H4CHCHCH7CH2CHC2HC4H2CH3CHCH2C2H2PHPHC6H3C4HC2H3C2HC2HCH4C2HCH3C3HC2H2CH2CHCHC2H2C4FeC2HC3HC2H4CH3C5H3C4H2C2HC3H2CHCHCH2C3HC13H5C7PC3HC4H2C3HPSC2HCHCHC2H2CHPC5HCSCH2C3HCH2CHC2H3CHCHC2H5C2H5C2PCHC5HC3FeSHFeS2FeSFeS3FeSHFeSHFeS2FeS2FeSFeS3FeS2FeS2FeSFeS3HCHC6HC2HC3H3C6H4SCH3C6H2C2HC2HCHC6H5CPC5HC6HC2H6C6PC18H13CH10CHC2H2C4HC7PSCH2C4H5CHCH2CHC3HC2H2CHPH2CHC2HC2H2CFeCHC2HCH4C3H4CH2C2H2CHC2HCHCHC2HC3HC2H4CH2C2H2C5H4CHC4SHSHC3HC3H3C3H4C2H4C4HC3HCHCH2C2HCH2C2PH2CHC3H3FeS2FeS2FeSFeS3H2SC2SFeS2FeS2FeSFeS3C2H2CHC5H3C6H2C6H4C2HCH2C6H5C2HC3FeC5H2CHC6HPC8HC4H2CH12CHC7PC6HPHCHC3HC4H4CH2CHCHC4PH8C2H2C7PC6H2C2HC2H2CSH6CH3CHCH6C2H2C4H2C2H3SHC4H3CHC3H2C2HCH2CHC2HC7H3CH2CPCH3C5H2C4HC2HC2H2CH3CH3C3H3CFeC5H2CHCH4C4H2CHC3H3C2H3C4H2C2HCHCH4CHCHFeS2FeS2FeSFeS3FeS2FeS2FeSFeS3FeS2C2H2PCFeS2CFeHCHFeSHC2HSFeSH2C2HC2HC7H4C3H2CSC5H2CH3C6H4C3HC6PC15HC2H8PH9C3H4CH2C2H5C4H2SHC10PCHCH2CHC9HCH3SC3H5CH3C7H2C3H2C3H2SHC3FeHCH2C2H3C2H2CH2CH2PC6PC18H2CH17C4H2CHCHCHC3H3CHCHC11H2PCHC4HCH3C2H6CHCH2CH2CHC3H2CHCHCHC2SHFeS2FeS2FeSFeS3FeS2FeS2FeSFeS3HSHCSCHC2HC3H2C6H4CHC3HCHC2H2C2H2CHC6H5C6HC2HC2H2CHFeCH3C5HCHC2SCHC3HC2HCPC2H2CH3CFeC4HC2H2C2HCHPC4H3C2H2C2H2C2HC4H2PCHCH2C4H2PC2HCH2C3HCHC2H4C3HC3HC6PC2HCH4CH7CH4CHC4HC10H2CH2C2H2CH3CH6CHC2H2CHCHC2HC2HC2H4C2HCH2C11H2CH4CH2CHCH3C2H2C3PC9HC8HC2H3C3H2CHCH6CH2CHCH9CSC3PCH3C2H6CPC2HFeS2FeS2FeSFeS3FeS2CFeCFeH2CFeS2CH5FeS2FeS2FeSFeS3C7H3C7H4CHCHCHCH2CHC2HC2HC2HCHC5H2CSPHSC6H3CH3C3HPC2HC12HCHC3H13C2H2C7SC4HCHCHC2PHC2H6CHCHC4HC2SC2H3C2FeC2H4C2H2C7PCH3C14H2CH2C3HCH9FeCS2HC3HC2H6CHCHPHC2H5SCHC3H2C2H2C2H3C4HC3HSC2H2PC3HCH4CPHCHC4H3C2HCHC3HCH2CH2FeS2FeS2FeSFeS3HS2CSFeS2FeS2FeSFeS3H2CHC3H2C3H2C6H4CH2C4H5C6H4C3H2CHPHC6PC8HC9HC2H2CH4CHCH8C4HC3PC2FeCHCH3C2HC3H3CHC2HC3PHCHC7PC9HC8H8CHCHCH3C2H2CH2CH3C2HPC5HC5HC6HCHCH2C2H5CH6C2HCHSHCHC6PHC2H2CHCH2CH2CH3C2HC2HC2H2CHCHCHC5H3C5HC2H2CHC3HCHCH2C3H2CHC4HC2HCHCHC3H3CH5C2H2CFeH4CHC2FeS2FeS2FeSFeS3FeS2FeS2FeSFeS3FeSPH2CFeS2FeS2CHC2H2C3HC8H5C2HCHC2H3C5H2C7H4C6H4C2H3CHSC2SH2CH3CHCHSHC5H2C2HPC4H5C2FeH2CH5C2HC3H5C2HC5HC4H2C3HCHCHC2HCHSHC6PCH2C6HC4SC4HCH2C2HC2H3C3H2C2H4C2H2C7PC14HC3H7CH3CH5CH6CH2CFeHCH3FeCH2C7H2C3HCH3CH5C2PC3HC4H3CH2C2HSHC2H2CH7CH4C2H4FeHCHFeS2FeS2FeSFeS3FeS2FeS2FeSFeS3HSCSHC2HC5H2C4H2CHCH2C6H4C3H2CH2C6H4C3H4CH3CHCHC3HCH5C4HC3H4CHC2H2C2HC8H2CH2CHCPCH2C3HC2HC2H3C2H3C3H2C2PCHC4H2C2HC3H2C2H2C3HC3H4C5FeHC7PC9HC8SH4C2H3C2HCH6CHC2H2C3H3CH2C2HCHCFeSH2CHC4H5PC3H6C3HCH2C5HC2HC4H9C2HCHC2HCH3CHC2FeS2FeS2FeSFeS3HFeS2HCFeSCSHSCFeSHFeS2FeS2FeS2FeSFeS3HC5HC2H3C8H4CHFeC3H3C2H2CHCHC7H4C2H4CPC4HPC12H3CHC2H8CHCHCHCFeSCH2CH2CH2C4HC7H2CHCH3CH3CHCHCHCH7CH3C2HPC4H2CH2SC2HC2HC4H3C4HCH6C2H2C5HC3HC3HC5H3PCHSC8H2C2H3CHC2H5CH5C2HPC14HC6HCH8C5H7CH2SH2C4H2CHCH2FeS2FeS2FeSFeS3CSH2SFeS2FeS2FeSFeS3H4C4HC5H3C8H5C2HC2H4C6H4C8H2CH8CHC2H2SC4HC2HCFeHCHC2HCHPH6CHCHC2HCHCHPC6PC2HCHPC8HC2H4C3H7CH2CSC6HSC2HC3H2C3HC2H2CHCHC4PC3HCHC7HCHC5H4C2H6CH2C4H2CHC3HC2HCHC6H2C10PHC2H6CHCH3PC2H5C2HCHC6HPCHCH2C3HC3HCHC3HCH3CHC2HCHC2FeS2FeS2FeSFeS3FeS2FeS2FeSFeS3FeS2CHFeCS2FeS2FeSH2CSHCH2C7H2C2H2C6H6CHC3HSC5HC3H2C7H4CSH4CH2CHC2H3C4H2CH4CPHCHSCHC3HC3H5C2H3C7PC5HC8H2CH11C6H5CHCH2C2HC2H5C4HCHC3H2PHFeH2C6H2C4H3CHC4H2CFeCH2C2H2CH2C2H2PCHPC20H4C2H3CHSCHCH2C3H3CH2C2HC2H2CHC4FeS2FeS2FeSFeS3FeS2FeS2FeSFeS3FeS2HS2HCH4C5H3C8H9C2PC2H2C4H2CHC6H4C3PH3C9H2CH4C4HCH10CHCH7C2HC8HC3H2CHCH4C3HCH3SC4H2C3HCHCHC2H3C2H2C2HFeHCH3C6H2CHC8HCHC2H3CH2C2HCHPHCPC3HCHCH2CHCH2CHC5HC3H2C6PC8H2C7H11CH6C6PC10HCHC2HC2PC2H2CHCHCH3C2H2CH3C2H2CFeS2FeS2FeSFeS3FeS2H3C2HFeS2H2C2SHFeS2FeS2FeSFeS3H3C2H2CHC6H9CHC2H2C5FeC5H3C6H4C3H3CHSHFeCPC4HC2HCH2C2H5C2H2CH3CHCHCHCHC2H2CHC4H2CH2CHPHC8PC10SC7HCSH9C2H8CHCHC2HC4FeHSH2CH3C3H2CH3C2SC2H3C2SH2CHC6PC7HCHC8H6CH4C2H7C6PC25H4C3H3C3HC4HC2H2CHC2HFeHC4HC4H3CHCHCH3C2H8C2HCHCHC2PCH3CFeS2FeS2FeSFeS3HCSC2SFeS2FeS2FeSFeS3CH5C5H2CHC6H6CH2C2H3C6H5C2SCH2C3PH4CH2CHCHCH4C2HSC11H4C2HCH2CH3C2HC2H4C4HC3H6C2HCHCHCH2C2HC3H2CH3CHCH3C2HCH3C2H2C2H2CHC2HC3HC2H3C2HC2HCHCH4C5H2C2H2C2HC3H2C2H2C2H5FeCHC2HC2H3CHC2HC6PCFeC3PC3H3C3HCHC3HCHC4H2CPCHCHC3HCH3CH5CHC2
_chemical_formula_sum              "Fe192 S384 C2880 H2304 P96"
_cell_length_a       59.3688
_cell_length_b       59.3082
_cell_length_c       75.4819
_cell_angle_alpha    86.4954
_cell_angle_beta     86.4379
_cell_angle_gamma    85.9572

_space_group_name_H-M_alt    "P 1"
_space_group_IT_number       1

loop_
  _space_group_symop_operation_xyz
  'x, y, z'

loop_
  _atom_site_type_symbol
  _atom_site_label
  _atom_site_symmetry_multiplicity
  _atom_site_fract_x
  _atom_site_fract_y
  _atom_site_fract_z
  _atom_site_occupancy
  Fe  Fe1       1.0  0.39944  0.08162  0.15117  1.0000
  S   S1        1.0  0.40813  0.04734  0.14052  1.0000
  S   S2        1.0  0.39833  0.11416  0.13276  1.0000
  Fe  Fe2       1.0  0.40110  0.06239  0.19122  1.0000
  S   S3        1.0  0.40958  0.02712  0.18226  1.0000
  S   S4        1.0  0.40695  0.06334  0.22109  1.0000
  Fe  Fe3       1.0  0.43328  0.04281  0.16168  1.0000
  S   S5        1.0  0.46908  0.02753  0.15861  1.0000
  Fe  Fe4       1.0  0.38355  0.03510  0.16233  1.0000
  S   S6        1.0  0.35554  0.01270  0.15782  1.0000
  S   S7        1.0  0.42623  0.07763  0.17130  1.0000
  S   S8        1.0  0.37314  0.06974  0.17217  1.0000
  Fe  Fe5       1.0  0.12580  0.37236  0.16374  1.0000
  S   S9        1.0  0.09109  0.38757  0.15763  1.0000
  S   S10       1.0  0.15414  0.36308  0.14250  1.0000
  Fe  Fe6       1.0  0.11684  0.37899  0.20484  1.0000
  S   S11       1.0  0.08205  0.39464  0.20074  1.0000
  S   S12       1.0  0.13224  0.37861  0.23209  1.0000
  Fe  Fe7       1.0  0.07884  0.36735  0.18208  1.0000
  S   S13       1.0  0.04606  0.35033  0.18757  1.0000
  Fe  Fe8       1.0  0.09761  0.41326  0.17699  1.0000
  S   S14       1.0  0.08597  0.44977  0.17208  1.0000
  S   S15       1.0  0.11311  0.35004  0.18736  1.0000
  S   S16       1.0  0.13285  0.39956  0.18191  1.0000
  Fe  Fe9       1.0  0.18729  0.35736  0.03459  1.0000
  S   S17       1.0  0.22321  0.36656  0.03613  1.0000
  S   S18       1.0  0.15941  0.35668  0.05750  1.0000
  Fe  Fe10      1.0  0.23201  0.34150  0.01453  1.0000
  S   S19       1.0  0.26312  0.31480  0.01409  1.0000
  Fe  Fe11      1.0  0.21617  0.39291  0.01366  1.0000
  C   C1        1.0  0.30240  0.25408  0.01067  1.0000
  S   S20       1.0  0.19590  0.33126  0.01383  1.0000
  S   S21       1.0  0.18000  0.38446  0.01325  1.0000
  Fe  Fe12      1.0  0.38087  0.15937  0.02925  1.0000
  S   S22       1.0  0.39303  0.19392  0.03219  1.0000
  S   S23       1.0  0.37492  0.13043  0.05058  1.0000
  Fe  Fe13      1.0  0.41988  0.18573  0.01054  1.0000
  C   C2        1.0  0.22080  0.42777  0.09475  1.0000
  Fe  Fe14      1.0  0.37037  0.20587  0.00967  1.0000
  H   H1        1.0  0.16213  0.47424  0.03714  1.0000
  S   S24       1.0  0.40836  0.15088  0.00868  1.0000
  S   S25       1.0  0.35678  0.17126  0.00786  1.0000
  C   C3        1.0  0.28660  0.29348  0.01367  1.0000
  C   C4        1.0  0.30879  0.29969  0.01513  1.0000
  C   C5        1.0  0.32747  0.28343  0.01430  1.0000
  H   H2        1.0  0.13328  0.43070  0.15000  1.0000
  H   H3        1.0  0.13123  0.40638  0.12498  1.0000
  H   H4        1.0  0.07712  0.40383  0.06320  1.0000
  H   H5        1.0  0.45991  0.17245  0.22851  1.0000
  C   C6        1.0  0.28364  0.27045  0.01134  1.0000
  C   C7        1.0  0.46505  0.18297  0.09879  1.0000
  C   C8        1.0  0.34347  0.10954  0.01091  1.0000
  C   C9        1.0  0.13921  0.45642  0.10155  1.0000
  C   C10       1.0  0.07741  0.41061  0.09093  1.0000
  C   C11       1.0  0.38307  0.02894  0.08921  1.0000
  C   C12       1.0  0.13609  0.43330  0.10481  1.0000
  C   C13       1.0  0.15553  0.36272  0.11871  1.0000
  C   C14       1.0  0.13641  0.36718  0.10878  1.0000
  C   C15       1.0  0.13824  0.36647  0.09007  1.0000
  C   C16       1.0  0.15902  0.36058  0.08090  1.0000
  C   C17       1.0  0.17828  0.35663  0.09075  1.0000
  C   C18       1.0  0.17651  0.35771  0.10949  1.0000
  H   H6        1.0  0.12016  0.37093  0.11557  1.0000
  H   H7        1.0  0.12336  0.37036  0.08263  1.0000
  H   H8        1.0  0.19442  0.35206  0.08401  1.0000
  H   H9        1.0  0.19148  0.35419  0.11692  1.0000
  H   H10       1.0  0.29967  0.23653  0.00896  1.0000
  P   P1        1.0  0.45498  0.12694  0.21558  1.0000
  C   C19       1.0  0.10455  0.46951  0.17766  1.0000
  C   C20       1.0  0.12716  0.46317  0.18080  1.0000
  C   C21       1.0  0.14210  0.47964  0.18381  1.0000
  H   H11       1.0  0.14136  0.46302  0.08793  1.0000
  C   C22       1.0  0.99522  0.49374  0.14224  1.0000
  H   H12       1.0  0.13342  0.44576  0.18040  1.0000
  C   C23       1.0  0.13494  0.43789  0.13649  1.0000
  H   H13       1.0  0.48775  0.22937  0.07108  1.0000
  C   C24       1.0  0.02480  0.36693  0.15753  1.0000
  C   C25       1.0  0.02236  0.35828  0.17512  1.0000
  H   H14       1.0  0.42267  0.20557  0.08984  1.0000
  P   P2        1.0  0.00879  0.46546  0.14145  1.0000
  H   H15       1.0  0.04141  0.37016  0.15165  1.0000
  C   C26       1.0  0.48234  0.12753  0.99691  1.0000
  H   H16       1.0  0.30706  0.42981  0.05892  1.0000
  C   C27       1.0  0.14706  0.44448  0.22950  1.0000
  C   C28       1.0  0.23801  0.48592  0.06113  1.0000
  C   C29       1.0  0.44665  0.17247  0.10748  1.0000
  C   C30       1.0  0.48577  0.00895  0.23124  1.0000
  C   C31       1.0  0.13368  0.42416  0.12229  1.0000
  H   H17       1.0  0.46699  0.05549  0.10748  1.0000
  C   C32       1.0  0.39255  0.11802  0.10970  1.0000
  C   C33       1.0  0.38694  0.10024  0.09976  1.0000
  C   C34       1.0  0.38188  0.10434  0.08172  1.0000
  C   C35       1.0  0.38272  0.12613  0.07318  1.0000
  C   C36       1.0  0.38884  0.14379  0.08302  1.0000
  C   C37       1.0  0.39343  0.13978  0.10116  1.0000
  H   H18       1.0  0.38604  0.08344  0.10607  1.0000
  H   H19       1.0  0.37705  0.09056  0.07434  1.0000
  H   H20       1.0  0.38938  0.16067  0.07678  1.0000
  H   H21       1.0  0.39721  0.15376  0.10875  1.0000
  C   C38       1.0  0.06265  0.33723  0.23733  1.0000
  C   C39       1.0  0.01541  0.43090  0.16792  1.0000
  C   C40       1.0  0.43180  0.12759  0.20105  1.0000
  H   H22       1.0  0.37437  0.02561  0.21495  1.0000
  C   C41       1.0  0.46256  0.08150  0.20784  1.0000
  H   H23       1.0  0.45291  0.12221  0.12577  1.0000
  H   H24       1.0  0.15970  0.47476  0.18581  1.0000
  H   H25       1.0  0.26682  0.26523  0.01013  1.0000
  C   C42       1.0  0.07318  0.37827  0.11173  1.0000
  C   C43       1.0  0.07256  0.36405  0.09760  1.0000
  C   C44       1.0  0.07333  0.37355  0.08008  1.0000
  P   P3        1.0  0.06907  0.33422  0.10225  1.0000
  C   C45       1.0  0.08547  0.32546  0.12122  1.0000
  C   C46       1.0  0.03947  0.33017  0.10753  1.0000
  C   C47       1.0  0.03294  0.31051  0.11729  1.0000
  C   C48       1.0  0.25954  0.48121  0.01060  1.0000
  C   C49       1.0  0.47205  0.16963  0.21748  1.0000
  C   C50       1.0  0.48789  0.04865  0.16030  1.0000
  C   C51       1.0  0.02276  0.34669  0.10215  1.0000
  C   C52       1.0  0.10878  0.31964  0.11895  1.0000
  C   C53       1.0  0.12167  0.31434  0.13370  1.0000
  C   C54       1.0  0.11142  0.31461  0.15084  1.0000
  C   C55       1.0  0.08828  0.32045  0.15328  1.0000
  C   C56       1.0  0.07538  0.32607  0.13857  1.0000
  C   C57       1.0  0.07940  0.31812  0.08339  1.0000
  C   C58       1.0  0.09960  0.32330  0.07380  1.0000
  C   C59       1.0  0.10766  0.31099  0.05925  1.0000
  C   C60       1.0  0.09561  0.29334  0.05409  1.0000
  C   C61       1.0  0.07547  0.28802  0.06351  1.0000
  C   C62       1.0  0.06737  0.30033  0.07810  1.0000
  H   H26       1.0  0.23007  0.41277  0.04420  1.0000
  H   H27       1.0  0.07188  0.37147  0.12535  1.0000
  H   H28       1.0  0.07205  0.36312  0.06895  1.0000
  H   H29       1.0  0.04555  0.29750  0.12149  1.0000
  H   H30       1.0  0.00788  0.37600  0.13340  1.0000
  H   H31       1.0  0.07608  0.33800  0.22692  1.0000
  C   C63       1.0  0.43573  0.13700  0.05166  1.0000
  H   H32       1.0  0.02723  0.36198  0.09460  1.0000
  H   H33       1.0  0.11736  0.31976  0.10591  1.0000
  H   H34       1.0  0.13978  0.31061  0.13186  1.0000
  H   H35       1.0  0.12156  0.31074  0.16223  1.0000
  H   H36       1.0  0.08037  0.32105  0.16660  1.0000
  H   H37       1.0  0.05766  0.33132  0.14089  1.0000
  H   H38       1.0  0.10926  0.33682  0.07750  1.0000
  H   H39       1.0  0.06613  0.27432  0.05949  1.0000
  H   H40       1.0  0.05175  0.29587  0.08512  1.0000
  H   H41       1.0  0.36995  0.03376  0.11613  1.0000
  C   C64       1.0  0.44520  0.16904  0.12596  1.0000
  C   C65       1.0  0.41632  0.13606  0.17217  1.0000
  C   C66       1.0  0.13981  0.46741  0.22828  1.0000
  C   C67       1.0  0.01010  0.30771  0.12197  1.0000
  H   H42       1.0  0.19477  0.47743  0.01132  1.0000
  C   C68       1.0  0.08220  0.44743  0.22421  1.0000
  H   H43       1.0  0.43794  0.10112  0.05787  1.0000
  C   C69       1.0  0.03017  0.45953  0.19226  1.0000
  H   H44       1.0  0.18628  0.47603  0.12202  1.0000
  C   C70       1.0  0.48063  0.07122  0.15666  1.0000
  H   H45       1.0  0.44517  0.08237  0.20437  1.0000
  C   C71       1.0  0.44457  0.11716  0.06024  1.0000
  C   C72       1.0  0.22695  0.45829  0.01129  1.0000
  H   H46       1.0  0.42018  0.15843  0.23112  1.0000
  C   C73       1.0  0.43449  0.13545  0.18317  1.0000
  C   C74       1.0  0.16943  0.45957  0.04449  1.0000
  C   C75       1.0  0.15953  0.43888  0.04461  1.0000
  C   C76       1.0  0.16927  0.41984  0.05373  1.0000
  C   C77       1.0  0.18909  0.42132  0.06253  1.0000
  C   C78       1.0  0.19935  0.44199  0.06231  1.0000
  C   C79       1.0  0.18926  0.46116  0.05329  1.0000
  C   C80       1.0  0.49492  0.19368  0.06693  1.0000
  C   C81       1.0  0.48933  0.14634  0.19439  1.0000
  H   H47       1.0  0.48788  0.10604  0.15804  1.0000
  C   C82       1.0  0.36758  0.00970  0.21975  1.0000
  C   C83       1.0  0.23609  0.40980  0.10004  1.0000
  C   C84       1.0  0.20071  0.43204  0.10519  1.0000
  C   C85       1.0  0.32460  0.26039  0.01213  1.0000
  C   C86       1.0  0.47326  0.14937  0.20867  1.0000
  C   C87       1.0  0.27130  0.43578  0.06520  1.0000
  H   H48       1.0  0.01975  0.49079  0.10788  1.0000
  H   H49       1.0  0.14461  0.43742  0.03731  1.0000
  H   H50       1.0  0.16178  0.40374  0.05358  1.0000
  H   H51       1.0  0.19656  0.40617  0.06924  1.0000
  C   C88       1.0  0.23127  0.39633  0.11551  1.0000
  H   H52       1.0  0.43071  0.16113  0.13239  1.0000
  H   H53       1.0  0.13582  0.42233  0.09384  1.0000
  C   C89       1.0  0.44641  0.20788  0.06683  1.0000
  C   C90       1.0  0.01572  0.45426  0.16344  1.0000
  C   C91       1.0  0.42623  0.21350  0.07682  1.0000
  C   C92       1.0  0.99661  0.43851  0.11479  1.0000
  C   C93       1.0  0.41081  0.11995  0.20756  1.0000
  H   H54       1.0  0.47508  0.01379  0.22032  1.0000
  C   C94       1.0  0.35814  0.00723  0.23712  1.0000
  H   H55       1.0  0.13810  0.43220  0.22306  1.0000
  H   H56       1.0  0.09284  0.41334  0.23291  1.0000
  C   C95       1.0  0.45994  0.15917  0.06748  1.0000
  C   C96       1.0  0.46935  0.13905  0.07561  1.0000
  P   P4        1.0  0.46691  0.18613  0.07480  1.0000
  H   H57       1.0  0.25139  0.40562  0.09204  1.0000
  C   C97       1.0  0.09666  0.49221  0.17834  1.0000
  H   H58       1.0  0.36648  0.09009  0.23505  1.0000
  H   H59       1.0  0.03556  0.42932  0.20925  1.0000
  H   H60       1.0  0.04070  0.36216  0.22393  1.0000
  C   C98       1.0  0.24673  0.41653  0.04762  1.0000
  P   P5        1.0  0.22515  0.44342  0.07364  1.0000
  C   C99       1.0  0.07601  0.39672  0.07677  1.0000
  C   C100      1.0  0.45738  0.08869  0.11651  1.0000
  H   H61       1.0  0.37850  0.04623  0.08457  1.0000
  H   H62       1.0  0.48212  0.13967  0.08513  1.0000
  C   C101      1.0  0.02966  0.43632  0.19664  1.0000
  H   H63       1.0  0.19671  0.47729  0.05267  1.0000
  H   H64       1.0  0.02250  0.40393  0.18765  1.0000
  C   C102      1.0  0.22891  0.48194  0.09286  1.0000
  H   H65       1.0  0.26337  0.39587  0.02757  1.0000
  H   H66       1.0  0.00516  0.29278  0.12982  1.0000
  C   C103      1.0  0.16587  0.43731  0.23910  1.0000
  H   H67       1.0  0.46159  0.17230  0.15027  1.0000
  S   S26       1.0  0.34937  0.24068  0.01108  1.0000
  H   H68       1.0  0.46779  0.10282  0.07910  1.0000
  C   C104      1.0  0.37731  0.08534  0.24586  1.0000
  H   H69       1.0  0.24282  0.38214  0.11932  1.0000
  C   C105      1.0  0.48679  0.18651  0.21211  1.0000
  H   H70       1.0  0.46879  0.04731  0.19998  1.0000
  H   H71       1.0  0.07677  0.41202  0.11945  1.0000
  H   H72       1.0  0.03645  0.47053  0.20148  1.0000
  H   H73       1.0  0.48582  0.20212  0.21893  1.0000
  C   C106      1.0  0.21288  0.47841  0.01122  1.0000
  C   C107      1.0  0.03483  0.46786  0.12795  1.0000
  C   C108      1.0  0.05499  0.45639  0.13323  1.0000
  C   C109      1.0  0.07528  0.45944  0.12327  1.0000
  C   C110      1.0  0.07558  0.47355  0.10776  1.0000
  H   H74       1.0  0.49479  0.19004  0.13510  1.0000
  C   C111      1.0  0.49455  0.09879  0.21837  1.0000
  C   C112      1.0  0.44996  0.21831  0.04978  1.0000
  C   C113      1.0  0.46255  0.17533  0.13594  1.0000
  C   C114      1.0  0.44323  0.15794  0.05529  1.0000
  H   H75       1.0  0.23993  0.47891  0.04814  1.0000
  C   C115      1.0  0.47268  0.07201  0.10964  1.0000
  C   C116      1.0  0.39274  0.12051  0.19650  1.0000
  H   H76       1.0  0.18043  0.42166  0.12862  1.0000
  C   C117      1.0  0.39773  0.07259  0.24257  1.0000
  C   C118      1.0  0.39545  0.12867  0.17881  1.0000
  C   C119      1.0  0.03517  0.48188  0.11225  1.0000
  C   C120      1.0  0.19606  0.41864  0.12071  1.0000
  H   H77       1.0  0.05523  0.44530  0.14516  1.0000
  H   H78       1.0  0.09078  0.45100  0.12783  1.0000
  H   H79       1.0  0.09139  0.47599  0.10019  1.0000
  H   H80       1.0  0.12534  0.47300  0.22069  1.0000
  H   H81       1.0  0.27975  0.47349  0.23752  1.0000
  H   H82       1.0  0.43980  0.08521  0.11952  1.0000
  H   H83       1.0  0.40084  0.25126  0.04721  1.0000
  H   H84       1.0  0.27375  0.44692  0.07566  1.0000
  C   C121      1.0  0.48757  0.11423  0.11641  1.0000
  C   C122      1.0  0.29021  0.42609  0.05576  1.0000
  C   C123      1.0  0.18457  0.49163  0.12881  1.0000
  H   H85       1.0  0.22408  0.47186  0.10471  1.0000
  H   H86       1.0  0.42239  0.13620  0.04267  1.0000
  H   H87       1.0  0.46465  0.07534  0.15094  1.0000
  C   C124      1.0  0.13995  0.47044  0.11585  1.0000
  H   H88       1.0  0.30200  0.40411  0.03492  1.0000
  S   S27       1.0  0.21422  0.43194  0.01159  1.0000
  C   C125      1.0  0.07583  0.40139  0.10840  1.0000
  C   C126      1.0  0.23084  0.47255  0.07616  1.0000
  H   H89       1.0  0.10192  0.28381  0.04281  1.0000
  H   H90       1.0  0.45058  0.14076  0.17758  1.0000
  H   H91       1.0  0.27769  0.48220  0.01026  1.0000
  C   C127      1.0  0.32147  0.11946  0.01019  1.0000
  H   H92       1.0  0.43344  0.16678  0.09989  1.0000
  H   H93       1.0  0.34433  0.28877  0.01543  1.0000
  C   C128      1.0  0.40998  0.22925  0.06980  1.0000
  C   C129      1.0  0.00580  0.37013  0.14721  1.0000
  H   H94       1.0  0.10480  0.49239  0.13818  1.0000
  C   C130      1.0  0.39373  0.01361  0.07750  1.0000
  C   C131      1.0  0.48306  0.19457  0.01082  1.0000
  C   C132      1.0  0.49399  0.08856  0.16041  1.0000
  H   H95       1.0  0.46508  0.21385  0.04167  1.0000
  C   C133      1.0  0.41370  0.23950  0.05281  1.0000
  H   H96       1.0  0.07225  0.48265  0.21941  1.0000
  C   C134      1.0  0.13833  0.46084  0.13331  1.0000
  H   H97       1.0  0.39424  0.23318  0.07739  1.0000
  H   H98       1.0  0.20715  0.38987  0.13752  1.0000
  H   H99       1.0  0.29596  0.36485  0.00193  1.0000
  H   H100      1.0  0.31166  0.31725  0.01691  1.0000
  H   H101      1.0  0.47587  0.13262  0.00992  1.0000
  H   H102      1.0  0.43646  0.24157  0.02947  1.0000
  H   H103      1.0  0.26146  0.44456  0.01103  1.0000
  H   H104      1.0  0.07962  0.42851  0.08836  1.0000
  C   C135      1.0  0.47181  0.10044  0.21395  1.0000
  C   C136      1.0  0.46144  0.11818  0.07216  1.0000
  C   C137      1.0  0.26565  0.40690  0.03816  1.0000
  H   H105      1.0  0.49297  0.13058  0.11933  1.0000
  H   H106      1.0  0.08100  0.44349  0.21048  1.0000
  C   C138      1.0  0.46485  0.10967  0.12003  1.0000
  C   C139      1.0  0.43373  0.23405  0.04282  1.0000
  C   C140      1.0  0.25037  0.49517  0.23112  1.0000
  H   H107      1.0  0.13952  0.47119  0.14452  1.0000
  C   C141      1.0  0.04269  0.35092  0.23567  1.0000
  C   C142      1.0  0.08885  0.43046  0.23682  1.0000
  C   C143      1.0  0.47590  0.06140  0.20564  1.0000
  H   H108      1.0  0.12335  0.31522  0.05202  1.0000
  C   C144      1.0  0.21122  0.40069  0.12579  1.0000
  C   C145      1.0  0.28738  0.41164  0.04224  1.0000
  S   S28       1.0  0.45805  0.17974  0.01337  1.0000
  H   H109      1.0  0.43549  0.17305  0.04885  1.0000
  H   H110      1.0  0.31209  0.12396  0.02239  1.0000
  H   H111      1.0  0.37678  0.11414  0.20156  1.0000
  H   H112      1.0  0.41845  0.14160  0.15831  1.0000
  C   C146      1.0  0.24939  0.43105  0.06117  1.0000
  H   H113      1.0  0.35112  0.10653  0.02361  1.0000
  C   C147      1.0  0.42498  0.00338  0.22748  1.0000
  C   C148      1.0  0.07731  0.46954  0.22928  1.0000
  H   H114      1.0  0.40841  0.11314  0.22112  1.0000
  C   C149      1.0  0.44281  0.12939  0.23800  1.0000
  C   C150      1.0  0.02333  0.46847  0.17572  1.0000
  H   H115      1.0  0.18838  0.44530  0.10102  1.0000
  H   H116      1.0  0.38162  0.12865  0.17007  1.0000
  C   C151      1.0  0.02228  0.42203  0.18448  1.0000
  H   H117      1.0  0.39740  0.01906  0.06373  1.0000
  C   C152      1.0  0.42557  0.14626  0.24157  1.0000
  C   C153      1.0  0.48296  0.21766  0.00578  1.0000
  H   H118      1.0  0.02443  0.48638  0.17247  1.0000
  H   H119      1.0  0.42719  0.01712  0.21753  1.0000
  C   C154      1.0  0.25038  0.45981  0.01102  1.0000
  H   H120      1.0  0.17123  0.41942  0.24016  1.0000
  H   H121      1.0  0.01167  0.44337  0.10715  1.0000
  C   C155      1.0  0.37829  0.02197  0.10697  1.0000
  C   C156      1.0  0.05550  0.48470  0.10221  1.0000
  C   C157      1.0  0.48121  0.18538  0.12739  1.0000
  C   C158      1.0  0.48242  0.18933  0.10888  1.0000
  H   H122      1.0  0.49064  0.13083  0.18739  1.0000
  H   H123      1.0  0.21592  0.48457  0.14171  1.0000
  H   H124      1.0  0.46722  0.22701  0.00280  1.0000
  C   C159      1.0  0.41358  0.00778  0.24377  1.0000
  H   H125      1.0  0.99880  0.34808  0.19642  1.0000
  C   C160      1.0  0.17076  0.47629  0.24581  1.0000
  H   H126      1.0  0.01046  0.41934  0.15852  1.0000
  C   C161      1.0  0.15150  0.48323  0.23642  1.0000
  C   C162      1.0  0.99993  0.34376  0.10678  1.0000
  H   H127      1.0  0.35806  0.02145  0.24536  1.0000
  C   C163      1.0  0.26212  0.47806  0.24106  1.0000
  C   C164      1.0  0.38426  0.99976  0.11305  1.0000
  C   C165      1.0  0.00068  0.35441  0.18271  1.0000
  H   H128      1.0  0.08514  0.37417  0.24567  1.0000
  Fe  Fe15      1.0  0.38405  0.08029  0.36654  1.0000
  S   S29       1.0  0.41968  0.06637  0.37093  1.0000
  S   S30       1.0  0.35434  0.08020  0.38775  1.0000
  Fe  Fe16      1.0  0.39371  0.08517  0.32520  1.0000
  S   S31       1.0  0.42985  0.07185  0.32700  1.0000
  S   S32       1.0  0.37658  0.09528  0.29913  1.0000
  Fe  Fe17      1.0  0.41643  0.04616  0.34725  1.0000
  H   H129      1.0  0.39516  0.04614  0.40400  1.0000
  Fe  Fe18      1.0  0.43046  0.09317  0.35044  1.0000
  S   S33       1.0  0.46091  0.11347  0.35304  1.0000
  S   S34       1.0  0.38012  0.05781  0.34394  1.0000
  S   S35       1.0  0.39499  0.10893  0.34743  1.0000
  Fe  Fe19      1.0  0.07163  0.39625  0.37278  1.0000
  S   S36       1.0  0.07517  0.36155  0.36232  1.0000
  S   S37       1.0  0.03777  0.41045  0.38373  1.0000
  Fe  Fe20      1.0  0.12085  0.40343  0.36478  1.0000
  S   S38       1.0  0.12822  0.36896  0.35369  1.0000
  S   S39       1.0  0.14955  0.42599  0.36680  1.0000
  Fe  Fe21      1.0  0.09607  0.37728  0.33931  1.0000
  S   S40       1.0  0.08480  0.37371  0.31095  1.0000
  Fe  Fe22      1.0  0.10661  0.35652  0.37774  1.0000
  S   S41       1.0  0.11116  0.32369  0.39549  1.0000
  S   S42       1.0  0.09034  0.41236  0.34920  1.0000
  S   S43       1.0  0.10156  0.39040  0.38945  1.0000
  H   H130      1.0  0.00804  0.27425  0.42827  1.0000
  S   S44       1.0  0.33866  0.10417  0.46977  1.0000
  C   C166      1.0  0.44880  0.11331  0.25161  1.0000
  H   H131      1.0  0.14981  0.37978  0.26671  1.0000
  H   H132      1.0  0.03758  0.42091  0.31984  1.0000
  S   S45       1.0  0.12166  0.31393  0.47987  1.0000
  H   H133      1.0  0.33792  0.05071  0.45320  1.0000
  C   C167      1.0  0.47009  0.16777  0.28230  1.0000
  C   C168      1.0  0.09849  0.37517  0.28920  1.0000
  C   C169      1.0  0.08543  0.37397  0.27436  1.0000
  H   H134      1.0  0.21951  0.22076  0.47899  1.0000
  C   C170      1.0  0.13178  0.37825  0.26876  1.0000
  C   C171      1.0  0.12175  0.37737  0.28627  1.0000
  H   H135      1.0  0.06743  0.37225  0.27637  1.0000
  H   H136      1.0  0.38360  0.09840  0.41275  1.0000
  H   H137      1.0  0.13206  0.37815  0.29750  1.0000
  C   C172      1.0  0.14891  0.45591  0.36567  1.0000
  C   C173      1.0  0.16794  0.46556  0.37112  1.0000
  C   C174      1.0  0.06566  0.36718  0.43613  1.0000
  C   C175      1.0  0.15052  0.42538  0.28844  1.0000
  C   C176      1.0  0.13073  0.47015  0.35953  1.0000
  H   H138      1.0  0.18208  0.45477  0.37578  1.0000
  C   C177      1.0  0.04885  0.47918  0.29577  1.0000
  P   P6        1.0  0.00500  0.33330  0.28116  1.0000
  H   H139      1.0  0.11601  0.46284  0.35514  1.0000
  C   C178      1.0  0.11376  0.32130  0.41902  1.0000
  C   C179      1.0  0.10988  0.30060  0.42854  1.0000
  C   C180      1.0  0.11212  0.29795  0.44713  1.0000
  C   C181      1.0  0.11855  0.31596  0.45643  1.0000
  C   C182      1.0  0.12260  0.33657  0.44688  1.0000
  C   C183      1.0  0.12024  0.33924  0.42834  1.0000
  H   H140      1.0  0.10504  0.28653  0.42149  1.0000
  H   H141      1.0  0.10891  0.28200  0.45423  1.0000
  H   H142      1.0  0.12770  0.35059  0.45386  1.0000
  H   H143      1.0  0.12371  0.35512  0.42122  1.0000
  C   C184      1.0  0.17759  0.45309  0.24732  1.0000
  C   C185      1.0  0.02626  0.39173  0.35406  1.0000
  C   C186      1.0  0.01841  0.39952  0.37053  1.0000
  C   C187      1.0  0.18126  0.23843  0.39674  1.0000
  C   C188      1.0  0.99598  0.39668  0.37676  1.0000
  H   H144      1.0  0.04322  0.39459  0.34885  1.0000
  C   C189      1.0  0.08381  0.45904  0.41318  1.0000
  C   C190      1.0  0.38471  0.08593  0.27751  1.0000
  C   C191      1.0  0.40491  0.07302  0.27420  1.0000
  H   H145      1.0  0.40675  0.02924  0.30535  1.0000
  C   C192      1.0  0.03737  0.34761  0.45475  1.0000
  C   C193      1.0  0.37095  0.09212  0.26321  1.0000
  H   H146      1.0  0.41567  0.06867  0.28501  1.0000
  C   C194      1.0  0.30474  0.00109  0.43909  1.0000
  H   H147      1.0  0.35528  0.10222  0.26558  1.0000
  C   C195      1.0  0.05829  0.34466  0.49500  1.0000
  C   C196      1.0  0.06319  0.46685  0.35383  1.0000
  H   H148      1.0  0.05877  0.45382  0.43489  1.0000
  H   H149      1.0  0.05803  0.27402  0.42471  1.0000
  C   C197      1.0  0.00402  0.43960  0.27685  1.0000
  H   H150      1.0  0.04969  0.28330  0.48971  1.0000
  C   C198      1.0  0.13235  0.43788  0.28084  1.0000
  H   H151      1.0  0.43634  0.16193  0.29304  1.0000
  C   C199      1.0  0.35014  0.08796  0.41032  1.0000
  C   C200      1.0  0.32881  0.08566  0.41930  1.0000
  C   C201      1.0  0.32485  0.09082  0.43733  1.0000
  C   C202      1.0  0.34230  0.09811  0.44678  1.0000
  C   C203      1.0  0.36352  0.10079  0.43770  1.0000
  C   C204      1.0  0.36738  0.09587  0.41960  1.0000
  H   H152      1.0  0.31524  0.07974  0.41227  1.0000
  H   H153      1.0  0.30837  0.08889  0.44398  1.0000
  H   H154      1.0  0.37707  0.10676  0.44473  1.0000
  H   H155      1.0  0.09343  0.49302  0.31205  1.0000
  C   C205      1.0  0.45422  0.16001  0.29531  1.0000
  H   H156      1.0  0.46449  0.17527  0.26974  1.0000
  C   C206      1.0  0.06547  0.46116  0.29475  1.0000
  H   H157      1.0  0.23917  0.00168  0.25707  1.0000
  C   C207      1.0  0.12651  0.19377  0.48582  1.0000
  H   H158      1.0  0.08319  0.36944  0.43201  1.0000
  H   H159      1.0  0.36955  0.03014  0.38457  1.0000
  H   H160      1.0  0.05924  0.45175  0.34762  1.0000
  H   H161      1.0  0.25946  0.17760  0.44658  1.0000
  H   H162      1.0  0.01287  0.29334  0.25947  1.0000
  H   H163      1.0  0.41077  0.13019  0.28458  1.0000
  H   H164      1.0  0.18071  0.24415  0.38284  1.0000
  C   C208      1.0  0.32893  0.03672  0.44932  1.0000
  H   H165      1.0  0.38357  0.01341  0.35608  1.0000
  H   H166      1.0  0.00378  0.24504  0.45256  1.0000
  C   C209      1.0  0.06360  0.25863  0.45080  1.0000
  H   H167      1.0  0.01286  0.38688  0.42549  1.0000
  C   C210      1.0  0.35902  0.01466  0.30630  1.0000
  C   C211      1.0  0.49274  0.10018  0.28269  1.0000
  H   H168      1.0  0.33768  0.06212  0.28399  1.0000
  C   C212      1.0  0.01256  0.37938  0.34450  1.0000
  C   C213      1.0  0.48441  0.14759  0.31447  1.0000
  C   C214      1.0  0.11642  0.43188  0.41311  1.0000
  C   C215      1.0  0.06094  0.43995  0.30301  1.0000
  H   H169      1.0  0.37628  0.01839  0.45590  1.0000
  H   H170      1.0  0.10769  0.18557  0.44523  1.0000
  C   C216      1.0  0.04016  0.48844  0.40916  1.0000
  H   H171      1.0  0.01931  0.37238  0.33225  1.0000
  H   H172      1.0  0.27549  0.02752  0.41973  1.0000
  H   H173      1.0  0.40920  0.08229  0.48227  1.0000
  C   C217      1.0  0.39048  0.02894  0.40694  1.0000
  H   H174      1.0  0.26022  0.45358  0.26329  1.0000
  C   C218      1.0  0.41419  0.14666  0.25836  1.0000
  H   H175      1.0  0.06728  0.24798  0.47832  1.0000
  H   H176      1.0  0.31022  0.03313  0.47447  1.0000
  C   C219      1.0  0.11891  0.18996  0.45508  1.0000
  C   C220      1.0  0.11422  0.44689  0.29162  1.0000
  H   H177      1.0  0.09537  0.18267  0.47730  1.0000
  H   H178      1.0  0.13355  0.42873  0.33203  1.0000
  P   P7        1.0  0.09175  0.46479  0.28191  1.0000
  H   H179      1.0  0.44917  0.14305  0.32121  1.0000
  P   P8        1.0  0.41888  0.02696  0.43530  1.0000
  H   H180      1.0  0.15001  0.47988  0.28007  1.0000
  C   C221      1.0  0.00051  0.32396  0.47585  1.0000
  C   C222      1.0  0.28938  0.99562  0.27690  1.0000
  C   C223      1.0  0.01337  0.30707  0.33214  1.0000
  C   C224      1.0  0.03285  0.31676  0.33663  1.0000
  C   C225      1.0  0.04413  0.33102  0.32422  1.0000
  C   C226      1.0  0.03581  0.33586  0.30737  1.0000
  H   H181      1.0  0.46122  0.09955  0.24905  1.0000
  H   H182      1.0  0.11256  0.46000  0.39412  1.0000
  H   H183      1.0  0.37256  0.06886  0.49446  1.0000
  C   C227      1.0  0.39876  0.01590  0.42159  1.0000
  C   C228      1.0  0.33586  0.02802  0.27589  1.0000
  C   C229      1.0  0.02784  0.33542  0.26425  1.0000
  C   C230      1.0  0.48722  0.05361  0.28231  1.0000
  H   H184      1.0  0.40674  0.02469  0.24629  1.0000
  C   C231      1.0  0.46672  0.05614  0.40132  1.0000
  C   C232      1.0  0.31328  0.02677  0.46132  1.0000
  H   H185      1.0  0.08110  0.31255  0.25392  1.0000
  H   H186      1.0  0.25145  0.14283  0.46524  1.0000
  H   H187      1.0  0.19212  0.19065  0.42283  1.0000
  C   C233      1.0  0.02532  0.35002  0.24903  1.0000
  C   C234      1.0  0.06755  0.46570  0.37186  1.0000
  H   H188      1.0  0.03487  0.45268  0.40864  1.0000
  C   C235      1.0  0.41156  0.06668  0.25686  1.0000
  C   C236      1.0  0.06118  0.26141  0.46908  1.0000
  H   H189      1.0  0.07503  0.49179  0.25073  1.0000
  C   C237      1.0  0.48156  0.06527  0.29781  1.0000
  H   H190      1.0  0.40023  0.15907  0.26084  1.0000
  H   H191      1.0  0.03904  0.31358  0.34982  1.0000
  H   H192      1.0  0.05907  0.33877  0.32781  1.0000
  H   H193      1.0  0.04452  0.34750  0.29817  1.0000
  C   C238      1.0  0.17587  0.25375  0.40994  1.0000
  C   C239      1.0  0.41384  0.05765  0.46224  1.0000
  H   H194      1.0  0.00067  0.37024  0.30576  1.0000
  C   C240      1.0  0.14023  0.19752  0.44971  1.0000
  H   H195      1.0  0.14518  0.19880  0.43567  1.0000
  H   H196      1.0  0.47958  0.09733  0.30997  1.0000
  H   H197      1.0  0.19139  0.20386  0.39124  1.0000
  C   C241      1.0  0.22835  0.47271  0.26011  1.0000
  C   C242      1.0  0.11874  0.37701  0.25393  1.0000
  C   C243      1.0  0.00498  0.31182  0.31529  1.0000
  H   H198      1.0  0.10141  0.45082  0.31890  1.0000
  C   C244      1.0  0.11482  0.44359  0.31018  1.0000
  C   C245      1.0  0.07154  0.48540  0.38026  1.0000
  H   H199      1.0  0.22014  0.46378  0.27140  1.0000
  H   H200      1.0  0.49484  0.11810  0.28280  1.0000
  C   C246      1.0  0.09545  0.37492  0.25688  1.0000
  H   H201      1.0  0.05042  0.31030  0.27741  1.0000
  H   H202      1.0  0.11573  0.40499  0.43358  1.0000
  C   C247      1.0  0.02598  0.37706  0.43251  1.0000
  H   H203      1.0  0.17228  0.25879  0.43770  1.0000
  C   C248      1.0  0.30112  0.00911  0.45626  1.0000
  H   H204      1.0  0.09622  0.42214  0.26397  1.0000
  C   C249      1.0  0.33249  0.02915  0.43218  1.0000
  C   C250      1.0  0.26615  0.99983  0.27505  1.0000
  H   H205      1.0  0.05307  0.39322  0.41749  1.0000
  H   H206      1.0  0.15510  0.25442  0.46623  1.0000
  C   C251      1.0  0.01730  0.29326  0.39603  1.0000
  C   C252      1.0  0.03969  0.29635  0.39006  1.0000
  C   C253      1.0  0.04868  0.31728  0.39135  1.0000
  C   C254      1.0  0.03527  0.33518  0.39851  1.0000
  Fe  Fe23      1.0  0.31204  0.09638  0.49256  1.0000
  C   C255      1.0  0.04865  0.38057  0.42787  1.0000
  C   C256      1.0  0.17459  0.27100  0.48386  1.0000
  H   H207      1.0  0.07172  0.24312  0.44590  1.0000
  C   C257      1.0  0.22670  0.01398  0.40307  1.0000
  C   C258      1.0  0.35358  0.03761  0.30218  1.0000
  C   C259      1.0  0.04067  0.43722  0.31312  1.0000
  H   H208      1.0  0.00576  0.42351  0.28442  1.0000
  C   C260      1.0  0.46015  0.01236  0.29019  1.0000
  C   C261      1.0  0.18242  0.49426  0.27989  1.0000
  H   H209      1.0  0.07868  0.41900  0.44736  1.0000
  H   H210      1.0  0.46828  0.09121  0.39222  1.0000
  H   H211      1.0  0.44208  0.10138  0.27886  1.0000
  H   H212      1.0  0.22935  0.20815  0.44238  1.0000
  C   C262      1.0  0.49314  0.16587  0.28552  1.0000
  H   H213      1.0  0.05008  0.28265  0.38423  1.0000
  H   H214      1.0  0.06596  0.31973  0.38656  1.0000
  H   H215      1.0  0.04215  0.35159  0.39896  1.0000
  C   C263      1.0  0.37272  0.04215  0.47632  1.0000
  C   C264      1.0  0.37584  0.01988  0.39585  1.0000
  C   C265      1.0  0.13306  0.43117  0.31772  1.0000
  C   C266      1.0  0.10489  0.45115  0.40566  1.0000
  C   C267      1.0  0.02454  0.45544  0.31467  1.0000
  H   H216      1.0  0.06677  0.44961  0.37942  1.0000
  H   H217      1.0  0.16485  0.41225  0.31288  1.0000
  H   H218      1.0  0.13264  0.42587  0.40707  1.0000
  C   C268      1.0  0.38174  0.06039  0.48359  1.0000
  C   C269      1.0  0.11200  0.18819  0.47313  1.0000
  C   C270      1.0  0.08725  0.45797  0.25944  1.0000
  C   C271      1.0  0.14775  0.20138  0.48048  1.0000
  H   H219      1.0  0.35812  0.05031  0.31080  1.0000
  H   H220      1.0  0.18313  0.16874  0.47576  1.0000
  C   C272      1.0  0.45909  0.07899  0.40056  1.0000
  C   C273      1.0  0.05112  0.28157  0.47550  1.0000
  H   H221      1.0  0.44343  0.01856  0.46805  1.0000
  C   C274      1.0  0.08598  0.42801  0.43572  1.0000
  C   C275      1.0  0.16270  0.48566  0.28803  1.0000
  C   C276      1.0  0.43777  0.11412  0.26850  1.0000
  H   H222      1.0  0.00896  0.45328  0.32270  1.0000
  H   H223      1.0  0.34407  0.03755  0.42272  1.0000
  C   C277      1.0  0.10688  0.42016  0.42804  1.0000
  H   H224      1.0  0.17103  0.27133  0.40627  1.0000
  C   C278      1.0  0.04328  0.29913  0.46363  1.0000
  H   H225      1.0  0.44296  0.04478  0.29520  1.0000
  C   C279      1.0  0.15086  0.42199  0.30690  1.0000
  H   H226      1.0  0.43296  0.10364  0.40910  1.0000
  H   H227      1.0  0.07313  0.42551  0.30188  1.0000
  C   C280      1.0  0.07459  0.44758  0.42847  1.0000
  C   C281      1.0  0.38837  0.99672  0.35177  1.0000
  C   C282      1.0  0.00387  0.31097  0.40372  1.0000
  H   H228      1.0  0.01035  0.27710  0.39459  1.0000
  C   C283      1.0  0.21633  0.48986  0.25015  1.0000
  C   C284      1.0  0.40440  0.03993  0.45431  1.0000
  C   C285      1.0  0.40236  0.06804  0.47663  1.0000
  C   C286      1.0  0.38389  0.03205  0.46163  1.0000
  C   C287      1.0  0.43482  0.04730  0.42179  1.0000
  C   C288      1.0  0.42705  0.07024  0.42061  1.0000
  C   C289      1.0  0.43920  0.08601  0.41012  1.0000
  C   C290      1.0  0.46141  0.14959  0.31125  1.0000
  C   C291      1.0  0.16888  0.48906  0.37085  1.0000
  C   C292      1.0  0.45459  0.04031  0.41182  1.0000
  C   C293      1.0  0.04804  0.32180  0.26587  1.0000
  C   C294      1.0  0.02849  0.47633  0.30579  1.0000
  C   C295      1.0  0.02032  0.36049  0.44575  1.0000
  H   H229      1.0  0.25508  0.00422  0.28647  1.0000
  H   H230      1.0  0.16202  0.28499  0.48540  1.0000
  H   H231      1.0  0.41148  0.07594  0.42766  1.0000
  H   H232      1.0  0.15866  0.20589  0.49045  1.0000
  H   H233      1.0  0.03973  0.30933  0.43578  1.0000
  C   C296      1.0  0.05581  0.27598  0.43890  1.0000
  C   C297      1.0  0.24264  0.17569  0.45269  1.0000
  C   C298      1.0  0.23815  0.15607  0.46314  1.0000
  C   C299      1.0  0.21657  0.15363  0.47117  1.0000
  C   C300      1.0  0.19948  0.17087  0.46898  1.0000
  C   C301      1.0  0.20378  0.19058  0.45839  1.0000
  C   C302      1.0  0.22554  0.19290  0.45031  1.0000
  P   P9        1.0  0.18226  0.21354  0.45595  1.0000
  C   C303      1.0  0.18724  0.23573  0.47040  1.0000
  C   C304      1.0  0.18251  0.22368  0.43281  1.0000
  C   C305      1.0  0.17655  0.24647  0.42789  1.0000
  H   H234      1.0  0.00281  0.34632  0.40992  1.0000
  C   C306      1.0  0.13176  0.49400  0.35913  1.0000
  C   C307      1.0  0.18727  0.21575  0.40148  1.0000
  C   C308      1.0  0.18780  0.20837  0.41942  1.0000
  C   C309      1.0  0.25112  0.46686  0.25557  1.0000
  H   H235      1.0  0.01585  0.49035  0.30687  1.0000
  H   H236      1.0  0.06629  0.35338  0.48360  1.0000
  C   C310      1.0  0.42014  0.13045  0.27176  1.0000
  C   C311      1.0  0.17086  0.25373  0.47281  1.0000
  C   C312      1.0  0.15476  0.20344  0.46242  1.0000
  H   H237      1.0  0.46055  0.02269  0.41190  1.0000
  P   P10       1.0  0.03068  0.32553  0.47163  1.0000
  S   S46       1.0  0.43166  0.01036  0.34674  1.0000
  C   C313      1.0  0.44154  0.02679  0.29531  1.0000
  C   C314      1.0  0.04556  0.29609  0.44526  1.0000
  H   H238      1.0  0.03816  0.43671  0.26537  1.0000
  C   C315      1.0  0.35335  0.99834  0.29501  1.0000
  H   H239      1.0  0.07355  0.33981  0.45511  1.0000
  C   C316      1.0  0.00028  0.48178  0.25788  1.0000
  H   H240      1.0  0.47516  0.06543  0.35489  1.0000
  C   C317      1.0  0.24386  0.02712  0.40767  1.0000
  C   C318      1.0  0.06010  0.35059  0.44933  1.0000
  H   H241      1.0  0.16426  0.41814  0.28002  1.0000
  H   H242      1.0  0.13263  0.44070  0.26657  1.0000
  C   C319      1.0  0.34197  0.04427  0.28702  1.0000
  H   H243      1.0  0.14381  0.47848  0.31289  1.0000
  P   P11       1.0  0.07023  0.48498  0.40414  1.0000
  C   C320      1.0  0.01295  0.33208  0.40472  1.0000
  C   C321      1.0  0.48076  0.01797  0.24782  1.0000
  C   C322      1.0  0.01629  0.32609  0.30268  1.0000
  C   C323      1.0  0.00336  0.47260  0.41099  1.0000
  C   C324      1.0  0.48732  0.09858  0.35634  1.0000
  H   H244      1.0  0.00450  0.29627  0.34188  1.0000
  C   C325      1.0  0.20697  0.23483  0.47989  1.0000
  S   S47       1.0  0.27810  0.08202  0.49154  1.0000
  C   C326      1.0  0.15911  0.48488  0.30655  1.0000
  H   H245      1.0  0.48969  0.13916  0.32682  1.0000
  H   H246      1.0  0.32642  0.03352  0.26438  1.0000
  C   C327      1.0  0.32039  0.01151  0.42704  1.0000
  C   C328      1.0  0.99539  0.29437  0.26454  1.0000
  C   C329      1.0  0.09108  0.43560  0.25441  1.0000
  H   H247      1.0  0.42756  0.05715  0.25451  1.0000
  C   C330      1.0  0.02238  0.44711  0.26619  1.0000
  H   H248      1.0  0.24273  0.04525  0.40460  1.0000
  H   H249      1.0  0.35668  0.03638  0.48184  1.0000
  C   C331      1.0  0.26249  0.01694  0.41627  1.0000
  H   H250      1.0  0.42990  0.06373  0.45718  1.0000
  C   C332      1.0  0.42092  0.01796  0.30101  1.0000
  C   C333      1.0  0.02698  0.46961  0.40986  1.0000
  H   H251      1.0  0.21325  0.13849  0.47944  1.0000
  H   H252      1.0  0.32280  0.00651  0.41347  1.0000
  H   H253      1.0  0.01000  0.36063  0.24730  1.0000
  C   C334      1.0  0.43834  0.00412  0.44302  1.0000
  H   H254      1.0  0.28909  0.00202  0.46595  1.0000
  C   C335      1.0  0.48402  0.08851  0.29792  1.0000
  H   H255      1.0  0.03458  0.47343  0.24820  1.0000
  C   C336      1.0  0.21040  0.25191  0.49125  1.0000
  C   C337      1.0  0.48965  0.07492  0.35680  1.0000
  H   H256      1.0  0.21226  0.02192  0.39645  1.0000
  H   H257      1.0  0.00267  0.35755  0.44845  1.0000
  H   H258      1.0  0.47573  0.05631  0.31000  1.0000
  H   H259      1.0  0.48151  0.00897  0.32127  1.0000
  H   H260      1.0  0.05885  0.48860  0.33031  1.0000
  C   C338      1.0  0.34201  0.00495  0.27951  1.0000
  C   C339      1.0  0.44767  0.00456  0.45963  1.0000
  H   H261      1.0  0.36750  0.00956  0.31834  1.0000
  H   H262      1.0  0.00062  0.28757  0.47395  1.0000
  H   H263      1.0  0.19202  0.44708  0.25474  1.0000
  H   H264      1.0  0.48186  0.05075  0.39351  1.0000
  H   H265      1.0  0.17228  0.49212  0.33140  1.0000
  C   C340      1.0  0.07943  0.47472  0.24691  1.0000
  C   C341      1.0  0.02047  0.46808  0.25671  1.0000
  P   P12       1.0  0.48722  0.02313  0.28342  1.0000
  C   C342      1.0  0.10062  0.49309  0.28357  1.0000
  H   H266      1.0  0.29605  0.99667  0.28986  1.0000
  C   C343      1.0  0.04089  0.33023  0.49317  1.0000
  C   C344      1.0  0.36913  0.99787  0.39939  1.0000
  C   C345      1.0  0.19426  0.27004  0.49317  1.0000
  C   C346      1.0  0.49459  0.01179  0.26202  1.0000
  C   C347      1.0  0.17515  0.49265  0.31705  1.0000
  H   H267      1.0  0.46608  0.02977  0.24957  1.0000
  C   C348      1.0  0.06541  0.32283  0.25250  1.0000
  C   C349      1.0  0.25718  0.99839  0.25851  1.0000
  C   C350      1.0  0.06278  0.48762  0.34409  1.0000
  Fe  Fe24      1.0  0.39121  0.04611  0.68390  1.0000
  S   S48       1.0  0.36230  0.07192  0.68831  1.0000
  H   H268      1.0  0.19384  0.09810  0.55908  1.0000
  Fe  Fe25      1.0  0.42159  0.08002  0.66521  1.0000
  S   S49       1.0  0.39498  0.10868  0.66814  1.0000
  S   S50       1.0  0.45528  0.08054  0.64941  1.0000
  Fe  Fe26      1.0  0.38900  0.09371  0.69632  1.0000
  S   S51       1.0  0.38769  0.11431  0.72111  1.0000
  Fe  Fe27      1.0  0.37054  0.08417  0.65976  1.0000
  S   S52       1.0  0.34131  0.08950  0.64090  1.0000
  S   S53       1.0  0.41741  0.06693  0.69360  1.0000
  S   S54       1.0  0.39758  0.05671  0.65513  1.0000
  Fe  Fe28      1.0  0.26672  0.10455  0.51436  1.0000
  S   S55       1.0  0.30043  0.12024  0.51424  1.0000
  H   H269      1.0  0.10095  0.19307  0.56692  1.0000
  Fe  Fe29      1.0  0.28957  0.05583  0.51275  1.0000
  S   S56       1.0  0.32381  0.06953  0.51266  1.0000
  H   H270      1.0  0.22990  0.33302  0.52063  1.0000
  Fe  Fe30      1.0  0.30997  0.09167  0.53436  1.0000
  S   S57       1.0  0.33561  0.09244  0.55610  1.0000
  S   S58       1.0  0.27593  0.07679  0.53561  1.0000
  Fe  Fe31      1.0  0.11078  0.27821  0.54242  1.0000
  S   S59       1.0  0.11002  0.24029  0.54099  1.0000
  S   S60       1.0  0.10125  0.29840  0.56749  1.0000
  Fe  Fe32      1.0  0.13984  0.24204  0.52081  1.0000
  S   S61       1.0  0.17446  0.22083  0.52188  1.0000
  Fe  Fe33      1.0  0.08802  0.24825  0.51767  1.0000
  S   S62       1.0  0.05807  0.22723  0.51353  1.0000
  S   S63       1.0  0.14155  0.27983  0.52349  1.0000
  S   S64       1.0  0.08687  0.28569  0.52024  1.0000
  Fe  Fe34      1.0  0.11850  0.36706  0.70341  1.0000
  S   S65       1.0  0.08517  0.38688  0.70239  1.0000
  S   S66       1.0  0.13674  0.36895  0.72922  1.0000
  Fe  Fe35      1.0  0.11648  0.35297  0.66399  1.0000
  S   S67       1.0  0.08307  0.37262  0.66121  1.0000
  S   S68       1.0  0.13387  0.33286  0.64084  1.0000
  Fe  Fe36      1.0  0.09773  0.39994  0.67541  1.0000
  S   S69       1.0  0.08779  0.43656  0.66757  1.0000
  Fe  Fe37      1.0  0.07410  0.35759  0.68853  1.0000
  S   S70       1.0  0.04060  0.34426  0.69801  1.0000
  S   S71       1.0  0.13206  0.38168  0.67666  1.0000
  S   S72       1.0  0.10671  0.33648  0.69109  1.0000
  H   H271      1.0  0.03698  0.23870  0.54852  1.0000
  C   C351      1.0  0.45869  0.02470  0.64917  1.0000
  H   H272      1.0  0.33363  0.02612  0.64258  1.0000
  C   C352      1.0  0.10458  0.45940  0.67027  1.0000
  C   C353      1.0  0.09539  0.48139  0.66620  1.0000
  C   C354      1.0  0.01855  0.29282  0.57342  1.0000
  C   C355      1.0  0.02203  0.47844  0.72466  1.0000
  C   C356      1.0  0.04812  0.26663  0.56183  1.0000
  C   C357      1.0  0.12652  0.45636  0.67624  1.0000
  H   H273      1.0  0.01831  0.36081  0.72940  1.0000
  C   C358      1.0  0.24876  0.38383  0.52905  1.0000
  C   C359      1.0  0.45350  0.02788  0.63137  1.0000
  H   H274      1.0  0.13380  0.43945  0.67935  1.0000
  C   C360      1.0  0.02077  0.34963  0.68172  1.0000
  C   C361      1.0  0.02799  0.35181  0.66378  1.0000
  C   C362      1.0  0.01254  0.35892  0.65099  1.0000
  H   H275      1.0  0.09909  0.48051  0.70935  1.0000
  H   H276      1.0  0.04547  0.34783  0.65971  1.0000
  H   H277      1.0  0.15631  0.47297  0.68206  1.0000
  C   C363      1.0  0.11080  0.30778  0.58780  1.0000
  C   C364      1.0  0.09580  0.32127  0.59866  1.0000
  C   C365      1.0  0.10242  0.32902  0.61485  1.0000
  C   C366      1.0  0.12422  0.32331  0.62058  1.0000
  C   C367      1.0  0.13916  0.30976  0.60971  1.0000
  C   C368      1.0  0.13265  0.30226  0.59343  1.0000
  H   H278      1.0  0.07885  0.32575  0.59456  1.0000
  H   H279      1.0  0.09061  0.33934  0.62293  1.0000
  H   H280      1.0  0.15596  0.30499  0.61396  1.0000
  H   H281      1.0  0.14454  0.29219  0.58526  1.0000
  S   S73       1.0  0.38873  0.01041  0.69525  1.0000
  C   C369      1.0  0.02819  0.22886  0.51107  1.0000
  H   H282      1.0  0.22225  0.20727  0.52120  1.0000
  H   H283      1.0  0.10289  0.10764  0.62988  1.0000
  H   H284      1.0  0.02512  0.39238  0.69609  1.0000
  C   C370      1.0  0.18978  0.19368  0.51946  1.0000
  C   C371      1.0  0.17906  0.17375  0.51746  1.0000
  C   C372      1.0  0.04477  0.44426  0.70485  1.0000
  C   C373      1.0  0.21571  0.15112  0.51635  1.0000
  C   C374      1.0  0.22645  0.17113  0.51813  1.0000
  C   C375      1.0  0.21360  0.19210  0.51975  1.0000
  H   H285      1.0  0.27628  0.00295  0.67010  1.0000
  H   H286      1.0  0.11898  0.34196  0.51078  1.0000
  C   C376      1.0  0.12729  0.15335  0.54050  1.0000
  C   C377      1.0  0.00880  0.26047  0.55810  1.0000
  H   H287      1.0  0.06594  0.26150  0.55983  1.0000
  C   C378      1.0  0.10724  0.49084  0.71810  1.0000
  C   C379      1.0  0.05346  0.38833  0.61137  1.0000
  H   H288      1.0  0.33836  0.03024  0.70252  1.0000
  C   C380      1.0  0.47164  0.03375  0.69545  1.0000
  H   H289      1.0  0.46392  0.10008  0.68263  1.0000
  C   C381      1.0  0.33650  0.08965  0.57978  1.0000
  C   C382      1.0  0.35772  0.08687  0.58734  1.0000
  C   C383      1.0  0.35953  0.08610  0.60595  1.0000
  C   C384      1.0  0.34010  0.08858  0.61734  1.0000
  C   C385      1.0  0.31886  0.09092  0.60981  1.0000
  C   C386      1.0  0.31702  0.09127  0.59119  1.0000
  H   H290      1.0  0.37292  0.08560  0.57868  1.0000
  H   H291      1.0  0.37599  0.08402  0.61144  1.0000
  H   H292      1.0  0.30369  0.09282  0.61844  1.0000
  H   H293      1.0  0.30058  0.09352  0.58567  1.0000
  H   H294      1.0  0.05788  0.42845  0.64096  1.0000
  C   C387      1.0  0.11771  0.42841  0.74464  1.0000
  P   P13       1.0  0.19718  0.33298  0.55150  1.0000
  C   C388      1.0  0.20880  0.30425  0.54919  1.0000
  C   C389      1.0  0.21746  0.35289  0.54281  1.0000
  C   C390      1.0  0.21953  0.37311  0.55119  1.0000
  C   C391      1.0  0.23514  0.38846  0.54433  1.0000
  C   C392      1.0  0.34692  0.01354  0.63876  1.0000
  H   H295      1.0  0.15427  0.24508  0.56411  1.0000
  C   C393      1.0  0.19440  0.28694  0.54714  1.0000
  C   C394      1.0  0.20331  0.26475  0.54502  1.0000
  C   C395      1.0  0.22662  0.25960  0.54511  1.0000
  C   C396      1.0  0.24106  0.27663  0.54758  1.0000
  C   C397      1.0  0.23219  0.29886  0.54974  1.0000
  C   C398      1.0  0.16883  0.15040  0.56720  1.0000
  H   H296      1.0  0.20916  0.37720  0.56299  1.0000
  C   C399      1.0  0.02653  0.42091  0.63009  1.0000
  C   C400      1.0  0.12339  0.16692  0.55514  1.0000
  H   H297      1.0  0.17627  0.29050  0.54724  1.0000
  H   H298      1.0  0.19211  0.25151  0.54331  1.0000
  H   H299      1.0  0.23341  0.24236  0.54338  1.0000
  H   H300      1.0  0.25912  0.27256  0.54787  1.0000
  H   H301      1.0  0.24359  0.31178  0.55188  1.0000
  H   H302      1.0  0.07516  0.19668  0.54238  1.0000
  C   C401      1.0  0.35941  0.23443  0.63867  1.0000
  C   C402      1.0  0.37146  0.24351  0.62372  1.0000
  C   C403      1.0  0.38218  0.22915  0.61132  1.0000
  C   C404      1.0  0.38105  0.20570  0.61395  1.0000
  C   C405      1.0  0.36950  0.19643  0.62917  1.0000
  C   C406      1.0  0.35824  0.21097  0.64133  1.0000
  P   P14       1.0  0.36772  0.16620  0.63205  1.0000
  C   C407      1.0  0.39526  0.15178  0.62850  1.0000
  C   C408      1.0  0.35905  0.15784  0.65473  1.0000
  C   C409      1.0  0.34233  0.14238  0.65854  1.0000
  C   C410      1.0  0.33721  0.13451  0.67607  1.0000
  C   C411      1.0  0.34882  0.14192  0.68993  1.0000
  C   C412      1.0  0.36557  0.15721  0.68627  1.0000
  C   C413      1.0  0.37076  0.16508  0.66873  1.0000
  C   C414      1.0  0.39698  0.12866  0.62525  1.0000
  C   C415      1.0  0.41821  0.11705  0.62311  1.0000
  C   C416      1.0  0.43783  0.12835  0.62450  1.0000
  C   C417      1.0  0.43626  0.15122  0.62819  1.0000
  C   C418      1.0  0.41505  0.16290  0.63030  1.0000
  C   C419      1.0  0.34838  0.15902  0.61603  1.0000
  C   C420      1.0  0.35654  0.15023  0.59980  1.0000
  C   C421      1.0  0.34148  0.14510  0.58734  1.0000
  C   C422      1.0  0.31821  0.14886  0.59088  1.0000
  C   C423      1.0  0.30995  0.15822  0.60675  1.0000
  C   C424      1.0  0.32499  0.16355  0.61919  1.0000
  H   H303      1.0  0.35090  0.24557  0.64820  1.0000
  H   H304      1.0  0.37236  0.26168  0.62169  1.0000
  H   H305      1.0  0.39133  0.23618  0.59963  1.0000
  H   H306      1.0  0.38923  0.19474  0.60414  1.0000
  H   H307      1.0  0.34851  0.20429  0.65283  1.0000
  H   H308      1.0  0.33379  0.13561  0.64801  1.0000
  H   H309      1.0  0.32483  0.12198  0.67881  1.0000
  H   H310      1.0  0.34544  0.13522  0.70346  1.0000
  H   H311      1.0  0.37515  0.16216  0.69702  1.0000
  H   H312      1.0  0.38441  0.17622  0.66606  1.0000
  H   H313      1.0  0.38187  0.11951  0.62486  1.0000
  H   H314      1.0  0.41948  0.09908  0.62100  1.0000
  H   H315      1.0  0.45426  0.11916  0.62329  1.0000
  C   C425      1.0  0.00321  0.30410  0.72214  1.0000
  H   H316      1.0  0.41420  0.18040  0.63371  1.0000
  H   H317      1.0  0.37448  0.14723  0.59666  1.0000
  H   H318      1.0  0.34782  0.13774  0.57503  1.0000
  H   H319      1.0  0.30664  0.14430  0.58134  1.0000
  H   H320      1.0  0.29190  0.16113  0.60947  1.0000
  H   H321      1.0  0.31836  0.17095  0.63137  1.0000
  H   H322      1.0  0.12117  0.19279  0.49981  1.0000
  H   H323      1.0  0.08137  0.39995  0.62447  1.0000
  H   H324      1.0  0.18323  0.13755  0.51464  1.0000
  H   H325      1.0  0.23660  0.40403  0.55087  1.0000
  C   C426      1.0  0.13922  0.47532  0.67777  1.0000
  H   H326      1.0  0.43966  0.03981  0.62768  1.0000
  C   C427      1.0  0.01353  0.40517  0.69015  1.0000
  C   C428      1.0  0.13371  0.34093  0.51864  1.0000
  H   H327      1.0  0.17544  0.45437  0.71486  1.0000
  H   H328      1.0  0.16558  0.36541  0.57004  1.0000
  C   C429      1.0  0.32977  0.02139  0.58319  1.0000
  C   C430      1.0  0.36629  0.02072  0.62922  1.0000
  C   C431      1.0  0.38297  0.10273  0.74330  1.0000
  C   C432      1.0  0.20201  0.32436  0.58795  1.0000
  H   H329      1.0  0.36468  0.07488  0.73626  1.0000
  C   C433      1.0  0.17449  0.35484  0.57991  1.0000
  C   C434      1.0  0.00193  0.28012  0.56705  1.0000
  C   C435      1.0  0.01968  0.36989  0.74123  1.0000
  C   C436      1.0  0.28496  0.02403  0.69037  1.0000
  C   C437      1.0  0.01989  0.45549  0.72989  1.0000
  C   C438      1.0  0.48161  0.99599  0.71871  1.0000
  C   C439      1.0  0.01672  0.40704  0.61869  1.0000
  P   P15       1.0  0.14148  0.16379  0.57365  1.0000
  S   S74       1.0  0.11769  0.24760  0.49735  1.0000
  C   C440      1.0  0.02403  0.46716  0.64333  1.0000
  H   H330      1.0  0.05656  0.47125  0.68726  1.0000
  H   H331      1.0  0.06883  0.45802  0.73429  1.0000
  C   C441      1.0  0.47995  0.09603  0.67551  1.0000
  C   C442      1.0  0.00328  0.43024  0.66484  1.0000
  C   C443      1.0  0.03883  0.32234  0.52528  1.0000
  C   C444      1.0  0.05620  0.33662  0.52694  1.0000
  H   H332      1.0  0.46784  0.04830  0.68644  1.0000
  H   H333      1.0  0.26757  0.02983  0.69362  1.0000
  H   H334      1.0  0.20592  0.31796  0.61609  1.0000
  H   H335      1.0  0.17717  0.34815  0.62486  1.0000
  H   H336      1.0  0.13852  0.18287  0.60919  1.0000
  C   C445      1.0  0.15103  0.23141  0.57393  1.0000
  H   H337      1.0  0.01829  0.36067  0.63716  1.0000
  C   C446      1.0  0.19221  0.11613  0.56094  1.0000
  H   H338      1.0  0.29851  0.04360  0.70992  1.0000
  H   H339      1.0  0.14843  0.32913  0.56107  1.0000
  C   C447      1.0  0.00077  0.32022  0.73502  1.0000
  H   H340      1.0  0.05351  0.43114  0.69711  1.0000
  C   C448      1.0  0.13146  0.33624  0.53698  1.0000
  C   C449      1.0  0.03017  0.39091  0.60931  1.0000
  C   C450      1.0  0.14398  0.21808  0.60457  1.0000
  H   H341      1.0  0.99586  0.47779  0.61583  1.0000
  C   C451      1.0  0.30235  0.03181  0.69956  1.0000
  C   C452      1.0  0.48458  0.00108  0.62330  1.0000
  H   H342      1.0  0.03169  0.31322  0.53692  1.0000
  H   H343      1.0  0.06252  0.33859  0.53990  1.0000
  C   C453      1.0  0.01855  0.48186  0.65709  1.0000
  H   H344      1.0  0.06380  0.37546  0.60445  1.0000
  P   P16       1.0  0.00925  0.44169  0.64240  1.0000
  H   H345      1.0  0.14179  0.22151  0.61854  1.0000
  H   H346      1.0  0.18705  0.18103  0.56575  1.0000
  C   C454      1.0  0.41399  0.99651  0.66588  1.0000
  H   H347      1.0  0.05412  0.29584  0.57598  1.0000
  C   C455      1.0  0.03965  0.47351  0.62947  1.0000
  C   C456      1.0  0.01860  0.20849  0.50862  1.0000
  H   H348      1.0  0.04375  0.46281  0.61846  1.0000
  C   C457      1.0  0.10587  0.14223  0.59220  1.0000
  C   C458      1.0  0.10441  0.18247  0.55574  1.0000
  H   H349      1.0  0.03338  0.40722  0.66559  1.0000
  H   H350      1.0  0.13073  0.41685  0.73889  1.0000
  C   C459      1.0  0.14467  0.19174  0.58107  1.0000
  Fe  Fe38      1.0  0.11759  0.28486  0.50119  1.0000
  C   C460      1.0  0.12900  0.14606  0.59141  1.0000
  H   H351      1.0  0.01387  0.30796  0.58049  1.0000
  C   C461      1.0  0.03143  0.43855  0.72012  1.0000
  C   C462      1.0  0.17638  0.44681  0.72826  1.0000
  H   H352      1.0  0.02095  0.26472  0.51362  1.0000
  C   C463      1.0  0.04657  0.46694  0.69932  1.0000
  H   H353      1.0  0.41540  0.01411  0.66225  1.0000
  H   H354      1.0  0.43898  0.02037  0.69426  1.0000
  H   H355      1.0  0.45152  0.15969  0.62983  1.0000
  H   H356      1.0  0.18171  0.41289  0.71929  1.0000
  C   C464      1.0  0.14214  0.19615  0.59918  1.0000
  C   C465      1.0  0.19056  0.33754  0.57478  1.0000
  C   C466      1.0  0.14258  0.13593  0.60469  1.0000
  H   H357      1.0  0.02927  0.19295  0.50814  1.0000
  H   H358      1.0  0.00927  0.45055  0.74140  1.0000
  H   H359      1.0  0.11576  0.14516  0.51528  1.0000
  H   H360      1.0  0.46231  0.01845  0.60463  1.0000
  C   C467      1.0  0.21133  0.12866  0.55864  1.0000
  H   H361      1.0  0.11489  0.33382  0.54336  1.0000
  H   H362      1.0  0.31191  0.04886  0.56872  1.0000
  C   C468      1.0  0.24680  0.36381  0.52060  1.0000
  C   C469      1.0  0.23123  0.34840  0.52742  1.0000
  H   H363      1.0  0.09886  0.43191  0.72105  1.0000
  H   H364      1.0  0.21452  0.31099  0.58444  1.0000
  C   C470      1.0  0.03921  0.38125  0.74295  1.0000
  H   H365      1.0  0.22406  0.16173  0.55823  1.0000
  C   C471      1.0  0.47673  0.00978  0.65407  1.0000
  C   C472      1.0  0.04996  0.41824  0.63202  1.0000
  H   H366      1.0  0.25172  0.00559  0.52358  1.0000
  C   C473      1.0  0.14838  0.23570  0.59196  1.0000
  H   H367      1.0  0.33697  0.03249  0.59192  1.0000
  C   C474      1.0  0.18121  0.34545  0.61089  1.0000
  H   H368      1.0  0.07941  0.35880  0.51309  1.0000
  C   C475      1.0  0.99530  0.20774  0.50688  1.0000
  C   C476      1.0  0.03114  0.31922  0.50853  1.0000
  H   H369      1.0  0.25731  0.36028  0.50870  1.0000
  C   C477      1.0  0.11016  0.11835  0.61918  1.0000
  C   C478      1.0  0.08968  0.18451  0.54190  1.0000
  C   C479      1.0  0.15060  0.33386  0.54701  1.0000
  H   H370      1.0  0.01783  0.30784  0.50760  1.0000
  C   C480      1.0  0.09652  0.12841  0.60604  1.0000
  C   C481      1.0  0.17215  0.33715  0.53883  1.0000
  H   H371      1.0  0.39917  0.01053  0.61755  1.0000
  H   H372      1.0  0.14955  0.25270  0.59618  1.0000
  H   H373      1.0  0.15686  0.37150  0.60191  1.0000
  H   H374      1.0  0.24468  0.17041  0.51836  1.0000
  C   C482      1.0  0.18020  0.42333  0.73068  1.0000
  H   H375      1.0  0.22765  0.12038  0.55485  1.0000
  H   H376      1.0  0.41551  0.02430  0.72410  1.0000
  C   C483      1.0  0.06335  0.40208  0.62266  1.0000
  C   C484      1.0  0.16972  0.35860  0.59791  1.0000
  H   H377      1.0  0.01949  0.29511  0.71951  1.0000
  H   H378      1.0  0.16045  0.13873  0.60438  1.0000
  C   C485      1.0  0.19734  0.32835  0.60592  1.0000
  C   C486      1.0  0.09962  0.43673  0.73464  1.0000
  C   C487      1.0  0.18813  0.16290  0.56468  1.0000
  C   C488      1.0  0.46632  0.01592  0.61843  1.0000
  C   C489      1.0  0.31550  0.03066  0.57020  1.0000
  H   H379      1.0  0.19057  0.34346  0.51347  1.0000
  H   H380      1.0  0.26078  0.39581  0.52374  1.0000
  H   H381      1.0  0.44884  0.03405  0.65918  1.0000
  H   H382      1.0  0.36782  0.03863  0.62590  1.0000
  C   C490      1.0  0.40886  0.01689  0.73663  1.0000
  H   H383      1.0  0.02234  0.37993  0.60090  1.0000
  C   C491      1.0  0.17423  0.34167  0.52032  1.0000
  C   C492      1.0  0.06584  0.34785  0.51182  1.0000
  C   C493      1.0  0.14913  0.20953  0.56850  1.0000
  C   C494      1.0  0.03181  0.25383  0.55549  1.0000
  S   S75       1.0  0.23089  0.12372  0.51465  1.0000
  H   H384      1.0  0.07861  0.48383  0.66141  1.0000
  S   S76       1.0  0.29720  0.01772  0.50956  1.0000
  H   H385      1.0  0.24258  0.48878  0.70470  1.0000
  C   C495      1.0  0.04147  0.28605  0.57087  1.0000
  C   C496      1.0  0.13318  0.12212  0.61850  1.0000
  C   C497      1.0  0.30593  0.01650  0.55903  1.0000
  H   H386      1.0  0.29489  0.02370  0.54891  1.0000
  C   C498      1.0  0.01818  0.41372  0.67275  1.0000
  C   C499      1.0  0.11253  0.15549  0.52664  1.0000
  C   C500      1.0  0.17106  0.12690  0.56532  1.0000
  H   H387      1.0  0.14180  0.14130  0.53957  1.0000
  H   H388      1.0  0.15102  0.20647  0.55447  1.0000
  H   H389      1.0  0.15643  0.11691  0.56712  1.0000
  C   C501      1.0  0.20928  0.15200  0.56053  1.0000
  C   C502      1.0  0.09372  0.17106  0.52735  1.0000
  C   C503      1.0  0.15509  0.34350  0.51029  1.0000
  H   H390      1.0  0.09495  0.14978  0.58220  1.0000
  H   H391      1.0  0.07867  0.12549  0.60657  1.0000
  H   H392      1.0  0.16086  0.17447  0.51715  1.0000
  H   H393      1.0  0.14377  0.11432  0.62868  1.0000
  C   C504      1.0  0.19188  0.15275  0.51599  1.0000
  C   C505      1.0  0.99775  0.35332  0.68675  1.0000
  H   H394      1.0  0.02977  0.42093  0.72415  1.0000
  H   H395      1.0  0.21632  0.47666  0.72958  1.0000
  H   H396      1.0  0.05292  0.38000  0.73283  1.0000
  H   H397      1.0  0.13731  0.46894  0.71836  1.0000
  C   C506      1.0  0.45543  0.01807  0.69985  1.0000
  C   C507      1.0  0.46028  0.99943  0.71153  1.0000
  C   C508      1.0  0.01386  0.24885  0.51164  1.0000
  C   C509      1.0  0.48042  0.08597  0.65922  1.0000
  H   H398      1.0  0.08231  0.17293  0.51660  1.0000
  C   C510      1.0  0.32479  0.02440  0.69537  1.0000
  C   C511      1.0  0.32988  0.00938  0.68192  1.0000
  C   C512      1.0  0.33485  0.99796  0.58480  1.0000
  H   H399      1.0  0.99864  0.40819  0.61729  1.0000
  C   C513      1.0  0.49293  0.03044  0.70240  1.0000
  H   H400      1.0  0.00623  0.47771  0.66772  1.0000
  C   C514      1.0  0.08262  0.45130  0.74214  1.0000
  H   H401      1.0  0.99638  0.32865  0.55585  1.0000
  H   H402      1.0  0.48055  0.00740  0.66788  1.0000
  C   C515      1.0  0.03533  0.48398  0.70913  1.0000
  C   C516      1.0  0.05019  0.49382  0.62973  1.0000
  H   H403      1.0  0.31247  0.00256  0.61967  1.0000
  C   C517      1.0  0.38384  0.00492  0.62444  1.0000
  H   H404      1.0  0.34740  0.00390  0.67882  1.0000
  H   H405      1.0  0.28213  0.00078  0.59921  1.0000
  C   C518      1.0  0.21064  0.48985  0.71999  1.0000
  C   C519      1.0  0.12914  0.48440  0.72317  1.0000
  P   P17       1.0  0.16922  0.49074  0.73954  1.0000
  H   H406      1.0  0.09107  0.35930  0.74387  1.0000
  H   H407      1.0  0.19676  0.28310  0.50214  1.0000
  C   C520      1.0  0.49003  0.99816  0.64119  1.0000
  H   H408      1.0  0.01515  0.32299  0.74256  1.0000
  C   C521      1.0  0.31253  0.00130  0.67271  1.0000
  C   C522      1.0  0.28999  0.00877  0.67701  1.0000
  C   C523      1.0  0.17379  0.46036  0.74299  1.0000
  H   H409      1.0  0.99670  0.25007  0.55310  1.0000
  H   H410      1.0  0.22536  0.25080  0.49884  1.0000
  H   H411      1.0  0.15676  0.34650  0.49597  1.0000
  Fe  Fe39      1.0  0.41881  0.06098  0.85333  1.0000
  S   S77       1.0  0.40727  0.09509  0.84095  1.0000
  S   S78       1.0  0.45417  0.04446  0.85364  1.0000
  Fe  Fe40      1.0  0.37145  0.04889  0.86483  1.0000
  S   S79       1.0  0.35599  0.08200  0.85369  1.0000
  S   S80       1.0  0.34976  0.02298  0.87901  1.0000
  Fe  Fe41      1.0  0.37999  0.07671  0.82956  1.0000
  S   S81       1.0  0.36816  0.07478  0.80123  1.0000
  Fe  Fe42      1.0  0.38449  0.09747  0.86621  1.0000
  S   S82       1.0  0.37914  0.12961  0.88194  1.0000
  S   S83       1.0  0.39335  0.04247  0.84040  1.0000
  S   S84       1.0  0.39802  0.06456  0.87896  1.0000
  H   H412      1.0  0.13261  0.42727  0.76975  1.0000
  H   H413      1.0  0.44058  0.11600  0.92801  1.0000
  S   S85       1.0  0.17457  0.36736  0.96590  1.0000
  C   C524      1.0  0.11443  0.30308  0.76342  1.0000
  C   C525      1.0  0.04288  0.32223  0.81806  1.0000
  S   S86       1.0  0.38992  0.13950  0.96521  1.0000
  Fe  Fe43      1.0  0.11819  0.40612  0.85768  1.0000
  S   S87       1.0  0.13228  0.37108  0.85192  1.0000
  S   S88       1.0  0.14094  0.43468  0.85693  1.0000
  Fe  Fe44      1.0  0.07012  0.39200  0.86512  1.0000
  S   S89       1.0  0.08089  0.35571  0.86063  1.0000
  S   S90       1.0  0.03419  0.40576  0.87187  1.0000
  Fe  Fe45      1.0  0.11093  0.36126  0.87667  1.0000
  S   S91       1.0  0.12337  0.33715  0.89946  1.0000
  Fe  Fe46      1.0  0.10107  0.36960  0.83639  1.0000
  S   S92       1.0  0.09410  0.35744  0.80901  1.0000
  S   S93       1.0  0.09837  0.39654  0.88284  1.0000
  S   S94       1.0  0.08887  0.40553  0.84060  1.0000
  C   C526      1.0  0.12474  0.45982  0.86082  1.0000
  C   C527      1.0  0.10111  0.46015  0.86213  1.0000
  H   H414      1.0  0.08892  0.28521  0.77871  1.0000
  H   H415      1.0  0.25566  0.48735  0.96872  1.0000
  C   C528      1.0  0.13647  0.37227  0.76556  1.0000
  H   H416      1.0  0.09270  0.44484  0.86084  1.0000
  C   C529      1.0  0.11397  0.29592  0.79551  1.0000
  C   C530      1.0  0.41082  0.99912  0.81020  1.0000
  C   C531      1.0  0.01666  0.37891  0.84824  1.0000
  C   C532      1.0  0.01237  0.39622  0.86002  1.0000
  C   C533      1.0  0.21085  0.46622  0.94200  1.0000
  H   H417      1.0  0.32947  0.05058  0.93608  1.0000
  H   H418      1.0  0.03354  0.37093  0.84648  1.0000
  H   H419      1.0  0.34374  0.01945  0.77433  1.0000
  C   C534      1.0  0.34260  0.02050  0.78863  1.0000
  C   C535      1.0  0.47429  0.06462  0.85399  1.0000
  C   C536      1.0  0.12742  0.37001  0.78327  1.0000
  C   C537      1.0  0.10533  0.36354  0.78689  1.0000
  C   C538      1.0  0.09221  0.36011  0.77249  1.0000
  C   C539      1.0  0.12331  0.48879  0.92496  1.0000
  H   H420      1.0  0.13799  0.37195  0.79412  1.0000
  H   H421      1.0  0.07518  0.35484  0.77507  1.0000
  C   C540      1.0  0.15931  0.35875  0.94801  1.0000
  C   C541      1.0  0.15508  0.37431  0.93354  1.0000
  C   C542      1.0  0.14382  0.36812  0.91877  1.0000
  C   C543      1.0  0.13677  0.34614  0.91817  1.0000
  C   C544      1.0  0.14089  0.33062  0.93268  1.0000
  C   C545      1.0  0.15188  0.33690  0.94755  1.0000
  H   H422      1.0  0.16070  0.39125  0.93367  1.0000
  H   H423      1.0  0.14087  0.38028  0.90776  1.0000
  H   H424      1.0  0.13546  0.31361  0.93245  1.0000
  H   H425      1.0  0.15472  0.32478  0.95859  1.0000
  C   C546      1.0  0.11922  0.30516  0.84175  1.0000
  C   C547      1.0  0.44531  0.09135  0.78385  1.0000
  H   H426      1.0  0.48292  0.05204  0.81461  1.0000
  C   C548      1.0  0.10526  0.48140  0.91627  1.0000
  H   H427      1.0  0.29515  0.13259  0.99358  1.0000
  H   H428      1.0  0.44135  0.05201  0.81830  1.0000
  C   C549      1.0  0.38339  0.13222  0.90495  1.0000
  C   C550      1.0  0.38913  0.11347  0.91637  1.0000
  C   C551      1.0  0.39100  0.11613  0.93469  1.0000
  C   C552      1.0  0.38743  0.13754  0.94188  1.0000
  C   C553      1.0  0.38226  0.15637  0.93040  1.0000
  C   C554      1.0  0.38014  0.15368  0.91211  1.0000
  H   H429      1.0  0.39171  0.09686  0.91114  1.0000
  H   H430      1.0  0.39513  0.10143  0.94336  1.0000
  H   H431      1.0  0.37989  0.17300  0.93558  1.0000
  H   H432      1.0  0.37586  0.16834  0.90342  1.0000
  H   H433      1.0  0.18081  0.41863  0.77578  1.0000
  C   C555      1.0  0.10059  0.25268  0.81022  1.0000
  C   C556      1.0  0.20674  0.30878  0.96704  1.0000
  H   H434      1.0  0.44989  0.09311  0.85266  1.0000
  C   C557      1.0  0.07725  0.44245  0.80337  1.0000
  C   C558      1.0  0.22509  0.44984  0.95067  1.0000
  C   C559      1.0  0.06439  0.28758  0.83886  1.0000
  Fe  Fe47      1.0  0.38590  0.16487  0.98740  1.0000
  C   C560      1.0  0.46748  0.08765  0.85316  1.0000
  C   C561      1.0  0.36637  0.07541  0.76482  1.0000
  C   C562      1.0  0.37437  0.08609  0.77913  1.0000
  C   C563      1.0  0.38650  0.10539  0.77540  1.0000
  C   C564      1.0  0.13550  0.47963  0.86288  1.0000
  H   H435      1.0  0.35663  0.06075  0.76747  1.0000
  H   H436      1.0  0.39237  0.11411  0.78623  1.0000
  C   C565      1.0  0.31194  0.12431  0.99377  1.0000
  H   H437      1.0  0.43470  0.10252  0.77548  1.0000
  C   C566      1.0  0.07433  0.29426  0.82216  1.0000
  C   C567      1.0  0.12798  0.44755  0.90854  1.0000
  C   C568      1.0  0.08364  0.45744  0.75965  1.0000
  C   C569      1.0  0.44485  0.14216  0.88030  1.0000
  C   C570      1.0  0.27689  0.36768  0.95357  1.0000
  C   C571      1.0  0.28443  0.34678  0.96166  1.0000
  H   H438      1.0  0.17380  0.45996  0.77176  1.0000
  P   P18       1.0  0.28113  0.32090  0.95101  1.0000
  C   C572      1.0  0.25217  0.31484  0.95659  1.0000
  C   C573      1.0  0.28681  0.32434  0.92730  1.0000
  C   C574      1.0  0.27593  0.31143  0.91585  1.0000
  C   C575      1.0  0.28074  0.31369  0.89747  1.0000
  C   C576      1.0  0.29669  0.32857  0.89045  1.0000
  C   C577      1.0  0.30796  0.34109  0.90182  1.0000
  C   C578      1.0  0.30316  0.33890  0.92020  1.0000
  C   C579      1.0  0.14988  0.41039  0.81384  1.0000
  H   H439      1.0  0.17831  0.45798  0.81487  1.0000
  C   C580      1.0  0.08825  0.48038  0.86528  1.0000
  C   C581      1.0  0.21227  0.32147  0.95136  1.0000
  C   C582      1.0  0.23487  0.32478  0.94627  1.0000
  C   C583      1.0  0.30062  0.29787  0.95818  1.0000
  H   H440      1.0  0.33762  0.02499  0.83977  1.0000
  H   H441      1.0  0.25951  0.29517  0.98090  1.0000
  C   C584      1.0  0.29456  0.27539  0.95815  1.0000
  H   H442      1.0  0.14186  0.30900  0.80807  1.0000
  H   H443      1.0  0.40604  0.04851  0.74940  1.0000
  H   H444      1.0  0.27026  0.36854  0.94049  1.0000
  H   H445      1.0  0.15387  0.37621  0.76306  1.0000
  H   H446      1.0  0.26379  0.29956  0.92110  1.0000
  H   H447      1.0  0.27215  0.30381  0.88868  1.0000
  H   H448      1.0  0.30044  0.33025  0.87621  1.0000
  H   H449      1.0  0.32053  0.35241  0.89639  1.0000
  H   H450      1.0  0.31230  0.34841  0.92887  1.0000
  H   H451      1.0  0.07281  0.27457  0.84728  1.0000
  H   H452      1.0  0.19901  0.32943  0.94344  1.0000
  H   H453      1.0  0.23869  0.33556  0.93453  1.0000
  C   C585      1.0  0.38580  0.00589  0.91703  1.0000
  H   H454      1.0  0.27801  0.27168  0.95431  1.0000
  C   C586      1.0  0.33132  0.26183  0.96816  1.0000
  C   C587      1.0  0.32986  0.06851  0.93245  1.0000
  C   C588      1.0  0.33611  0.07564  0.91496  1.0000
  C   C589      1.0  0.33657  0.09873  0.91020  1.0000
  C   C590      1.0  0.33070  0.11477  0.92284  1.0000
  C   C591      1.0  0.32399  0.10780  0.94039  1.0000
  C   C592      1.0  0.32379  0.08450  0.94511  1.0000
  P   P19       1.0  0.31367  0.12813  0.95650  1.0000
  C   C593      1.0  0.07991  0.21894  0.80892  1.0000
  C   C594      1.0  0.27705  0.38757  0.96263  1.0000
  C   C595      1.0  0.30980  0.25747  0.96329  1.0000
  C   C596      1.0  0.12714  0.44330  0.80265  1.0000
  C   C597      1.0  0.10116  0.36267  0.75474  1.0000
  C   C598      1.0  0.13449  0.31395  0.76375  1.0000
  H   H455      1.0  0.47817  0.12165  0.85235  1.0000
  P   P20       1.0  0.10166  0.45566  0.79290  1.0000
  H   H456      1.0  0.44918  0.12394  0.98775  1.0000
  C   C599      1.0  0.14612  0.45498  0.91706  1.0000
  H   H457      1.0  0.12997  0.43190  0.90170  1.0000
  C   C600      1.0  0.99653  0.37783  0.90867  1.0000
  C   C601      1.0  0.32231  0.15637  0.95035  1.0000
  C   C602      1.0  0.31334  0.16864  0.93560  1.0000
  H   H458      1.0  0.33764  0.21851  0.93858  1.0000
  C   C603      1.0  0.33319  0.20130  0.94193  1.0000
  C   C604      1.0  0.34176  0.18941  0.95686  1.0000
  C   C605      1.0  0.33642  0.16704  0.96103  1.0000
  C   C606      1.0  0.33895  0.02359  0.82550  1.0000
  H   H459      1.0  0.34058  0.06332  0.90504  1.0000
  H   H460      1.0  0.34168  0.10423  0.89667  1.0000
  H   H461      1.0  0.33171  0.13245  0.91876  1.0000
  H   H462      1.0  0.31856  0.07869  0.95852  1.0000
  C   C607      1.0  0.04421  0.44257  0.82416  1.0000
  H   H463      1.0  0.45786  0.02803  0.77892  1.0000
  H   H464      1.0  0.03501  0.33622  0.81028  1.0000
  C   C608      1.0  0.10429  0.29391  0.77921  1.0000
  H   H465      1.0  0.35652  0.10535  0.96675  1.0000
  C   C609      1.0  0.46846  0.01269  0.77668  1.0000
  H   H466      1.0  0.49207  0.06407  0.89280  1.0000
  C   C610      1.0  0.01070  0.47027  0.78707  1.0000
  C   C611      1.0  0.34861  0.99685  0.86917  1.0000
  C   C612      1.0  0.32244  0.30208  0.96274  1.0000
  C   C613      1.0  0.29119  0.34599  0.97917  1.0000
  P   P21       1.0  0.16838  0.48662  0.93413  1.0000
  H   H467      1.0  0.21807  0.48097  0.93543  1.0000
  H   H468      1.0  0.07020  0.46844  0.76539  1.0000
  H   H469      1.0  0.18498  0.39500  0.74953  1.0000
  H   H470      1.0  0.02500  0.41315  0.82515  1.0000
  H   H471      1.0  0.43740  0.00931  0.82557  1.0000
  H   H472      1.0  0.38735  0.00517  0.96832  1.0000
  H   H473      1.0  0.13420  0.20974  0.79240  1.0000
  H   H474      1.0  0.15159  0.39248  0.81760  1.0000
  C   C614      1.0  0.12984  0.41992  0.80688  1.0000
  C   C615      1.0  0.31896  0.19091  0.93130  1.0000
  H   H475      1.0  0.47617  0.10288  0.77139  1.0000
  H   H476      1.0  0.01748  0.32384  0.83978  1.0000
  C   C616      1.0  0.10191  0.44939  0.76973  1.0000
  C   C617      1.0  0.44268  0.16918  0.95305  1.0000
  C   C618      1.0  0.46067  0.17614  0.96196  1.0000
  C   C619      1.0  0.48270  0.17357  0.95439  1.0000
  C   C620      1.0  0.48676  0.16385  0.93796  1.0000
  C   C621      1.0  0.46879  0.15653  0.92898  1.0000
  C   C622      1.0  0.44666  0.15951  0.93661  1.0000
  P   P22       1.0  0.47385  0.14356  0.90784  1.0000
  C   C623      1.0  0.47079  0.11336  0.91038  1.0000
  C   C624      1.0  0.45292  0.15548  0.89297  1.0000
  C   C625      1.0  0.44457  0.17816  0.89391  1.0000
  C   C626      1.0  0.42804  0.18720  0.88256  1.0000
  C   C627      1.0  0.41997  0.17374  0.87009  1.0000
  C   C628      1.0  0.42856  0.15133  0.86885  1.0000
  H   H477      1.0  0.42202  0.14077  0.85939  1.0000
  H   H478      1.0  0.17208  0.48002  0.97328  1.0000
  C   C629      1.0  0.17962  0.42654  0.76251  1.0000
  C   C630      1.0  0.32672  0.03609  0.79633  1.0000
  H   H479      1.0  0.12984  0.24845  0.83718  1.0000
  C   C631      1.0  0.00396  0.38372  0.76919  1.0000
  C   C632      1.0  0.45245  0.10485  0.92074  1.0000
  H   H480      1.0  0.42558  0.17116  0.95892  1.0000
  H   H481      1.0  0.45755  0.18348  0.97477  1.0000
  C   C633      1.0  0.32438  0.11917  0.97791  1.0000
  S   S95       1.0  0.39863  0.19978  0.98809  1.0000
  H   H482      1.0  0.35286  0.19736  0.96512  1.0000
  H   H483      1.0  0.45070  0.18881  0.90346  1.0000
  H   H484      1.0  0.42132  0.20455  0.88353  1.0000
  H   H485      1.0  0.40682  0.18048  0.86154  1.0000
  H   H486      1.0  0.27093  0.40359  0.95641  1.0000
  H   H487      1.0  0.38913  0.03232  0.77762  1.0000
  C   C634      1.0  0.22387  0.29913  0.97752  1.0000
  H   H488      1.0  0.34349  0.15817  0.97255  1.0000
  H   H489      1.0  0.18593  0.41377  0.96729  1.0000
  H   H490      1.0  0.06526  0.25004  0.81883  1.0000
  C   C635      1.0  0.14505  0.45683  0.80520  1.0000
  H   H491      1.0  0.03861  0.33786  0.91847  1.0000
  C   C636      1.0  0.44859  0.08183  0.92116  1.0000
  H   H492      1.0  0.29566  0.32994  0.98607  1.0000
  H   H493      1.0  0.15952  0.32490  0.78014  1.0000
  H   H494      1.0  0.15377  0.47929  0.86218  1.0000
  H   H495      1.0  0.28057  0.16281  0.96988  1.0000
  H   H496      1.0  0.32769  0.31920  0.96250  1.0000
  H   H497      1.0  0.03362  0.45055  0.83455  1.0000
  C   C637      1.0  0.01834  0.36742  0.90958  1.0000
  C   C638      1.0  0.02164  0.34585  0.91789  1.0000
  H   H498      1.0  0.08971  0.49201  0.91526  1.0000
  H   H499      1.0  0.02388  0.40654  0.78149  1.0000
  C   C639      1.0  0.17862  0.44460  0.95143  1.0000
  C   C640      1.0  0.38695  0.00534  0.95399  1.0000
  C   C641      1.0  0.23556  0.13440  0.96019  1.0000
  C   C642      1.0  0.48502  0.09839  0.90031  1.0000
  H   H500      1.0  0.37615  0.04141  0.91819  1.0000
  H   H501      1.0  0.24305  0.45195  0.95064  1.0000
  C   C643      1.0  0.27069  0.11328  0.95190  1.0000
  C   C644      1.0  0.03311  0.31542  0.83469  1.0000
  H   H502      1.0  0.34293  0.24800  0.97260  1.0000
  H   H503      1.0  0.35419  0.28738  0.97202  1.0000
  H   H504      1.0  0.06438  0.21037  0.81126  1.0000
  S   S96       1.0  0.22760  0.36888  0.99234  1.0000
  H   H505      1.0  0.31231  0.20011  0.91971  1.0000
  C   C645      1.0  0.19291  0.42830  0.96004  1.0000
  C   C646      1.0  0.10755  0.46072  0.90819  1.0000
  C   C647      1.0  0.48123  0.07536  0.90088  1.0000
  C   C648      1.0  0.48272  0.07682  0.79221  1.0000
  H   H506      1.0  0.03273  0.37601  0.90364  1.0000
  H   H507      1.0  0.03643  0.29305  0.85805  1.0000
  H   H508      1.0  0.45086  0.12460  0.87932  1.0000
  C   C649      1.0  0.00306  0.33455  0.92521  1.0000
  H   H509      1.0  0.10363  0.48115  0.82468  1.0000
  C   C650      1.0  0.40323  0.03062  0.75083  1.0000
  C   C651      1.0  0.46883  0.09146  0.78156  1.0000
  C   C652      1.0  0.35721  0.00681  0.79931  1.0000
  H   H510      1.0  0.43405  0.07556  0.92881  1.0000
  H   H511      1.0  0.27912  0.09844  0.94619  1.0000
  C   C653      1.0  0.38058  0.02581  0.92582  1.0000
  C   C654      1.0  0.14425  0.31599  0.77990  1.0000
  H   H512      1.0  0.37706  0.04106  0.95107  1.0000
  C   C655      1.0  0.48349  0.10382  0.85317  1.0000
  H   H513      1.0  0.41720  0.07693  0.79885  1.0000
  H   H514      1.0  0.13057  0.32316  0.86313  1.0000
  C   C656      1.0  0.13068  0.30702  0.85715  1.0000
  H   H515      1.0  0.18247  0.41677  0.82271  1.0000
  C   C657      1.0  0.11923  0.21856  0.79828  1.0000
  C   C658      1.0  0.99921  0.37244  0.83827  1.0000
  H   H516      1.0  0.47778  0.00809  0.80386  1.0000
  C   C659      1.0  0.11991  0.24108  0.80262  1.0000
  C   C660      1.0  0.14188  0.28799  0.86520  1.0000
  C   C661      1.0  0.14173  0.26698  0.85778  1.0000
  C   C662      1.0  0.13018  0.26498  0.84239  1.0000
  C   C663      1.0  0.33764  0.28410  0.96787  1.0000
  C   C664      1.0  0.37091  0.08342  0.74705  1.0000
  C   C665      1.0  0.11883  0.43459  0.76214  1.0000
  H   H517      1.0  0.13549  0.24952  0.79999  1.0000
  H   H518      1.0  0.15040  0.28961  0.87733  1.0000
  H   H519      1.0  0.15028  0.25220  0.86415  1.0000
  C   C666      1.0  0.06337  0.31162  0.81175  1.0000
  H   H520      1.0  0.03081  0.47007  0.76252  1.0000
  H   H521      1.0  0.43240  0.15454  0.92984  1.0000
  C   C667      1.0  0.16739  0.42406  0.81660  1.0000
  P   P23       1.0  0.10197  0.28185  0.81543  1.0000
  C   C668      1.0  0.06297  0.45319  0.81636  1.0000
  H   H522      1.0  0.31233  0.99789  0.87275  1.0000
  H   H523      1.0  0.22691  0.41853  0.96693  1.0000
  H   H524      1.0  0.30483  0.24020  0.96385  1.0000
  C   C669      1.0  0.43545  0.07693  0.79697  1.0000
  C   C670      1.0  0.04381  0.29803  0.84504  1.0000
  C   C671      1.0  0.44912  0.06279  0.80792  1.0000
  C   C672      1.0  0.46725  0.12268  0.98440  1.0000
  C   C673      1.0  0.39057  0.11376  0.75761  1.0000
  H   H525      1.0  0.31323  0.05029  0.82069  1.0000
  H   H526      1.0  0.00335  0.33746  0.78350  1.0000
  C   C674      1.0  0.01536  0.47677  0.76918  1.0000
  C   C675      1.0  0.32506  0.03778  0.81475  1.0000
  C   C676      1.0  0.11885  0.28411  0.83425  1.0000
  C   C677      1.0  0.28308  0.13029  0.95799  1.0000
  H   H527      1.0  0.05607  0.40319  0.75876  1.0000
  C   C678      1.0  0.09943  0.48579  0.79628  1.0000
  C   C679      1.0  0.12356  0.36833  0.75116  1.0000
  H   H528      1.0  0.11652  0.40895  0.80503  1.0000
  C   C680      1.0  0.04091  0.39433  0.75753  1.0000
  C   C681      1.0  0.13402  0.30711  0.79575  1.0000
  H   H529      1.0  0.06997  0.48061  0.86620  1.0000
  H   H530      1.0  0.46357  0.11380  0.95760  1.0000
  C   C682      1.0  0.24651  0.30216  0.97233  1.0000
  H   H531      1.0  0.14357  0.47485  0.80217  1.0000
  H   H532      1.0  0.05099  0.39309  0.80336  1.0000
  H   H533      1.0  0.11031  0.32008  0.83583  1.0000
  C   C683      1.0  0.08052  0.24147  0.81328  1.0000
  H   H534      1.0  0.08320  0.41199  0.78870  1.0000
  H   H535      1.0  0.16209  0.44495  0.91648  1.0000
  H   H536      1.0  0.31612  0.04728  0.78800  1.0000
  C   C684      1.0  0.05379  0.41026  0.80645  1.0000
  C   C685      1.0  0.47269  0.06284  0.80571  1.0000
  C   C686      1.0  0.03947  0.42128  0.81902  1.0000
  H   H537      1.0  0.21722  0.13596  0.96105  1.0000
  H   H538      1.0  0.10672  0.30190  0.75089  1.0000
  H   H539      1.0  0.18917  0.30697  0.97130  1.0000
  C   C687      1.0  0.46296  0.06708  0.91121  1.0000
  Fe  Fe48      1.0  0.19133  0.35982  0.99263  1.0000
  C   C688      1.0  0.07232  0.42094  0.79839  1.0000
  C   C689      1.0  0.17551  0.45004  0.76016  1.0000
  C   C690      1.0  0.16499  0.44728  0.81224  1.0000
  C   C691      1.0  0.18745  0.46380  0.94241  1.0000
  C   C692      1.0  0.47539  0.11699  0.96738  1.0000
  H   H540      1.0  0.39964  0.12890  0.75492  1.0000
  H   H541      1.0  0.23758  0.10219  0.94826  1.0000
  C   C693      1.0  0.02301  0.39597  0.77043  1.0000
  H   H542      1.0  0.06619  0.46952  0.82081  1.0000
  C   C694      1.0  0.39347  0.02140  0.76672  1.0000
  H   H543      1.0  0.49035  0.17548  0.87909  1.0000
  H   H544      1.0  0.28373  0.40197  0.98717  1.0000
  H   H545      1.0  0.30199  0.16095  0.92741  1.0000
  H   H546      1.0  0.45965  0.04936  0.91112  1.0000
  C   C695      1.0  0.09925  0.20748  0.80145  1.0000
  C   C696      1.0  0.34631  0.10882  0.97879  1.0000
  C   C697      1.0  0.00231  0.37030  0.75470  1.0000
  C   C698      1.0  0.21609  0.43097  0.95979  1.0000
  H   H547      1.0  0.02232  0.45842  0.79394  1.0000
  H   H548      1.0  0.16059  0.44254  0.95238  1.0000
  C   C699      1.0  0.24703  0.11536  0.95301  1.0000
  H   H549      1.0  0.09872  0.19004  0.79803  1.0000
  C   C700      1.0  0.47951  0.00134  0.79077  1.0000
  C   C701      1.0  0.38112  0.02556  0.94430  1.0000
  C   C702      1.0  0.14384  0.47551  0.92562  1.0000
  H   H550      1.0  0.49215  0.11788  0.80386  1.0000
  H   H551      1.0  0.38519  0.00640  0.90267  1.0000
  H   H552      1.0  0.07100  0.31775  0.79915  1.0000
  C   C703      1.0  0.24774  0.15143  0.96624  1.0000
  C   C704      1.0  0.27139  0.14943  0.96511  1.0000
  H   H553      1.0  0.45621  0.00655  0.88203  1.0000
  H   H554      1.0  0.00561  0.31771  0.93147  1.0000
  H   H555      1.0  0.23886  0.16620  0.97181  1.0000
  C   C705      1.0  0.35584  0.10415  0.99522  1.0000
  C   C706      1.0  0.35478  0.00791  0.81785  1.0000
  C   C707      1.0  0.47078  0.00410  0.75976  1.0000
  C   C708      1.0  0.28423  0.38666  0.97997  1.0000
  H   H556      1.0  0.09372  0.45515  0.90119  1.0000
  H   H557      1.0  0.00270  0.35956  0.82878  1.0000
  C   C709      1.0  0.10119  0.49324  0.81346  1.0000
  C   C710      1.0  0.29123  0.36584  0.98824  1.0000
  H   H558      1.0  0.14220  0.32128  0.75151  1.0000
  C   C711      1.0  0.00020  0.49180  0.76001  1.0000
  H   H559      1.0  0.37318  0.09718  0.99570  1.0000
  C   C712      1.0  0.18192  0.41321  0.74777  1.0000
  H   H560      1.0  0.40219  0.01583  0.80962  1.0000
  H   H561      1.0  0.16385  0.49148  0.89513  1.0000
  H   H562      1.0  0.46168  0.01295  0.74913  1.0000
  H   H563      1.0  0.49181  0.05819  0.75871  1.0000
  C   C713      1.0  0.38927  0.99833  0.76848  1.0000
  H   H564      1.0  0.21965  0.28988  0.98998  1.0000
  C   C714      1.0  0.43100  0.99560  0.81890  1.0000
  H   H565      1.0  0.36524  0.99689  0.82640  1.0000
  Fe  Fe49      1.0  0.40581  0.84848  0.19175  1.0000
  S   S97       1.0  0.41075  0.88359  0.18004  1.0000
  S   S98       1.0  0.41744  0.84454  0.22029  1.0000
  Fe  Fe50      1.0  0.39465  0.83222  0.15442  1.0000
  S   S99       1.0  0.39810  0.86679  0.14129  1.0000
  S   S100      1.0  0.39194  0.80196  0.13717  1.0000
  Fe  Fe51      1.0  0.42890  0.86703  0.15689  1.0000
  S   S101      1.0  0.46085  0.88010  0.14381  1.0000
  Fe  Fe52      1.0  0.37949  0.87965  0.16594  1.0000
  S   S102      1.0  0.35028  0.90605  0.16660  1.0000
  S   S103      1.0  0.42647  0.83205  0.16928  1.0000
  S   S104      1.0  0.37336  0.84489  0.17838  1.0000
  Fe  Fe53      1.0  0.12012  0.60116  0.19885  1.0000
  S   S105      1.0  0.10664  0.56689  0.20175  1.0000
  S   S106      1.0  0.12447  0.62098  0.22332  1.0000
  Fe  Fe54      1.0  0.12766  0.59923  0.15783  1.0000
  S   S107      1.0  0.11450  0.56467  0.15811  1.0000
  S   S108      1.0  0.13894  0.61867  0.13186  1.0000
  Fe  Fe55      1.0  0.08722  0.57741  0.17768  1.0000
  S   S109      1.0  0.05292  0.56277  0.17933  1.0000
  Fe  Fe56      1.0  0.13464  0.55695  0.18212  1.0000
  S   S110      1.0  0.15311  0.52312  0.18701  1.0000
  S   S111      1.0  0.09850  0.61293  0.17598  1.0000
  S   S112      1.0  0.15013  0.59046  0.18066  1.0000
  Fe  Fe57      1.0  0.20695  0.59159  0.03365  1.0000
  S   S113      1.0  0.24508  0.58706  0.03023  1.0000
  S   S114      1.0  0.19016  0.58104  0.06110  1.0000
  C   C715      1.0  0.16984  0.55311  0.22398  1.0000
  C   C716      1.0  0.11773  0.61098  0.24562  1.0000
  H   H566      1.0  0.24762  0.51881  0.05088  1.0000
  H   H567      1.0  0.24327  0.53554  0.08034  1.0000
  P   P24       1.0  0.40247  0.95543  0.10952  1.0000
  C   C717      1.0  0.17383  0.51484  0.08458  1.0000
  Fe  Fe58      1.0  0.38416  0.77946  0.03041  1.0000
  S   S115      1.0  0.39967  0.74373  0.02942  1.0000
  S   S116      1.0  0.38013  0.80421  0.05303  1.0000
  C   C718      1.0  0.24246  0.50852  0.06265  1.0000
  Fe  Fe59      1.0  0.37216  0.73769  0.01060  1.0000
  H   H568      1.0  0.05570  0.49575  0.09023  1.0000
  C   C719      1.0  0.35565  0.98297  0.16135  1.0000
  H   H569      1.0  0.46562  0.79461  0.08752  1.0000
  Fe  Fe60      1.0  0.42014  0.75646  0.00503  1.0000
  S   S117      1.0  0.40550  0.79215  0.00687  1.0000
  H   H570      1.0  0.45833  0.83566  0.23650  1.0000
  C   C720      1.0  0.00063  0.59550  0.11428  1.0000
  C   C721      1.0  0.43484  0.93467  0.15466  1.0000
  H   H571      1.0  0.30531  0.98403  0.23399  1.0000
  S   S118      1.0  0.35227  0.70464  0.01451  1.0000
  Fe  Fe61      1.0  0.24334  0.61511  0.00845  1.0000
  S   S119      1.0  0.35580  0.77303  0.01302  1.0000
  H   H572      1.0  0.02481  0.65269  0.07325  1.0000
  H   H573      1.0  0.08421  0.54518  0.23780  1.0000
  C   C722      1.0  0.15214  0.50768  0.08942  1.0000
  C   C723      1.0  0.33682  0.93895  0.12105  1.0000
  H   H574      1.0  0.44027  0.97811  0.21070  1.0000
  C   C724      1.0  0.41060  0.93103  0.07906  1.0000
  C   C725      1.0  0.49055  0.94311  0.19451  1.0000
  H   H575      1.0  0.48089  0.87662  0.09651  1.0000
  C   C726      1.0  0.35608  0.95118  0.11778  1.0000
  C   C727      1.0  0.15460  0.60829  0.11272  1.0000
  C   C728      1.0  0.15972  0.62336  0.09808  1.0000
  C   C729      1.0  0.17097  0.61553  0.08230  1.0000
  C   C730      1.0  0.17717  0.59244  0.08093  1.0000
  C   C731      1.0  0.17226  0.57747  0.09567  1.0000
  C   C732      1.0  0.16117  0.58532  0.11145  1.0000
  H   H576      1.0  0.15469  0.64117  0.09885  1.0000
  H   H577      1.0  0.17452  0.62730  0.07113  1.0000
  H   H578      1.0  0.17708  0.55965  0.09490  1.0000
  H   H579      1.0  0.15748  0.57366  0.12259  1.0000
  C   C733      1.0  0.02748  0.59861  0.16324  1.0000
  C   C734      1.0  0.02776  0.57765  0.17280  1.0000
  C   C735      1.0  0.20142  0.49645  0.13991  1.0000
  H   H580      1.0  0.04312  0.60669  0.16005  1.0000
  H   H581      1.0  0.21091  0.51504  0.01092  1.0000
  C   C736      1.0  0.44970  0.83376  0.00147  1.0000
  S   S120      1.0  0.26589  0.64622  0.00294  1.0000
  C   C737      1.0  0.45664  0.79133  0.12980  1.0000
  C   C738      1.0  0.42998  0.96357  0.23683  1.0000
  C   C739      1.0  0.04014  0.60142  0.10679  1.0000
  C   C740      1.0  0.35325  0.93553  0.16510  1.0000
  C   C741      1.0  0.33367  0.94978  0.16320  1.0000
  H   H582      1.0  0.06828  0.53093  0.21135  1.0000
  H   H583      1.0  0.40784  0.97974  0.07425  1.0000
  C   C742      1.0  0.37412  0.94510  0.16572  1.0000
  H   H584      1.0  0.31747  0.94257  0.16289  1.0000
  H   H585      1.0  0.47074  0.83458  0.15886  1.0000
  H   H586      1.0  0.38918  0.93415  0.16763  1.0000
  C   C743      1.0  0.38966  0.80319  0.11361  1.0000
  C   C744      1.0  0.39684  0.78410  0.10393  1.0000
  C   C745      1.0  0.39439  0.78418  0.08539  1.0000
  C   C746      1.0  0.38430  0.80316  0.07632  1.0000
  C   C747      1.0  0.37737  0.82229  0.08595  1.0000
  C   C748      1.0  0.38002  0.82234  0.10443  1.0000
  H   H587      1.0  0.40435  0.76919  0.11083  1.0000
  H   H588      1.0  0.40034  0.76964  0.07807  1.0000
  H   H589      1.0  0.36966  0.83715  0.07910  1.0000
  H   H590      1.0  0.37418  0.83705  0.11163  1.0000
  C   C749      1.0  0.46297  0.81335  0.12574  1.0000
  C   C750      1.0  0.48931  0.92453  0.18417  1.0000
  C   C751      1.0  0.09492  0.55245  0.11578  1.0000
  H   H591      1.0  0.02826  0.57183  0.21829  1.0000
  C   C752      1.0  0.11268  0.60408  0.08358  1.0000
  C   C753      1.0  0.11429  0.60931  0.06529  1.0000
  C   C754      1.0  0.09863  0.62509  0.05767  1.0000
  C   C755      1.0  0.08141  0.63571  0.06836  1.0000
  C   C756      1.0  0.08002  0.63092  0.08686  1.0000
  C   C757      1.0  0.09590  0.61507  0.09439  1.0000
  P   P25       1.0  0.05753  0.64409  0.10080  1.0000
  C   C758      1.0  0.06826  0.65126  0.12148  1.0000
  C   C759      1.0  0.04629  0.66984  0.08951  1.0000
  C   C760      1.0  0.05344  0.69099  0.09336  1.0000
  C   C761      1.0  0.04456  0.71082  0.08461  1.0000
  C   C762      1.0  0.02858  0.70968  0.07191  1.0000
  C   C763      1.0  0.02153  0.68870  0.06788  1.0000
  C   C764      1.0  0.03037  0.66884  0.07659  1.0000
  C   C765      1.0  0.05392  0.65211  0.13698  1.0000
  C   C766      1.0  0.06208  0.65809  0.15291  1.0000
  C   C767      1.0  0.08455  0.66346  0.15346  1.0000
  C   C768      1.0  0.09888  0.66281  0.13809  1.0000
  C   C769      1.0  0.09080  0.65682  0.12213  1.0000
  C   C770      1.0  0.03522  0.62497  0.10563  1.0000
  C   C771      1.0  0.13431  0.50242  0.18399  1.0000
  C   C772      1.0  0.00847  0.51234  0.14316  1.0000
  H   H592      1.0  0.29874  0.56248  0.00753  1.0000
  C   C773      1.0  0.17648  0.53102  0.22996  1.0000
  C   C774      1.0  0.47272  0.77307  0.12841  1.0000
  H   H593      1.0  0.12485  0.59186  0.08943  1.0000
  H   H594      1.0  0.12789  0.60130  0.05711  1.0000
  H   H595      1.0  0.09996  0.62920  0.04347  1.0000
  H   H596      1.0  0.06949  0.64779  0.06209  1.0000
  H   H597      1.0  0.09550  0.61133  0.10865  1.0000
  H   H598      1.0  0.06584  0.69231  0.10311  1.0000
  H   H599      1.0  0.05007  0.72709  0.08771  1.0000
  H   H600      1.0  0.45881  0.79280  0.23472  1.0000
  P   P26       1.0  0.99776  0.50813  0.24455  1.0000
  H   H601      1.0  0.00859  0.65165  0.10891  1.0000
  H   H602      1.0  0.03644  0.64814  0.13686  1.0000
  H   H603      1.0  0.05103  0.65833  0.16489  1.0000
  H   H604      1.0  0.09102  0.66768  0.16588  1.0000
  H   H605      1.0  0.11650  0.66634  0.13862  1.0000
  H   H606      1.0  0.10231  0.65633  0.11043  1.0000
  H   H607      1.0  0.05725  0.59431  0.10461  1.0000
  H   H608      1.0  0.36098  0.88562  0.11799  1.0000
  H   H609      1.0  0.41639  0.91925  0.13571  1.0000
  C   C775      1.0  0.37740  0.93987  0.11442  1.0000
  C   C776      1.0  0.05103  0.59754  0.22188  1.0000
  C   C777      1.0  0.47285  0.90908  0.18854  1.0000
  H   H610      1.0  0.33464  0.80360  0.04459  1.0000
  H   H611      1.0  0.37124  0.83571  0.23441  1.0000
  H   H612      1.0  0.35908  0.95789  0.20560  1.0000
  H   H613      1.0  0.47186  0.89461  0.18060  1.0000
  C   C778      1.0  0.31040  0.69722  0.00033  1.0000
  H   H614      1.0  0.07172  0.62349  0.22922  1.0000
  H   H615      1.0  0.25891  0.50388  0.21986  1.0000
  C   C779      1.0  0.05892  0.52983  0.22418  1.0000
  C   C780      1.0  0.23348  0.50458  0.09437  1.0000
  H   H616      1.0  0.21220  0.52015  0.15772  1.0000
  H   H617      1.0  0.14878  0.53833  0.13500  1.0000
  H   H618      1.0  0.05989  0.59566  0.20900  1.0000
  H   H619      1.0  0.29437  0.81219  0.03865  1.0000
  H   H620      1.0  0.07116  0.51628  0.14698  1.0000
  C   C781      1.0  0.40256  0.92434  0.21379  1.0000
  C   C782      1.0  0.16551  0.50676  0.12673  1.0000
  C   C783      1.0  0.24007  0.51790  0.07925  1.0000
  C   C784      1.0  0.45833  0.93114  0.21333  1.0000
  H   H621      1.0  0.17866  0.54692  0.15411  1.0000
  H   H622      1.0  0.34280  0.95291  0.23641  1.0000
  S   S121      1.0  0.20118  0.56643  0.01339  1.0000
  H   H623      1.0  0.09253  0.56959  0.11018  1.0000
  C   C785      1.0  0.35922  0.97143  0.21460  1.0000
  C   C786      1.0  0.11788  0.51688  0.11822  1.0000
  C   C787      1.0  0.32649  0.66682  0.01914  1.0000
  C   C788      1.0  0.42295  0.79012  0.23882  1.0000
  C   C789      1.0  0.45604  0.76145  0.08271  1.0000
  C   C790      1.0  0.45035  0.74692  0.07004  1.0000
  C   C791      1.0  0.44942  0.75470  0.05225  1.0000
  C   C792      1.0  0.45414  0.77697  0.04705  1.0000
  C   C793      1.0  0.45975  0.79171  0.05970  1.0000
  C   C794      1.0  0.46095  0.78370  0.07755  1.0000
  P   P27       1.0  0.46725  0.82003  0.05291  1.0000
  C   C795      1.0  0.45965  0.83796  0.07132  1.0000
  H   H624      1.0  0.46780  0.75603  0.13181  1.0000
  C   C796      1.0  0.99837  0.53436  0.14300  1.0000
  H   H625      1.0  0.33976  0.65994  0.02750  1.0000
  H   H626      1.0  0.35555  0.89565  0.22487  1.0000
  C   C797      1.0  0.29028  0.66203  0.00613  1.0000
  H   H627      1.0  0.17994  0.51826  0.22028  1.0000
  C   C798      1.0  0.43819  0.83703  0.08023  1.0000
  C   C799      1.0  0.43187  0.85106  0.09417  1.0000
  C   C800      1.0  0.44707  0.86569  0.09971  1.0000
  C   C801      1.0  0.46884  0.86594  0.09160  1.0000
  C   C802      1.0  0.47515  0.85213  0.07750  1.0000
  C   C803      1.0  0.45168  0.82968  0.03365  1.0000
  C   C804      1.0  0.42944  0.83940  0.03549  1.0000
  C   C805      1.0  0.41761  0.84649  0.02046  1.0000
  C   C806      1.0  0.48849  0.73424  0.01902  1.0000
  H   H628      1.0  0.19589  0.52864  0.06347  1.0000
  C   C807      1.0  0.46155  0.82656  0.01646  1.0000
  H   H629      1.0  0.45663  0.75547  0.09652  1.0000
  H   H630      1.0  0.44676  0.72962  0.07397  1.0000
  H   H631      1.0  0.45354  0.78247  0.03312  1.0000
  S   S122      1.0  0.25790  0.52789  0.00949  1.0000
  C   C808      1.0  0.34890  0.98683  0.24337  1.0000
  C   C809      1.0  0.49227  0.83441  0.24511  1.0000
  C   C810      1.0  0.43882  0.97483  0.14987  1.0000
  H   H632      1.0  0.12973  0.51528  0.04872  1.0000
  H   H633      1.0  0.42636  0.82530  0.07651  1.0000
  H   H634      1.0  0.41526  0.85035  0.10089  1.0000
  H   H635      1.0  0.44212  0.87646  0.11057  1.0000
  H   H636      1.0  0.43837  0.91888  0.16223  1.0000
  C   C811      1.0  0.37535  0.96888  0.16388  1.0000
  H   H637      1.0  0.42077  0.84102  0.04838  1.0000
  H   H638      1.0  0.47819  0.81803  0.01453  1.0000
  H   H639      1.0  0.02665  0.50991  0.14390  1.0000
  C   C812      1.0  0.38054  0.84133  0.24502  1.0000
  C   C813      1.0  0.39960  0.99129  0.08354  1.0000
  C   C814      1.0  0.16364  0.52223  0.05409  1.0000
  C   C815      1.0  0.47540  0.94616  0.20926  1.0000
  C   C816      1.0  0.18052  0.53163  0.14682  1.0000
  C   C817      1.0  0.38192  0.91494  0.21198  1.0000
  C   C818      1.0  0.33861  0.91536  0.12112  1.0000
  H   H640      1.0  0.16839  0.55722  0.20990  1.0000
  H   H641      1.0  0.39513  0.90684  0.11200  1.0000
  C   C819      1.0  0.07927  0.54421  0.12874  1.0000
  C   C820      1.0  0.16489  0.56985  0.23610  1.0000
  C   C821      1.0  0.45734  0.92522  0.08233  1.0000
  H   H642      1.0  0.16804  0.52847  0.04060  1.0000
  H   H643      1.0  0.47456  0.72470  0.02441  1.0000
  C   C822      1.0  0.00684  0.60889  0.15749  1.0000
  C   C823      1.0  0.42236  0.93497  0.13952  1.0000
  C   C824      1.0  0.41316  0.92140  0.22999  1.0000
  H   H644      1.0  0.10520  0.52610  0.18190  1.0000
  H   H645      1.0  0.11934  0.50274  0.07984  1.0000
  S   S123      1.0  0.20502  0.62096  0.01293  1.0000
  H   H646      1.0  0.06479  0.55499  0.13327  1.0000
  C   C825      1.0  0.13629  0.50777  0.07634  1.0000
  C   C826      1.0  0.47532  0.84071  0.23340  1.0000
  C   C827      1.0  0.44278  0.95463  0.15997  1.0000
  Fe  Fe62      1.0  0.23879  0.56290  0.00938  1.0000
  H   H647      1.0  0.41027  0.93370  0.20250  1.0000
  C   C828      1.0  0.35965  0.90395  0.11770  1.0000
  H   H648      1.0  0.32379  0.90588  0.12428  1.0000
  H   H649      1.0  0.23177  0.51191  0.10723  1.0000
  C   C829      1.0  0.03779  0.52059  0.22571  1.0000
  C   C830      1.0  0.41781  0.95535  0.12950  1.0000
  H   H650      1.0  0.16583  0.50624  0.99723  1.0000
  H   H651      1.0  0.18618  0.51569  0.09440  1.0000
  H   H652      1.0  0.02169  0.72507  0.06518  1.0000
  C   C831      1.0  0.37137  0.90321  0.22641  1.0000
  C   C832      1.0  0.48498  0.84443  0.16021  1.0000
  H   H653      1.0  0.41974  0.79390  0.22492  1.0000
  H   H654      1.0  0.44500  0.89994  0.20628  1.0000
  C   C833      1.0  0.19940  0.51648  0.14889  1.0000
  H   H655      1.0  0.14549  0.50084  0.23509  1.0000
  H   H656      1.0  0.10002  0.58278  0.23864  1.0000
  C   C834      1.0  0.40281  0.84736  0.24148  1.0000
  H   H657      1.0  0.45221  0.95447  0.17178  1.0000
  H   H658      1.0  0.35406  0.96935  0.11819  1.0000
  P   P28       1.0  0.43910  0.93469  0.23256  1.0000
  C   C835      1.0  0.28355  0.78119  0.05185  1.0000
  C   C836      1.0  0.29955  0.79649  0.04582  1.0000
  C   C837      1.0  0.32229  0.79161  0.04916  1.0000
  C   C838      1.0  0.32921  0.77131  0.05831  1.0000
  C   C839      1.0  0.31329  0.75570  0.06417  1.0000
  C   C840      1.0  0.29033  0.76098  0.06114  1.0000
  P   P29       1.0  0.32150  0.73013  0.07709  1.0000
  C   C841      1.0  0.30324  0.70855  0.07193  1.0000
  C   C842      1.0  0.35068  0.72086  0.07172  1.0000
  C   C843      1.0  0.35626  0.70371  0.05988  1.0000
  C   C844      1.0  0.37881  0.69596  0.05650  1.0000
  C   C845      1.0  0.39598  0.70499  0.06512  1.0000
  C   C846      1.0  0.39060  0.72205  0.07694  1.0000
  C   C847      1.0  0.36810  0.73014  0.08010  1.0000
  C   C848      1.0  0.29326  0.69445  0.08540  1.0000
  C   C849      1.0  0.27886  0.67815  0.08111  1.0000
  C   C850      1.0  0.27415  0.67594  0.06340  1.0000
  C   C851      1.0  0.28382  0.69005  0.04998  1.0000
  C   C852      1.0  0.29840  0.70618  0.05417  1.0000
  C   C853      1.0  0.31929  0.73554  0.10046  1.0000
  C   C854      1.0  0.30946  0.75619  0.10638  1.0000
  C   C855      1.0  0.30936  0.76078  0.12435  1.0000
  C   C856      1.0  0.31903  0.74482  0.13653  1.0000
  C   C857      1.0  0.32876  0.72420  0.13076  1.0000
  C   C858      1.0  0.32897  0.71959  0.11280  1.0000
  H   H659      1.0  0.26586  0.78506  0.04943  1.0000
  H   H660      1.0  0.41653  0.91092  0.05618  1.0000
  C   C859      1.0  0.44751  0.91551  0.06853  1.0000
  H   H661      1.0  0.34694  0.76797  0.06079  1.0000
  H   H662      1.0  0.27762  0.74953  0.06601  1.0000
  H   H663      1.0  0.34339  0.69630  0.05304  1.0000
  H   H664      1.0  0.38291  0.68317  0.04693  1.0000
  H   H665      1.0  0.41344  0.69904  0.06235  1.0000
  H   H666      1.0  0.40387  0.72918  0.08356  1.0000
  H   H667      1.0  0.36431  0.74361  0.08913  1.0000
  H   H668      1.0  0.29641  0.69599  0.09920  1.0000
  H   H669      1.0  0.27123  0.66725  0.09151  1.0000
  H   H670      1.0  0.26302  0.66331  0.06003  1.0000
  H   H671      1.0  0.28008  0.68841  0.03627  1.0000
  H   H672      1.0  0.30602  0.71673  0.04349  1.0000
  H   H673      1.0  0.30226  0.76902  0.09718  1.0000
  H   H674      1.0  0.30212  0.77690  0.12879  1.0000
  H   H675      1.0  0.31919  0.74856  0.15040  1.0000
  H   H676      1.0  0.33644  0.71193  0.14018  1.0000
  H   H677      1.0  0.33701  0.70373  0.10845  1.0000
  C   C860      1.0  0.16353  0.52669  0.13594  1.0000
  C   C861      1.0  0.45745  0.91230  0.20306  1.0000
  C   C862      1.0  0.43272  0.98126  0.22381  1.0000
  C   C863      1.0  0.42029  0.94036  0.09323  1.0000
  H   H678      1.0  0.12652  0.54604  0.10101  1.0000
  H   H679      1.0  0.45055  0.82752  0.12721  1.0000
  C   C864      1.0  0.11150  0.50863  0.18152  1.0000
  H   H680      1.0  0.00777  0.55106  0.18397  1.0000
  C   C865      1.0  0.00743  0.56736  0.17684  1.0000
  H   H681      1.0  0.43929  0.78847  0.13424  1.0000
  C   C866      1.0  0.08292  0.52241  0.13654  1.0000
  H   H682      1.0  0.00869  0.54863  0.14361  1.0000
  C   C867      1.0  0.06788  0.53793  0.23905  1.0000
  C   C868      1.0  0.32806  0.68876  0.01095  1.0000
  C   C869      1.0  0.42416  0.91849  0.06686  1.0000
  H   H683      1.0  0.32057  0.94778  0.12410  1.0000
  H   H684      1.0  0.44519  0.74346  0.04237  1.0000
  H   H685      1.0  0.37409  0.91658  0.19932  1.0000
  C   C870      1.0  0.17947  0.52217  0.06701  1.0000
  H   H686      1.0  0.46715  0.85762  0.20832  1.0000
  C   C871      1.0  0.22759  0.50107  0.23562  1.0000
  H   H687      1.0  0.30700  0.63711  0.02360  1.0000
  C   C872      1.0  0.03318  0.58406  0.22718  1.0000
  C   C873      1.0  0.42671  0.97519  0.13456  1.0000
  C   C874      1.0  0.48482  0.75148  0.00580  1.0000
  C   C875      1.0  0.42780  0.84388  0.00346  1.0000
  C   C876      1.0  0.48504  0.86668  0.15297  1.0000
  C   C877      1.0  0.14208  0.51491  0.05872  1.0000
  C   C878      1.0  0.34993  0.96877  0.23204  1.0000
  C   C879      1.0  0.30785  0.65368  0.01687  1.0000
  C   C880      1.0  0.48029  0.85324  0.21755  1.0000
  C   C881      1.0  0.37898  0.91609  0.11444  1.0000
  C   C882      1.0  0.11419  0.53895  0.11059  1.0000
  H   H688      1.0  0.47701  0.96017  0.21749  1.0000
  H   H689      1.0  0.15977  0.58697  0.23140  1.0000
  P   P30       1.0  0.14385  0.50037  0.11240  1.0000
  C   C883      1.0  0.33490  0.97326  0.16113  1.0000
  H   H690      1.0  0.42456  0.99102  0.12677  1.0000
  C   C884      1.0  0.39489  0.98417  0.10140  1.0000
  C   C885      1.0  0.44382  0.93767  0.09462  1.0000
  C   C886      1.0  0.29192  0.68394  0.99783  1.0000
  C   C887      1.0  0.05753  0.61336  0.23321  1.0000
  H   H691      1.0  0.31962  0.98398  0.15924  1.0000
  C   C888      1.0  0.02290  0.58676  0.11112  1.0000
  H   H692      1.0  0.49222  0.85238  0.07180  1.0000
  H   H693      1.0  0.40022  0.85329  0.02204  1.0000
  H   H694      1.0  0.45178  0.94488  0.10529  1.0000
  C   C889      1.0  0.10220  0.50886  0.13145  1.0000
  C   C890      1.0  0.01280  0.63358  0.10904  1.0000
  H   H695      1.0  0.39143  0.97627  0.16421  1.0000
  H   H696      1.0  0.03152  0.51420  0.21398  1.0000
  H   H697      1.0  0.00660  0.62498  0.14998  1.0000
  H   H698      1.0  0.02681  0.56865  0.11225  1.0000
  H   H699      1.0  0.38061  0.99473  0.12691  1.0000
  H   H700      1.0  0.39251  0.93313  0.07764  1.0000
  C   C891      1.0  0.22199  0.49977  0.01102  1.0000
  H   H701      1.0  0.21902  0.51434  0.22765  1.0000
  C   C892      1.0  0.99560  0.61888  0.11317  1.0000
  H   H702      1.0  0.00917  0.68782  0.05801  1.0000
  H   H703      1.0  0.30900  0.60251  0.00525  1.0000
  C   C893      1.0  0.48538  0.81719  0.12022  1.0000
  H   H704      1.0  0.44523  0.99025  0.15384  1.0000
  H   H705      1.0  0.45797  0.90559  0.05918  1.0000
  C   C894      1.0  0.02174  0.58645  0.24381  1.0000
  H   H706      1.0  0.47544  0.92292  0.08366  1.0000
  C   C895      1.0  0.24544  0.50133  0.01054  1.0000
  C   C896      1.0  0.02518  0.51988  0.24212  1.0000
  C   C897      1.0  0.38133  0.90105  0.24275  1.0000
  H   H707      1.0  0.07911  0.49717  0.17622  1.0000
  H   H708      1.0  0.48984  0.83447  0.11755  1.0000
  C   C898      1.0  0.29469  0.98842  0.24560  1.0000
  H   H709      1.0  0.45350  0.88768  0.24109  1.0000
  C   C899      1.0  0.40216  0.91006  0.24457  1.0000
  H   H710      1.0  0.37476  0.99409  0.19486  1.0000
  C   C900      1.0  0.36798  0.99189  0.20846  1.0000
  H   H711      1.0  0.26450  0.99151  0.23096  1.0000
  C   C901      1.0  0.27144  0.99266  0.24380  1.0000
  C   C902      1.0  0.44498  0.78964  0.24440  1.0000
  S   S124      1.0  0.45791  0.75803  0.99679  1.0000
  H   H712      1.0  0.28607  0.78237  0.99601  1.0000
  Fe  Fe63      1.0  0.38284  0.86095  0.36453  1.0000
  S   S125      1.0  0.39941  0.89391  0.36388  1.0000
  S   S126      1.0  0.37452  0.84171  0.39125  1.0000
  Fe  Fe64      1.0  0.38243  0.86217  0.32324  1.0000
  S   S127      1.0  0.39818  0.89536  0.32015  1.0000
  S   S128      1.0  0.37011  0.84694  0.29869  1.0000
  Fe  Fe65      1.0  0.42149  0.88095  0.34095  1.0000
  S   S129      1.0  0.45696  0.89205  0.33475  1.0000
  Fe  Fe66      1.0  0.37498  0.90528  0.34323  1.0000
  S   S130      1.0  0.35739  0.93979  0.34480  1.0000
  S   S131      1.0  0.40725  0.84664  0.34284  1.0000
  S   S132      1.0  0.35689  0.87330  0.34504  1.0000
  Fe  Fe67      1.0  0.07696  0.57499  0.36655  1.0000
  S   S133      1.0  0.08097  0.60921  0.35305  1.0000
  S   S134      1.0  0.04396  0.56190  0.37749  1.0000
  Fe  Fe68      1.0  0.12680  0.56105  0.36122  1.0000
  S   S135      1.0  0.13474  0.59485  0.34779  1.0000
  S   S136      1.0  0.15395  0.53289  0.36515  1.0000
  Fe  Fe69      1.0  0.11118  0.60955  0.36987  1.0000
  S   S137      1.0  0.11169  0.64071  0.38664  1.0000
  Fe  Fe70      1.0  0.10364  0.59141  0.33243  1.0000
  S   S138      1.0  0.09537  0.58831  0.30332  1.0000
  S   S139      1.0  0.10587  0.57588  0.38399  1.0000
  S   S140      1.0  0.09737  0.55702  0.34528  1.0000
  H   H713      1.0  0.28935  0.97762  0.39216  1.0000
  S   S141      1.0  0.31469  0.87467  0.46017  1.0000
  H   H714      1.0  0.06045  0.66814  0.48320  1.0000
  C   C903      1.0  0.07784  0.51787  0.42767  1.0000
  S   S142      1.0  0.13090  0.64723  0.46906  1.0000
  C   C904      1.0  0.05572  0.53681  0.25549  1.0000
  H   H715      1.0  0.38347  0.91784  0.28373  1.0000
  C   C905      1.0  0.12443  0.62270  0.25988  1.0000
  C   C906      1.0  0.36619  0.92482  0.28294  1.0000
  H   H716      1.0  0.47709  0.77857  0.31933  1.0000
  C   C907      1.0  0.10527  0.59715  0.28140  1.0000
  C   C908      1.0  0.11844  0.61571  0.27770  1.0000
  C   C909      1.0  0.09884  0.58534  0.26712  1.0000
  H   H717      1.0  0.12348  0.62505  0.28851  1.0000
  H   H718      1.0  0.08875  0.57098  0.26976  1.0000
  C   C910      1.0  0.12415  0.64567  0.44641  1.0000
  C   C911      1.0  0.13035  0.62554  0.43779  1.0000
  C   C912      1.0  0.12627  0.62359  0.41971  1.0000
  C   C913      1.0  0.11600  0.64183  0.40985  1.0000
  C   C914      1.0  0.10960  0.66191  0.41851  1.0000
  C   C915      1.0  0.11352  0.66381  0.43666  1.0000
  H   H719      1.0  0.13870  0.61143  0.44510  1.0000
  H   H720      1.0  0.13155  0.60812  0.41328  1.0000
  H   H721      1.0  0.10173  0.67620  0.41109  1.0000
  H   H722      1.0  0.10879  0.67945  0.44301  1.0000
  C   C916      1.0  0.48159  0.87846  0.34336  1.0000
  H   H723      1.0  0.40841  0.87178  0.40062  1.0000
  C   C917      1.0  0.46098  0.93358  0.26456  1.0000
  C   C918      1.0  0.02161  0.57602  0.36643  1.0000
  C   C919      1.0  0.02294  0.59859  0.36020  1.0000
  H   H724      1.0  0.39658  0.98411  0.43711  1.0000
  C   C920      1.0  0.03419  0.59333  0.44638  1.0000
  H   H725      1.0  0.03695  0.60786  0.36324  1.0000
  C   C921      1.0  0.38257  0.84847  0.27661  1.0000
  C   C922      1.0  0.37065  0.84150  0.26256  1.0000
  H   H726      1.0  0.44630  0.75033  0.33105  1.0000
  H   H727      1.0  0.41935  0.84752  0.42681  1.0000
  C   C923      1.0  0.03441  0.52797  0.25703  1.0000
  C   C924      1.0  0.40437  0.85561  0.27287  1.0000
  H   H728      1.0  0.35372  0.83601  0.26527  1.0000
  H   H729      1.0  0.47367  0.90878  0.47437  1.0000
  C   C925      1.0  0.13568  0.77757  0.47770  1.0000
  H   H730      1.0  0.41357  0.86144  0.28343  1.0000
  C   C926      1.0  0.35738  0.85103  0.41015  1.0000
  C   C927      1.0  0.35493  0.83623  0.42539  1.0000
  C   C928      1.0  0.34169  0.84289  0.44068  1.0000
  C   C929      1.0  0.33080  0.86460  0.44103  1.0000
  C   C930      1.0  0.33322  0.87937  0.42579  1.0000
  C   C931      1.0  0.34636  0.87270  0.41047  1.0000
  H   H731      1.0  0.36324  0.81941  0.42534  1.0000
  H   H732      1.0  0.33993  0.83120  0.45217  1.0000
  H   H733      1.0  0.32459  0.89602  0.42581  1.0000
  H   H734      1.0  0.34784  0.88425  0.39887  1.0000
  H   H735      1.0  0.46614  0.84932  0.35588  1.0000
  C   C932      1.0  0.48654  0.95809  0.34411  1.0000
  C   C933      1.0  0.41723  0.96849  0.34231  1.0000
  C   C934      1.0  0.40079  0.95278  0.34186  1.0000
  C   C935      1.0  0.37804  0.95917  0.34599  1.0000
  C   C936      1.0  0.37184  0.98110  0.35110  1.0000
  C   C937      1.0  0.37651  0.98514  0.41438  1.0000
  H   H736      1.0  0.40578  0.93582  0.33807  1.0000
  C   C938      1.0  0.41463  0.85430  0.25558  1.0000
  C   C939      1.0  0.44455  0.98585  0.43234  1.0000
  H   H737      1.0  0.21485  0.98042  0.40352  1.0000
  C   C940      1.0  0.33217  0.95864  0.47190  1.0000
  C   C941      1.0  0.04855  0.65371  0.38403  1.0000
  H   H738      1.0  0.12600  0.53567  0.25912  1.0000
  H   H739      1.0  0.47201  0.97759  0.28653  1.0000
  C   C942      1.0  0.03158  0.67113  0.38242  1.0000
  H   H740      1.0  0.35428  0.98599  0.35455  1.0000
  Fe  Fe71      1.0  0.30151  0.86362  0.48872  1.0000
  C   C943      1.0  0.02595  0.54607  0.31503  1.0000
  H   H741      1.0  0.23993  0.96338  0.48602  1.0000
  H   H742      1.0  0.00696  0.62693  0.34548  1.0000
  H   H743      1.0  0.35748  0.98068  0.29869  1.0000
  C   C944      1.0  0.45597  0.97281  0.38373  1.0000
  C   C945      1.0  0.43242  0.97237  0.38578  1.0000
  C   C946      1.0  0.42242  0.95173  0.38838  1.0000
  C   C947      1.0  0.43602  0.93153  0.38926  1.0000
  C   C948      1.0  0.40888  0.78225  0.26923  1.0000
  H   H744      1.0  0.47581  0.96143  0.31749  1.0000
  C   C949      1.0  0.02935  0.51030  0.40881  1.0000
  H   H745      1.0  0.40313  0.98768  0.30676  1.0000
  C   C950      1.0  0.16651  0.56454  0.25427  1.0000
  C   C951      1.0  0.00575  0.51325  0.40981  1.0000
  S   S143      1.0  0.11573  0.71075  0.48797  1.0000
  C   C952      1.0  0.48373  0.81353  0.31876  1.0000
  H   H746      1.0  0.42841  0.91543  0.39044  1.0000
  C   C953      1.0  0.02440  0.67167  0.28639  1.0000
  C   C954      1.0  0.15085  0.50345  0.36503  1.0000
  C   C955      1.0  0.47363  0.89887  0.28063  1.0000
  H   H747      1.0  0.02630  0.56681  0.42982  1.0000
  C   C956      1.0  0.40996  0.99018  0.25647  1.0000
  C   C957      1.0  0.32808  0.93590  0.47543  1.0000
  H   H748      1.0  0.40416  0.95137  0.38893  1.0000
  C   C958      1.0  0.22276  0.78913  0.46986  1.0000
  P   P31       1.0  0.28790  0.97977  0.43133  1.0000
  C   C959      1.0  0.11046  0.50512  0.26879  1.0000
  C   C960      1.0  0.41603  0.91505  0.47818  1.0000
  H   H749      1.0  0.05156  0.62818  0.25836  1.0000
  H   H750      1.0  0.03535  0.68694  0.37526  1.0000
  C   C961      1.0  0.02058  0.63111  0.28641  1.0000
  H   H751      1.0  0.06277  0.54298  0.26702  1.0000
  H   H752      1.0  0.23469  0.75444  0.47502  1.0000
  H   H753      1.0  0.03325  0.61187  0.30967  1.0000
  C   C962      1.0  0.17835  0.52545  0.24820  1.0000
  Fe  Fe72      1.0  0.12373  0.67312  0.49070  1.0000
  C   C963      1.0  0.31746  0.95452  0.38533  1.0000
  C   C964      1.0  0.37193  0.94819  0.46563  1.0000
  C   C965      1.0  0.04341  0.55518  0.30423  1.0000
  C   C966      1.0  0.47165  0.79541  0.31441  1.0000
  H   H754      1.0  0.43561  0.96196  0.29726  1.0000
  C   C967      1.0  0.00481  0.64758  0.39917  1.0000
  C   C968      1.0  0.43725  0.98008  0.29642  1.0000
  H   H755      1.0  0.47503  0.93197  0.29037  1.0000
  H   H756      1.0  0.25567  0.98821  0.46163  1.0000
  C   C969      1.0  0.01625  0.58208  0.29010  1.0000
  C   C970      1.0  0.00977  0.66807  0.38987  1.0000
  H   H757      1.0  0.17281  0.80672  0.45224  1.0000
  C   C971      1.0  0.09996  0.50231  0.30030  1.0000
  H   H758      1.0  0.02516  0.52756  0.26985  1.0000
  P   P32       1.0  0.39128  0.90390  0.47006  1.0000
  C   C972      1.0  0.10626  0.51264  0.40359  1.0000
  C   C973      1.0  0.00130  0.64606  0.47694  1.0000
  C   C974      1.0  0.19478  0.50137  0.30906  1.0000
  C   C975      1.0  0.03788  0.64705  0.31079  1.0000
  H   H759      1.0  0.13475  0.53321  0.40337  1.0000
  H   H760      1.0  0.99765  0.53018  0.40887  1.0000
  H   H761      1.0  0.37095  0.96827  0.41731  1.0000
  C   C976      1.0  0.30293  0.96648  0.39731  1.0000
  C   C977      1.0  0.39565  0.89995  0.41593  1.0000
  H   H762      1.0  0.37308  0.89190  0.25392  1.0000
  H   H763      1.0  0.00129  0.68092  0.42263  1.0000
  C   C978      1.0  0.02750  0.60303  0.25495  1.0000
  C   C979      1.0  0.08552  0.50719  0.41211  1.0000
  H   H764      1.0  0.02974  0.53293  0.32523  1.0000
  H   H765      1.0  0.17429  0.53895  0.27449  1.0000
  C   C980      1.0  0.24676  0.98037  0.41564  1.0000
  C   C981      1.0  0.45835  0.83962  0.30246  1.0000
  H   H766      1.0  0.34218  0.90187  0.47731  1.0000
  C   C982      1.0  0.10529  0.59195  0.24940  1.0000
  C   C983      1.0  0.04978  0.60923  0.44949  1.0000
  C   C984      1.0  0.45955  0.93190  0.38753  1.0000
  C   C985      1.0  0.40589  0.87829  0.41376  1.0000
  H   H767      1.0  0.46409  0.95405  0.42995  1.0000
  H   H768      1.0  0.00797  0.57584  0.24778  1.0000
  P   P33       1.0  0.04510  0.62805  0.46757  1.0000
  C   C986      1.0  0.06479  0.62024  0.48470  1.0000
  H   H769      1.0  0.38778  0.78769  0.24692  1.0000
  C   C987      1.0  0.30612  0.96401  0.41566  1.0000
  H   H770      1.0  0.06230  0.51335  0.43483  1.0000
  H   H771      1.0  0.02221  0.59243  0.48823  1.0000
  C   C988      1.0  0.33510  0.93993  0.39154  1.0000
  C   C989      1.0  0.33856  0.93768  0.40970  1.0000
  C   C990      1.0  0.32446  0.94999  0.42168  1.0000
  C   C991      1.0  0.04371  0.63321  0.39305  1.0000
  H   H772      1.0  0.38883  0.95319  0.46188  1.0000
  H   H773      1.0  0.35240  0.83369  0.48476  1.0000
  P   P34       1.0  0.01123  0.60723  0.27571  1.0000
  C   C992      1.0  0.07106  0.50620  0.37036  1.0000
  C   C993      1.0  0.45383  0.92106  0.25097  1.0000
  H   H774      1.0  0.46719  0.71352  0.33734  1.0000
  C   C994      1.0  0.17332  0.54249  0.26033  1.0000
  H   H775      1.0  0.11284  0.50417  0.39190  1.0000
  H   H776      1.0  0.08426  0.54284  0.44605  1.0000
  C   C995      1.0  0.28056  0.93757  0.44921  1.0000
  C   C996      1.0  0.45779  0.98896  0.29049  1.0000
  C   C997      1.0  0.01727  0.65297  0.27835  1.0000
  H   H777      1.0  0.36540  0.86502  0.46473  1.0000
  C   C998      1.0  0.34584  0.91929  0.47417  1.0000
  H   H778      1.0  0.20627  0.82192  0.46404  1.0000
  C   C999      1.0  0.03476  0.66870  0.30257  1.0000
  C   C1000     1.0  0.10874  0.52324  0.30215  1.0000
  H   H779      1.0  0.34594  0.93021  0.38227  1.0000
  H   H780      1.0  0.35186  0.92596  0.41452  1.0000
  H   H781      1.0  0.32745  0.94805  0.43571  1.0000
  H   H782      1.0  0.00927  0.65551  0.26580  1.0000
  C   C1001     1.0  0.38336  0.88003  0.48462  1.0000
  C   C1002     1.0  0.37032  0.86371  0.47833  1.0000
  C   C1003     1.0  0.05812  0.58029  0.42137  1.0000
  H   H783      1.0  0.35205  0.89526  0.29606  1.0000
  C   C1004     1.0  0.39174  0.90803  0.43295  1.0000
  C   C1005     1.0  0.45951  0.96813  0.43827  1.0000
  C   C1006     1.0  0.35400  0.96481  0.46673  1.0000
  H   H784      1.0  0.29113  0.92956  0.43893  1.0000
  C   C1007     1.0  0.37805  0.75613  0.32411  1.0000
  C   C1008     1.0  0.36785  0.77624  0.33049  1.0000
  C   C1009     1.0  0.37848  0.79644  0.32713  1.0000
  C   C1010     1.0  0.39940  0.79658  0.31755  1.0000
  C   C1011     1.0  0.41004  0.77641  0.31140  1.0000
  C   C1012     1.0  0.39896  0.75622  0.31448  1.0000
  P   P35       1.0  0.43651  0.77650  0.29816  1.0000
  C   C1013     1.0  0.43102  0.78151  0.27493  1.0000
  C   C1014     1.0  0.45281  0.79932  0.30396  1.0000
  H   H785      1.0  0.27437  0.90536  0.46283  1.0000
  C   C1015     1.0  0.44655  0.82153  0.29780  1.0000
  H   H786      1.0  0.00590  0.66181  0.47012  1.0000
  H   H787      1.0  0.48107  0.70624  0.28135  1.0000
  H   H788      1.0  0.10863  0.53013  0.31511  1.0000
  H   H789      1.0  0.07314  0.52174  0.37671  1.0000
  C   C1016     1.0  0.11876  0.52627  0.27061  1.0000
  H   H790      1.0  0.05684  0.61961  0.39383  1.0000
  H   H791      1.0  0.04772  0.68890  0.41977  1.0000
  H   H792      1.0  0.36961  0.74053  0.32651  1.0000
  H   H793      1.0  0.35157  0.77629  0.33785  1.0000
  H   H794      1.0  0.37031  0.81217  0.33169  1.0000
  H   H795      1.0  0.40687  0.81258  0.31481  1.0000
  H   H796      1.0  0.40636  0.74056  0.30933  1.0000
  C   C1017     1.0  0.47366  0.71605  0.29217  1.0000
  H   H797      1.0  0.38358  0.92473  0.43435  1.0000
  H   H798      1.0  0.46953  0.91594  0.38753  1.0000
  H   H799      1.0  0.46608  0.78579  0.26662  1.0000
  H   H800      1.0  0.46017  0.74278  0.27478  1.0000
  C   C1018     1.0  0.40812  0.87252  0.44562  1.0000
  H   H801      1.0  0.23720  0.79585  0.47536  1.0000
  C   C1019     1.0  0.10191  0.60544  0.49369  1.0000
  C   C1020     1.0  0.26405  0.99345  0.42033  1.0000
  C   C1021     1.0  0.99879  0.57276  0.30096  1.0000
  C   C1022     1.0  0.25642  0.93290  0.47606  1.0000
  H   H802      1.0  0.48061  0.95516  0.45928  1.0000
  C   C1023     1.0  0.46581  0.72009  0.32370  1.0000
  C   C1024     1.0  0.33922  0.95576  0.27443  1.0000
  C   C1025     1.0  0.32148  0.94282  0.28148  1.0000
  C   C1026     1.0  0.32615  0.92105  0.28917  1.0000
  C   C1027     1.0  0.34848  0.91208  0.28995  1.0000
  C   C1028     1.0  0.20524  0.80381  0.46355  1.0000
  C   C1029     1.0  0.36157  0.94649  0.27506  1.0000
  C   C1030     1.0  0.46794  0.88643  0.26661  1.0000
  C   C1031     1.0  0.25130  0.95624  0.47570  1.0000
  C   C1032     1.0  0.09616  0.77147  0.48501  1.0000
  H   H803      1.0  0.03910  0.52511  0.40679  1.0000
  H   H804      1.0  0.31114  0.93107  0.47945  1.0000
  C   C1033     1.0  0.47049  0.92245  0.27948  1.0000
  H   H805      1.0  0.06150  0.56909  0.41056  1.0000
  H   H806      1.0  0.16235  0.57758  0.26364  1.0000
  C   C1034     1.0  0.39773  0.89426  0.44795  1.0000
  C   C1035     1.0  0.48180  0.85740  0.35278  1.0000
  H   H807      1.0  0.24768  0.96222  0.41864  1.0000
  H   H808      1.0  0.04590  0.64466  0.32336  1.0000
  C   C1036     1.0  0.47568  0.70767  0.30975  1.0000
  H   H809      1.0  0.06088  0.54928  0.30606  1.0000
  H   H810      1.0  0.30405  0.94940  0.28117  1.0000
  H   H811      1.0  0.31247  0.91111  0.29469  1.0000
  C   C1037     1.0  0.36802  0.92530  0.46975  1.0000
  H   H812      1.0  0.47062  0.86816  0.26739  1.0000
  H   H813      1.0  0.40964  0.90796  0.25731  1.0000
  H   H814      1.0  0.48471  0.69144  0.31257  1.0000
  H   H815      1.0  0.31499  0.95629  0.37117  1.0000
  H   H816      1.0  0.05239  0.58072  0.28418  1.0000
  H   H817      1.0  0.35693  0.98252  0.46385  1.0000
  C   C1038     1.0  0.45437  0.93092  0.49213  1.0000
  H   H818      1.0  0.18375  0.49613  0.37526  1.0000
  C   C1039     1.0  0.41818  0.96815  0.25306  1.0000
  C   C1040     1.0  0.27079  0.92356  0.46270  1.0000
  H   H819      1.0  0.16481  0.68982  0.41592  1.0000
  H   H820      1.0  0.01863  0.61394  0.40735  1.0000
  C   C1041     1.0  0.45816  0.89749  0.25178  1.0000
  H   H821      1.0  0.04039  0.68316  0.30877  1.0000
  C   C1042     1.0  0.41210  0.86459  0.42858  1.0000
  H   H822      1.0  0.08143  0.77272  0.49423  1.0000
  C   C1043     1.0  0.45399  0.74093  0.32008  1.0000
  C   C1044     1.0  0.41364  0.93091  0.49139  1.0000
  H   H823      1.0  0.41269  0.86145  0.45696  1.0000
  C   C1045     1.0  0.06669  0.50728  0.35234  1.0000
  C   C1046     1.0  0.46978  0.95254  0.38469  1.0000
  H   H824      1.0  0.02193  0.68847  0.28004  1.0000
  C   C1047     1.0  0.09036  0.53438  0.43419  1.0000
  C   C1048     1.0  0.11078  0.54004  0.42538  1.0000
  H   H825      1.0  0.37536  0.95621  0.26968  1.0000
  H   H826      1.0  0.05175  0.49547  0.28905  1.0000
  H   H827      1.0  0.13411  0.63743  0.25713  1.0000
  H   H828      1.0  0.43210  0.82479  0.28977  1.0000
  C   C1049     1.0  0.45690  0.91509  0.47905  1.0000
  C   C1050     1.0  0.08677  0.61106  0.48038  1.0000
  H   H829      1.0  0.44020  0.89472  0.46212  1.0000
  C   C1051     1.0  0.03840  0.57891  0.43236  1.0000
  H   H830      1.0  0.99673  0.68168  0.38844  1.0000
  H   H831      1.0  0.12044  0.55294  0.43031  1.0000
  C   C1052     1.0  0.46283  0.98692  0.46547  1.0000
  C   C1053     1.0  0.11883  0.52899  0.41019  1.0000
  C   C1054     1.0  0.04986  0.65640  0.45861  1.0000
  C   C1055     1.0  0.04582  0.66271  0.44077  1.0000
  C   C1056     1.0  0.05021  0.68439  0.43367  1.0000
  C   C1057     1.0  0.05825  0.70008  0.44441  1.0000
  C   C1058     1.0  0.06180  0.69410  0.46225  1.0000
  C   C1059     1.0  0.05756  0.67238  0.46936  1.0000
  C   C1060     1.0  0.06913  0.61095  0.43795  1.0000
  C   C1061     1.0  0.00575  0.60950  0.35038  1.0000
  C   C1062     1.0  0.46184  0.73690  0.28850  1.0000
  H   H832      1.0  0.41515  0.95459  0.26300  1.0000
  H   H833      1.0  0.03961  0.65083  0.43221  1.0000
  C   C1063     1.0  0.44900  0.78564  0.26242  1.0000
  H   H834      1.0  0.39022  0.91015  0.40438  1.0000
  H   H835      1.0  0.06808  0.70623  0.47058  1.0000
  H   H836      1.0  0.08092  0.62373  0.43951  1.0000
  H   H837      1.0  0.06188  0.71682  0.43891  1.0000
  C   C1064     1.0  0.03075  0.62833  0.30282  1.0000
  H   H838      1.0  0.09280  0.60889  0.46679  1.0000
  H   H839      1.0  0.06548  0.52352  0.34499  1.0000
  C   C1065     1.0  0.27617  0.96123  0.44905  1.0000
  H   H840      1.0  0.48025  0.89028  0.29249  1.0000
  C   C1066     1.0  0.45207  0.74960  0.30246  1.0000
  H   H841      1.0  0.42189  0.98803  0.38441  1.0000
  H   H842      1.0  0.20701  0.50770  0.31727  1.0000
  H   H843      1.0  0.31834  0.97137  0.47337  1.0000
  C   C1067     1.0  0.39108  0.99417  0.42554  1.0000
  C   C1068     1.0  0.09522  0.76037  0.46930  1.0000
  H   H844      1.0  0.16841  0.66515  0.44341  1.0000
  H   H845      1.0  0.35792  0.99086  0.39066  1.0000
  C   C1069     1.0  0.02195  0.63009  0.40061  1.0000
  C   C1070     1.0  0.13500  0.76615  0.46203  1.0000
  C   C1071     1.0  0.11462  0.75752  0.45792  1.0000
  P   P36       1.0  0.16020  0.76095  0.44780  1.0000
  C   C1072     1.0  0.18465  0.77161  0.45684  1.0000
  C   C1073     1.0  0.16354  0.73064  0.44607  1.0000
  C   C1074     1.0  0.16339  0.72092  0.42956  1.0000
  C   C1075     1.0  0.16524  0.69736  0.42861  1.0000
  C   C1076     1.0  0.16723  0.68341  0.44410  1.0000
  C   C1077     1.0  0.16703  0.69294  0.46057  1.0000
  C   C1078     1.0  0.16500  0.71645  0.46160  1.0000
  C   C1079     1.0  0.18630  0.79511  0.45701  1.0000
  C   C1080     1.0  0.48966  0.95629  0.32576  1.0000
  H   H846      1.0  0.45896  0.95186  0.26382  1.0000
  C   C1081     1.0  0.00259  0.56453  0.36338  1.0000
  C   C1082     1.0  0.20242  0.75697  0.46316  1.0000
  C   C1083     1.0  0.15770  0.77553  0.42623  1.0000
  C   C1084     1.0  0.13766  0.78797  0.42168  1.0000
  C   C1085     1.0  0.13629  0.79927  0.40492  1.0000
  C   C1086     1.0  0.15494  0.79840  0.39267  1.0000
  C   C1087     1.0  0.17502  0.78631  0.39719  1.0000
  C   C1088     1.0  0.17645  0.77499  0.41393  1.0000
  H   H847      1.0  0.07972  0.75310  0.46642  1.0000
  C   C1089     1.0  0.47704  0.83559  0.31281  1.0000
  C   C1090     1.0  0.11636  0.78011  0.48917  1.0000
  H   H848      1.0  0.47047  0.96519  0.34947  1.0000
  H   H849      1.0  0.11393  0.74802  0.44618  1.0000
  H   H850      1.0  0.16153  0.73132  0.41741  1.0000
  C   C1091     1.0  0.01677  0.62702  0.47772  1.0000
  C   C1092     1.0  0.43783  0.90717  0.47209  1.0000
  C   C1093     1.0  0.41101  0.99060  0.34702  1.0000
  H   H851      1.0  0.16452  0.72359  0.47454  1.0000
  H   H852      1.0  0.11790  0.50503  0.35434  1.0000
  C   C1094     1.0  0.22133  0.76576  0.46967  1.0000
  H   H853      1.0  0.43791  0.98537  0.41937  1.0000
  C   C1095     1.0  0.30387  0.99003  0.26216  1.0000
  H   H854      1.0  0.20188  0.73883  0.46325  1.0000
  H   H855      1.0  0.12313  0.78920  0.43102  1.0000
  H   H856      1.0  0.12078  0.80880  0.40147  1.0000
  H   H857      1.0  0.15386  0.80719  0.37970  1.0000
  H   H858      1.0  0.18955  0.78576  0.38775  1.0000
  H   H859      1.0  0.19216  0.76576  0.41732  1.0000
  C   C1096     1.0  0.11816  0.53518  0.28734  1.0000
  H   H860      1.0  0.01870  0.59208  0.45452  1.0000
  H   H861      1.0  0.43467  0.96355  0.33867  1.0000
  C   C1097     1.0  0.07342  0.59634  0.42416  1.0000
  H   H862      1.0  0.06545  0.65596  0.37816  1.0000
  C   C1098     1.0  0.03856  0.57302  0.29177  1.0000
  H   H863      1.0  0.48788  0.82502  0.25744  1.0000
  H   H864      1.0  0.11916  0.59941  0.49010  1.0000
  H   H865      1.0  0.15130  0.78359  0.48160  1.0000
  H   H866      1.0  0.08847  0.59783  0.41543  1.0000
  H   H867      1.0  0.45264  0.85682  0.29846  1.0000
  H   H868      1.0  0.39455  0.77996  0.27859  1.0000
  H   H869      1.0  0.12515  0.55131  0.28889  1.0000
  H   H870      1.0  0.24905  0.92199  0.48660  1.0000
  H   H871      1.0  0.48619  0.84961  0.31639  1.0000
  C   C1099     1.0  0.46875  0.96872  0.45480  1.0000
  S   S144      1.0  0.26369  0.86748  0.49475  1.0000
  C   C1100     1.0  0.40492  0.78657  0.25123  1.0000
  C   C1101     1.0  0.01034  0.60713  0.48719  1.0000
  C   C1102     1.0  0.36288  0.84592  0.48968  1.0000
  P   P37       1.0  0.33378  0.98422  0.26493  1.0000
  C   C1103     1.0  0.04594  0.61602  0.24975  1.0000
  H   H872      1.0  0.00153  0.54703  0.36813  1.0000
  H   H873      1.0  0.46319  0.98892  0.38038  1.0000
  H   H874      1.0  0.16802  0.68202  0.47259  1.0000
  C   C1104     1.0  0.00364  0.55473  0.31328  1.0000
  C   C1105     1.0  0.26071  0.97030  0.46206  1.0000
  H   H875      1.0  0.43184  0.85874  0.25314  1.0000
  H   H876      1.0  0.21350  0.50952  0.28455  1.0000
  H   H877      1.0  0.48805  0.98281  0.40825  1.0000
  H   H878      1.0  0.47010  0.98748  0.47824  1.0000
  H   H879      1.0  0.40041  0.99367  0.26880  1.0000
  H   H880      1.0  0.11240  0.49807  0.25592  1.0000
  C   C1106     1.0  0.22816  0.99062  0.40705  1.0000
  P   P38       1.0  0.18666  0.49666  0.25595  1.0000
  C   C1107     1.0  0.19841  0.50225  0.29055  1.0000
  C   C1108     1.0  0.41886  0.99460  0.30175  1.0000
  H   H881      1.0  0.01676  0.75298  0.49325  1.0000
  Fe  Fe73      1.0  0.38029  0.87286  0.64689  1.0000
  S   S145      1.0  0.41593  0.87580  0.63556  1.0000
  S   S146      1.0  0.34896  0.87221  0.63020  1.0000
  Fe  Fe74      1.0  0.39424  0.88036  0.68582  1.0000
  S   S147      1.0  0.43073  0.88373  0.67665  1.0000
  S   S148      1.0  0.38214  0.89138  0.71383  1.0000
  Fe  Fe75      1.0  0.41732  0.90436  0.65335  1.0000
  S   S149      1.0  0.43127  0.93725  0.64377  1.0000
  Fe  Fe76      1.0  0.42638  0.85468  0.65986  1.0000
  S   S150      1.0  0.45316  0.82612  0.65608  1.0000
  S   S151      1.0  0.38125  0.90334  0.66312  1.0000
  S   S152      1.0  0.39043  0.84938  0.67039  1.0000
  Fe  Fe77      1.0  0.31005  0.85527  0.52930  1.0000
  S   S153      1.0  0.27284  0.85794  0.53718  1.0000
  S   S154      1.0  0.33930  0.85133  0.54839  1.0000
  C   C1109     1.0  0.26204  0.97977  0.61732  1.0000
  Fe  Fe78      1.0  0.27180  0.88823  0.51743  1.0000
  C   C1110     1.0  0.49065  0.87115  0.62209  1.0000
  Fe  Fe79      1.0  0.26789  0.83662  0.51380  1.0000
  H   H882      1.0  0.43075  0.95107  0.50847  1.0000
  H   H883      1.0  0.24874  0.97899  0.60820  1.0000
  C   C1111     1.0  0.18077  0.57994  0.71638  1.0000
  Fe  Fe80      1.0  0.11718  0.67237  0.53197  1.0000
  S   S155      1.0  0.10853  0.71017  0.53156  1.0000
  S   S156      1.0  0.11194  0.64429  0.55422  1.0000
  C   C1112     1.0  0.47427  0.83962  0.57076  1.0000
  H   H884      1.0  0.42344  0.90608  0.73118  1.0000
  H   H885      1.0  0.08876  0.65334  0.70519  1.0000
  H   H886      1.0  0.22989  0.51859  0.68225  1.0000
  H   H887      1.0  0.31522  0.97238  0.50673  1.0000
  H   H888      1.0  0.01799  0.74501  0.56538  1.0000
  Fe  Fe81      1.0  0.11300  0.60201  0.65885  1.0000
  S   S157      1.0  0.10446  0.56757  0.65146  1.0000
  S   S158      1.0  0.12017  0.63200  0.63901  1.0000
  Fe  Fe82      1.0  0.10474  0.59010  0.69964  1.0000
  S   S159      1.0  0.09512  0.55544  0.69461  1.0000
  S   S160      1.0  0.09767  0.60235  0.72781  1.0000
  Fe  Fe83      1.0  0.12442  0.55415  0.67461  1.0000
  S   S161      1.0  0.14572  0.52107  0.67554  1.0000
  Fe  Fe84      1.0  0.07604  0.57161  0.67218  1.0000
  S   S162      1.0  0.04283  0.55749  0.66851  1.0000
  S   S163      1.0  0.13576  0.58829  0.68075  1.0000
  S   S164      1.0  0.08303  0.60674  0.67842  1.0000
  C   C1113     1.0  0.29780  0.97148  0.51156  1.0000
  C   C1114     1.0  0.20124  0.79835  0.51193  1.0000
  C   C1115     1.0  0.17363  0.60291  0.71501  1.0000
  C   C1116     1.0  0.33080  0.90994  0.68279  1.0000
  C   C1117     1.0  0.05121  0.56129  0.73305  1.0000
  C   C1118     1.0  0.01934  0.57673  0.67060  1.0000
  C   C1119     1.0  0.02177  0.59972  0.67251  1.0000
  H   H889      1.0  0.31073  0.87630  0.60793  1.0000
  H   H890      1.0  0.44712  0.98802  0.71507  1.0000
  H   H891      1.0  0.03830  0.60604  0.67227  1.0000
  C   C1120     1.0  0.28088  0.99199  0.61223  1.0000
  C   C1121     1.0  0.11434  0.64141  0.57783  1.0000
  C   C1122     1.0  0.10833  0.62116  0.58713  1.0000
  C   C1123     1.0  0.10992  0.61798  0.60576  1.0000
  C   C1124     1.0  0.11750  0.63508  0.61545  1.0000
  C   C1125     1.0  0.12320  0.65545  0.60618  1.0000
  C   C1126     1.0  0.12169  0.65861  0.58755  1.0000
  H   H892      1.0  0.10261  0.60772  0.57984  1.0000
  H   H893      1.0  0.10551  0.60219  0.61257  1.0000
  H   H894      1.0  0.12911  0.66884  0.61345  1.0000
  H   H895      1.0  0.12641  0.67428  0.58069  1.0000
  C   C1127     1.0  0.22300  0.78793  0.51393  1.0000
  H   H896      1.0  0.04203  0.63204  0.50625  1.0000
  C   C1128     1.0  0.03261  0.69795  0.55391  1.0000
  H   H897      1.0  0.17935  0.56959  0.70521  1.0000
  C   C1129     1.0  0.45778  0.89343  0.60119  1.0000
  H   H898      1.0  0.01534  0.60265  0.71400  1.0000
  C   C1130     1.0  0.23030  0.66695  0.72099  1.0000
  H   H899      1.0  0.16571  0.79365  0.50972  1.0000
  H   H900      1.0  0.49078  0.79736  0.64533  1.0000
  C   C1131     1.0  0.28360  0.92560  0.60736  1.0000
  H   H901      1.0  0.10252  0.65729  0.67342  1.0000
  C   C1132     1.0  0.22722  0.68819  0.71206  1.0000
  C   C1133     1.0  0.00837  0.61266  0.58543  1.0000
  H   H902      1.0  0.01468  0.53627  0.70893  1.0000
  C   C1134     1.0  0.20621  0.75084  0.51426  1.0000
  C   C1135     1.0  0.99824  0.60020  0.57322  1.0000
  H   H903      1.0  0.02849  0.60740  0.74387  1.0000
  C   C1136     1.0  0.26619  0.94875  0.52097  1.0000
  C   C1137     1.0  0.07350  0.61788  0.51592  1.0000
  H   H904      1.0  0.08300  0.67813  0.56961  1.0000
  C   C1138     1.0  0.02444  0.53910  0.72018  1.0000
  H   H905      1.0  0.49163  0.90288  0.63441  1.0000
  C   C1139     1.0  0.42127  0.95730  0.65894  1.0000
  C   C1140     1.0  0.41012  0.95063  0.67510  1.0000
  C   C1141     1.0  0.40043  0.96699  0.68643  1.0000
  C   C1142     1.0  0.32343  0.91257  0.66551  1.0000
  C   C1143     1.0  0.42376  0.98021  0.65459  1.0000
  H   H906      1.0  0.40869  0.93293  0.67887  1.0000
  H   H907      1.0  0.39134  0.96178  0.69871  1.0000
  C   C1144     1.0  0.27775  0.96924  0.64577  1.0000
  S   S165      1.0  0.09413  0.66752  0.51004  1.0000
  P   P39       1.0  0.99903  0.61045  0.60867  1.0000
  H   H908      1.0  0.23556  0.96797  0.52923  1.0000
  S   S166      1.0  0.14774  0.67586  0.51264  1.0000
  C   C1145     1.0  0.34658  0.86712  0.60725  1.0000
  C   C1146     1.0  0.36522  0.85978  0.59635  1.0000
  C   C1147     1.0  0.36261  0.85553  0.57838  1.0000
  C   C1148     1.0  0.34134  0.85834  0.57097  1.0000
  C   C1149     1.0  0.32272  0.86625  0.58173  1.0000
  C   C1150     1.0  0.32534  0.87056  0.59972  1.0000
  H   H909      1.0  0.38154  0.85685  0.60197  1.0000
  H   H910      1.0  0.37710  0.84968  0.57016  1.0000
  H   H911      1.0  0.30621  0.86864  0.57630  1.0000
  C   C1151     1.0  0.01095  0.60429  0.74253  1.0000
  H   H912      1.0  0.35886  0.96149  0.51079  1.0000
  H   H913      1.0  0.06900  0.62146  0.52964  1.0000
  H   H914      1.0  0.16703  0.60987  0.70268  1.0000
  C   C1152     1.0  0.36831  0.84432  0.50746  1.0000
  C   C1153     1.0  0.00370  0.60119  0.72560  1.0000
  C   C1154     1.0  0.18227  0.78517  0.51110  1.0000
  H   H915      1.0  0.46283  0.92276  0.61566  1.0000
  P   P40       1.0  0.45132  0.85479  0.58281  1.0000
  C   C1155     1.0  0.43221  0.83499  0.59348  1.0000
  C   C1156     1.0  0.02568  0.62669  0.57935  1.0000
  H   H916      1.0  0.03408  0.63621  0.58846  1.0000
  C   C1157     1.0  0.32586  0.98368  0.57321  1.0000
  C   C1158     1.0  0.43255  0.82903  0.61173  1.0000
  C   C1159     1.0  0.41701  0.81445  0.61989  1.0000
  C   C1160     1.0  0.40112  0.80554  0.60987  1.0000
  C   C1161     1.0  0.40093  0.81100  0.59161  1.0000
  C   C1162     1.0  0.41641  0.82566  0.58343  1.0000
  C   C1163     1.0  0.43495  0.87365  0.56805  1.0000
  C   C1164     1.0  0.44221  0.87781  0.55015  1.0000
  C   C1165     1.0  0.42899  0.89219  0.53892  1.0000
  C   C1166     1.0  0.40840  0.90233  0.54545  1.0000
  C   C1167     1.0  0.40102  0.89810  0.56319  1.0000
  C   C1168     1.0  0.41426  0.88392  0.57446  1.0000
  H   H917      1.0  0.34764  0.97639  0.54001  1.0000
  C   C1169     1.0  0.01012  0.54135  0.61360  1.0000
  H   H918      1.0  0.33367  0.89314  0.68912  1.0000
  C   C1170     1.0  0.47291  0.81690  0.56690  1.0000
  C   C1171     1.0  0.46387  0.87036  0.59911  1.0000
  C   C1172     1.0  0.32466  0.95346  0.66613  1.0000
  H   H919      1.0  0.44508  0.90246  0.59335  1.0000
  H   H920      1.0  0.44441  0.83586  0.61989  1.0000
  H   H921      1.0  0.41712  0.81036  0.63410  1.0000
  H   H922      1.0  0.38879  0.79462  0.61631  1.0000
  H   H923      1.0  0.38834  0.80437  0.58389  1.0000
  H   H924      1.0  0.41576  0.82999  0.56932  1.0000
  H   H925      1.0  0.45792  0.86989  0.54477  1.0000
  H   H926      1.0  0.43463  0.89528  0.52512  1.0000
  H   H927      1.0  0.39806  0.91335  0.53680  1.0000
  H   H928      1.0  0.38488  0.90559  0.56823  1.0000
  H   H929      1.0  0.40835  0.88092  0.58822  1.0000
  H   H930      1.0  0.10038  0.51710  0.66493  1.0000
  H   H931      1.0  0.34241  0.92664  0.70467  1.0000
  C   C1173     1.0  0.18984  0.66257  0.72157  1.0000
  C   C1174     1.0  0.00437  0.74828  0.55646  1.0000
  H   H932      1.0  0.02382  0.68301  0.51154  1.0000
  H   H933      1.0  0.40958  0.98315  0.72740  1.0000
  C   C1175     1.0  0.17489  0.61652  0.72945  1.0000
  C   C1176     1.0  0.05676  0.61733  0.63428  1.0000
  C   C1177     1.0  0.05518  0.64024  0.63775  1.0000
  C   C1178     1.0  0.03599  0.65389  0.63326  1.0000
  C   C1179     1.0  0.01851  0.64466  0.62507  1.0000
  C   C1180     1.0  0.01995  0.62158  0.62158  1.0000
  C   C1181     1.0  0.03923  0.60797  0.62630  1.0000
  S   S167      1.0  0.30581  0.83213  0.50695  1.0000
  C   C1182     1.0  0.46794  0.90512  0.61378  1.0000
  C   C1183     1.0  0.18448  0.76125  0.51218  1.0000
  C   C1184     1.0  0.19658  0.52367  0.69489  1.0000
  C   C1185     1.0  0.00262  0.61472  0.67452  1.0000
  H   H934      1.0  0.45947  0.92731  0.67446  1.0000
  C   C1186     1.0  0.22560  0.49672  0.70596  1.0000
  H   H935      1.0  0.02558  0.56898  0.59900  1.0000
  C   C1187     1.0  0.38121  0.86051  0.51389  1.0000
  H   H936      1.0  0.31532  0.93577  0.64363  1.0000
  C   C1188     1.0  0.10671  0.65383  0.70169  1.0000
  C   C1189     1.0  0.04479  0.50822  0.64354  1.0000
  P   P41       1.0  0.16563  0.64627  0.72767  1.0000
  H   H937      1.0  0.31346  0.94305  0.61049  1.0000
  C   C1190     1.0  0.49120  0.84755  0.66475  1.0000
  C   C1191     1.0  0.40550  0.99375  0.73851  1.0000
  H   H938      1.0  0.07173  0.60683  0.63767  1.0000
  H   H939      1.0  0.06898  0.64736  0.64381  1.0000
  H   H940      1.0  0.03482  0.67167  0.63597  1.0000
  H   H941      1.0  0.06187  0.57540  0.73196  1.0000
  H   H942      1.0  0.04103  0.59019  0.62372  1.0000
  H   H943      1.0  0.47968  0.86081  0.66990  1.0000
  C   C1192     1.0  0.32058  0.93420  0.65714  1.0000
  H   H944      1.0  0.48967  0.78796  0.55457  1.0000
  C   C1193     1.0  0.38186  0.98192  0.62903  1.0000
  H   H945      1.0  0.07936  0.51602  0.71956  1.0000
  C   C1194     1.0  0.13760  0.65561  0.67931  1.0000
  C   C1195     1.0  0.48053  0.85940  0.60959  1.0000
  C   C1196     1.0  0.18937  0.57035  0.73213  1.0000
  C   C1197     1.0  0.18165  0.51701  0.70900  1.0000
  H   H946      1.0  0.46974  0.95136  0.70511  1.0000
  C   C1198     1.0  0.00365  0.76821  0.54557  1.0000
  C   C1199     1.0  0.01186  0.56422  0.60831  1.0000
  S   S168      1.0  0.05241  0.72301  0.50453  1.0000
  C   C1200     1.0  0.33574  0.92889  0.69157  1.0000
  C   C1201     1.0  0.29818  0.99286  0.62389  1.0000
  H   H947      1.0  0.01672  0.78000  0.54600  1.0000
  H   H948      1.0  0.38477  0.85946  0.52785  1.0000
  H   H949      1.0  0.02241  0.52870  0.60840  1.0000
  C   C1202     1.0  0.22517  0.76402  0.51514  1.0000
  C   C1203     1.0  0.99779  0.56877  0.67053  1.0000
  Fe  Fe85      1.0  0.08725  0.70491  0.50856  1.0000
  C   C1204     1.0  0.03862  0.55699  0.71878  1.0000
  C   C1205     1.0  0.01899  0.69688  0.56977  1.0000
  H   H950      1.0  0.27630  0.96033  0.65872  1.0000
  H   H951      1.0  0.25457  0.90894  0.60023  1.0000
  H   H952      1.0  0.13760  0.57288  0.73657  1.0000
  H   H953      1.0  0.05932  0.67512  0.59765  1.0000
  C   C1206     1.0  0.09528  0.60879  0.51144  1.0000
  C   C1207     1.0  0.31091  0.99309  0.56061  1.0000
  H   H954      1.0  0.46916  0.93697  0.49756  1.0000
  H   H955      1.0  0.35969  0.92006  0.50694  1.0000
  C   C1208     1.0  0.38867  0.87836  0.50255  1.0000
  C   C1209     1.0  0.34896  0.91183  0.53395  1.0000
  C   C1210     1.0  0.35494  0.92669  0.51969  1.0000
  C   C1211     1.0  0.35453  0.94992  0.52194  1.0000
  C   C1212     1.0  0.34784  0.95834  0.53850  1.0000
  C   C1213     1.0  0.34113  0.94349  0.55277  1.0000
  C   C1214     1.0  0.34217  0.92014  0.55046  1.0000
  P   P42       1.0  0.33299  0.95352  0.57443  1.0000
  C   C1215     1.0  0.35754  0.94574  0.58702  1.0000
  H   H956      1.0  0.47020  0.96388  0.66084  1.0000
  H   H957      1.0  0.24166  0.69805  0.70833  1.0000
  H   H958      1.0  0.20312  0.71321  0.70104  1.0000
  C   C1216     1.0  0.25301  0.96889  0.52432  1.0000
  C   C1217     1.0  0.21852  0.51356  0.69336  1.0000
  C   C1218     1.0  0.36243  0.97462  0.63845  1.0000
  C   C1219     1.0  0.35836  0.92643  0.59876  1.0000
  C   C1220     1.0  0.37806  0.91989  0.60751  1.0000
  C   C1221     1.0  0.39730  0.93203  0.60419  1.0000
  C   C1222     1.0  0.39691  0.95082  0.59209  1.0000
  C   C1223     1.0  0.37713  0.95763  0.58350  1.0000
  C   C1224     1.0  0.30765  0.94026  0.58272  1.0000
  C   C1225     1.0  0.29261  0.93327  0.57079  1.0000
  C   C1226     1.0  0.27352  0.92208  0.57711  1.0000
  C   C1227     1.0  0.26915  0.91801  0.59539  1.0000
  C   C1228     1.0  0.10737  0.52502  0.73393  1.0000
  C   C1229     1.0  0.30258  0.93705  0.60107  1.0000
  H   H959      1.0  0.34918  0.89383  0.53216  1.0000
  H   H960      1.0  0.39816  0.89093  0.50792  1.0000
  C   C1230     1.0  0.26042  0.96850  0.63412  1.0000
  H   H961      1.0  0.06580  0.69172  0.54151  1.0000
  H   H962      1.0  0.33745  0.90830  0.56136  1.0000
  C   C1231     1.0  0.99633  0.58084  0.61532  1.0000
  C   C1232     1.0  0.38625  0.87957  0.73591  1.0000
  C   C1233     1.0  0.15309  0.65313  0.69261  1.0000
  H   H963      1.0  0.99584  0.55100  0.66901  1.0000
  C   C1234     1.0  0.02225  0.61606  0.54921  1.0000
  H   H964      1.0  0.34410  0.91602  0.60101  1.0000
  H   H965      1.0  0.37845  0.90523  0.61680  1.0000
  H   H966      1.0  0.41246  0.92688  0.61109  1.0000
  H   H967      1.0  0.41187  0.96022  0.58955  1.0000
  H   H968      1.0  0.37716  0.97207  0.57399  1.0000
  H   H969      1.0  0.29558  0.93618  0.55654  1.0000
  H   H970      1.0  0.26228  0.91636  0.56775  1.0000
  H   H971      1.0  0.03982  0.56761  0.70659  1.0000
  H   H972      1.0  0.02564  0.70458  0.54157  1.0000
  Fe  Fe86      1.0  0.13796  0.71371  0.51104  1.0000
  C   C1235     1.0  0.06509  0.68292  0.56964  1.0000
  S   S169      1.0  0.15976  0.74523  0.51088  1.0000
  S   S170      1.0  0.25383  0.92224  0.52454  1.0000
  H   H973      1.0  0.32058  0.89774  0.65843  1.0000
  C   C1236     1.0  0.48243  0.82905  0.65738  1.0000
  C   C1237     1.0  0.49375  0.85076  0.56499  1.0000
  C   C1238     1.0  0.18688  0.68403  0.71273  1.0000
  H   H974      1.0  0.04613  0.63909  0.55676  1.0000
  C   C1239     1.0  0.48330  0.95058  0.66305  1.0000
  C   C1240     1.0  0.40200  0.98999  0.68162  1.0000
  H   H975      1.0  0.44140  0.92288  0.70369  1.0000
  H   H976      1.0  0.24173  0.75557  0.51671  1.0000
  H   H977      1.0  0.36150  0.95674  0.64210  1.0000
  H   H978      1.0  0.19083  0.53628  0.68485  1.0000
  H   H979      1.0  0.99717  0.59240  0.54580  1.0000
  H   H980      1.0  0.28021  0.92243  0.62153  1.0000
  C   C1241     1.0  0.02863  0.68834  0.58558  1.0000
  H   H981      1.0  0.03697  0.50132  0.70426  1.0000
  C   C1242     1.0  0.01332  0.69768  0.50717  1.0000
  H   H982      1.0  0.10735  0.60532  0.52166  1.0000
  P   P43       1.0  0.48736  0.97288  0.73497  1.0000
  H   H983      1.0  0.05309  0.52391  0.64375  1.0000
  C   C1243     1.0  0.14031  0.49815  0.73381  1.0000
  C   C1244     1.0  0.05548  0.69082  0.55384  1.0000
  H   H984      1.0  0.45820  0.80779  0.57123  1.0000
  H   H985      1.0  0.43253  0.98538  0.64218  1.0000
  H   H986      1.0  0.00451  0.63249  0.67607  1.0000
  H   H987      1.0  0.36201  0.83083  0.51637  1.0000
  H   H988      1.0  0.39754  0.84599  0.72856  1.0000
  S   S171      1.0  0.30897  0.88614  0.51039  1.0000
  C   C1245     1.0  0.14548  0.65099  0.71061  1.0000
  H   H989      1.0  0.06269  0.49837  0.61929  1.0000
  C   C1246     1.0  0.44610  0.92797  0.71643  1.0000
  C   C1247     1.0  0.43577  0.91856  0.73198  1.0000
  C   C1248     1.0  0.29687  0.98131  0.64070  1.0000
  H   H990      1.0  0.17015  0.69098  0.70952  1.0000
  H   H991      1.0  0.17100  0.65229  0.68878  1.0000
  C   C1249     1.0  0.12216  0.65139  0.71505  1.0000
  C   C1250     1.0  0.02341  0.52478  0.73571  1.0000
  H   H992      1.0  0.09933  0.54123  0.73747  1.0000
  H   H993      1.0  0.14351  0.65673  0.66540  1.0000
  C   C1251     1.0  0.05838  0.62387  0.50262  1.0000
  C   C1252     1.0  0.33270  0.95056  0.68331  1.0000
  H   H994      1.0  0.19469  0.55252  0.73317  1.0000
  H   H995      1.0  0.39576  0.96975  0.62589  1.0000
  H   H996      1.0  0.33689  0.96485  0.69040  1.0000
  C   C1253     1.0  0.47712  0.92981  0.67093  1.0000
  C   C1254     1.0  0.09618  0.51090  0.72376  1.0000
  C   C1255     1.0  0.34488  0.99044  0.64350  1.0000
  C   C1256     1.0  0.05168  0.68147  0.58548  1.0000
  H   H997      1.0  0.21453  0.63781  0.73267  1.0000
  C   C1257     1.0  0.12941  0.51883  0.73873  1.0000
  C   C1258     1.0  0.26212  0.99025  0.52115  1.0000
  C   C1259     1.0  0.46204  0.94409  0.71734  1.0000
  H   H998      1.0  0.16464  0.52493  0.70978  1.0000
  S   S172      1.0  0.24797  0.80378  0.51445  1.0000
  C   C1260     1.0  0.28874  0.95020  0.51474  1.0000
  C   C1261     1.0  0.20551  0.69673  0.70796  1.0000
  H   H999      1.0  0.30341  0.98240  0.55174  1.0000
  H   H1000     1.0  0.01867  0.68730  0.59802  1.0000
  P   P44       1.0  0.00652  0.50050  0.73689  1.0000
  C   C1262     1.0  0.11442  0.65593  0.68383  1.0000
  C   C1263     1.0  0.18850  0.49989  0.72155  1.0000
  C   C1264     1.0  0.46754  0.95115  0.73390  1.0000
  H   H1001     1.0  0.02477  0.51355  0.66785  1.0000
  C   C1265     1.0  0.49080  0.80552  0.55745  1.0000
  H   H1002     1.0  0.24715  0.66037  0.72419  1.0000
  H   H1003     1.0  0.34571  0.99113  0.59510  1.0000
  H   H1004     1.0  0.00407  0.65561  0.62129  1.0000
  H   H1005     1.0  0.19903  0.81662  0.51099  1.0000
  C   C1266     1.0  0.00941  0.73703  0.49687  1.0000
  P   P45       1.0  0.31957  0.98150  0.65562  1.0000
  H   H1006     1.0  0.29921  0.93495  0.51236  1.0000
  C   C1267     1.0  0.12984  0.49733  0.67372  1.0000
  H   H1007     1.0  0.00237  0.66775  0.54723  1.0000
  C   C1268     1.0  0.21171  0.65418  0.72576  1.0000
  C   C1269     1.0  0.49352  0.91220  0.67399  1.0000
  C   C1270     1.0  0.02329  0.71831  0.50262  1.0000
  C   C1271     1.0  0.03260  0.62835  0.56130  1.0000
  H   H1008     1.0  0.20845  0.73257  0.51521  1.0000
  H   H1009     1.0  0.02751  0.61740  0.53524  1.0000
  H   H1010     1.0  0.48531  0.84159  0.60847  1.0000
  C   C1272     1.0  0.18368  0.60677  0.74524  1.0000
  C   C1273     1.0  0.02895  0.50227  0.65719  1.0000
  H   H1011     1.0  0.24578  0.95904  0.63806  1.0000
  C   C1274     1.0  0.39376  0.85693  0.73946  1.0000
  H   H1012     1.0  0.11581  0.64907  0.72875  1.0000
  C   C1275     1.0  0.28457  0.99162  0.51459  1.0000
  C   C1276     1.0  0.48425  0.89395  0.62433  1.0000
  C   C1277     1.0  0.10778  0.50027  0.66814  1.0000
  H   H1013     1.0  0.48863  0.89620  0.68022  1.0000
  C   C1278     1.0  0.00513  0.60196  0.55517  1.0000
  H   H1014     1.0  0.49446  0.99223  0.61306  1.0000
  H   H1015     1.0  0.11741  0.78795  0.50167  1.0000
  C   C1279     1.0  0.43274  0.93886  0.49827  1.0000
  H   H1016     1.0  0.39703  0.93694  0.49655  1.0000
  H   H1017     1.0  0.16362  0.68933  0.74558  1.0000
  Fe  Fe87      1.0  0.39206  0.86616  0.82077  1.0000
  S   S173      1.0  0.39596  0.90313  0.82336  1.0000
  S   S174      1.0  0.39271  0.84969  0.79386  1.0000
  Fe  Fe88      1.0  0.39303  0.85543  0.86231  1.0000
  S   S175      1.0  0.39717  0.89196  0.86719  1.0000
  S   S176      1.0  0.39506  0.82574  0.88378  1.0000
  Fe  Fe89      1.0  0.37127  0.90005  0.84692  1.0000
  S   S177      1.0  0.34170  0.92565  0.85057  1.0000
  Fe  Fe90      1.0  0.42156  0.89203  0.84324  1.0000
  S   S178      1.0  0.45217  0.91268  0.84275  1.0000
  S   S179      1.0  0.36516  0.86350  0.84328  1.0000
  S   S180      1.0  0.41952  0.85495  0.83939  1.0000
  H   H1018     1.0  0.14810  0.51862  0.79912  1.0000
  S   S181      1.0  0.24000  0.59027  0.98713  1.0000
  S   S182      1.0  0.17447  0.59702  0.97169  1.0000
  C   C1280     1.0  0.29837  0.53049  0.92149  1.0000
  S   S183      1.0  0.36761  0.80995  0.96737  1.0000
  Fe  Fe91      1.0  0.13631  0.58838  0.86898  1.0000
  S   S184      1.0  0.09970  0.58628  0.87818  1.0000
  S   S185      1.0  0.16579  0.59175  0.88714  1.0000
  Fe  Fe92      1.0  0.12619  0.57951  0.82956  1.0000
  S   S186      1.0  0.08934  0.57613  0.83664  1.0000
  S   S187      1.0  0.14118  0.57251  0.80154  1.0000
  Fe  Fe93      1.0  0.09175  0.60617  0.85267  1.0000
  S   S188      1.0  0.06571  0.63555  0.84973  1.0000
  Fe  Fe94      1.0  0.10072  0.55648  0.86118  1.0000
  S   S189      1.0  0.08263  0.52554  0.87046  1.0000
  S   S190      1.0  0.12838  0.61102  0.84445  1.0000
  S   S191      1.0  0.13761  0.55721  0.85306  1.0000
  H   H1019     1.0  0.17756  0.51941  0.87239  1.0000
  H   H1020     1.0  0.44308  0.79694  0.90932  1.0000
  C   C1281     1.0  0.38144  0.89343  0.75039  1.0000
  H   H1021     1.0  0.44649  0.78677  0.96672  1.0000
  C   C1282     1.0  0.02566  0.61362  0.84979  1.0000
  C   C1283     1.0  0.03678  0.63189  0.85529  1.0000
  C   C1284     1.0  0.02438  0.64861  0.86477  1.0000
  H   H1022     1.0  0.03505  0.60074  0.84228  1.0000
  H   H1023     1.0  0.03276  0.66284  0.86896  1.0000
  C   C1285     1.0  0.10662  0.59137  0.78079  1.0000
  C   C1286     1.0  0.12749  0.57888  0.78134  1.0000
  C   C1287     1.0  0.13820  0.57171  0.76531  1.0000
  H   H1024     1.0  0.09806  0.59688  0.79300  1.0000
  H   H1025     1.0  0.15417  0.56180  0.76561  1.0000
  C   C1288     1.0  0.17235  0.59611  0.94804  1.0000
  C   C1289     1.0  0.15081  0.59727  0.94094  1.0000
  C   C1290     1.0  0.14835  0.59565  0.92250  1.0000
  C   C1291     1.0  0.16745  0.59336  0.91071  1.0000
  C   C1292     1.0  0.18893  0.59275  0.91776  1.0000
  C   C1293     1.0  0.19134  0.59408  0.93619  1.0000
  H   H1026     1.0  0.13587  0.59937  0.94979  1.0000
  H   H1027     1.0  0.13167  0.59651  0.91738  1.0000
  H   H1028     1.0  0.20382  0.59129  0.90883  1.0000
  H   H1029     1.0  0.20788  0.59396  0.94122  1.0000
  C   C1294     1.0  0.47765  0.87265  0.84361  1.0000
  H   H1030     1.0  0.34644  0.76710  0.96356  1.0000
  H   H1031     1.0  0.08101  0.65904  0.78514  1.0000
  C   C1295     1.0  0.34520  0.95338  0.85675  1.0000
  C   C1296     1.0  0.32577  0.96671  0.86184  1.0000
  C   C1297     1.0  0.33823  0.92284  0.78528  1.0000
  C   C1298     1.0  0.36647  0.96221  0.85717  1.0000
  H   H1032     1.0  0.30930  0.96009  0.86141  1.0000
  H   H1033     1.0  0.38151  0.95213  0.85293  1.0000
  H   H1034     1.0  0.47518  0.79077  0.94197  1.0000
  H   H1035     1.0  0.21463  0.54910  0.91106  1.0000
  H   H1036     1.0  0.46262  0.86490  0.84078  1.0000
  C   C1299     1.0  0.38800  0.82217  0.90721  1.0000
  C   C1300     1.0  0.37628  0.83915  0.91692  1.0000
  C   C1301     1.0  0.37016  0.83504  0.93521  1.0000
  C   C1302     1.0  0.37607  0.81413  0.94424  1.0000
  C   C1303     1.0  0.38806  0.79726  0.93461  1.0000
  C   C1304     1.0  0.39374  0.80121  0.91624  1.0000
  H   H1037     1.0  0.37154  0.85529  0.91025  1.0000
  H   H1038     1.0  0.36078  0.84820  0.94242  1.0000
  H   H1039     1.0  0.39262  0.78104  0.94122  1.0000
  H   H1040     1.0  0.40235  0.78774  0.90893  1.0000
  C   C1305     1.0  0.39061  0.86195  0.77168  1.0000
  C   C1306     1.0  0.39186  0.98552  0.92662  1.0000
  C   C1307     1.0  0.45668  0.89368  0.79664  1.0000
  H   H1041     1.0  0.32927  0.90769  0.78439  1.0000
  H   H1042     1.0  0.13804  0.53042  0.74600  1.0000
  C   C1308     1.0  0.38386  0.88480  0.76811  1.0000
  H   H1043     1.0  0.40099  0.83051  0.75974  1.0000
  P   P46       1.0  0.37742  0.98658  0.78929  1.0000
  H   H1044     1.0  0.38008  0.89568  0.77903  1.0000
  C   C1309     1.0  0.41357  0.90732  0.95056  1.0000
  C   C1310     1.0  0.43652  0.90165  0.94666  1.0000
  C   C1311     1.0  0.44851  0.91429  0.93349  1.0000
  C   C1312     1.0  0.43758  0.93257  0.92415  1.0000
  C   C1313     1.0  0.41445  0.93827  0.92788  1.0000
  C   C1314     1.0  0.40257  0.92556  0.94122  1.0000
  P   P47       1.0  0.39942  0.96026  0.91472  1.0000
  C   C1315     1.0  0.45699  0.94155  0.74951  1.0000
  C   C1316     1.0  0.41729  0.96834  0.89548  1.0000
  C   C1317     1.0  0.31731  0.77667  0.98041  1.0000
  C   C1318     1.0  0.02879  0.60472  0.91107  1.0000
  C   C1319     1.0  0.36816  0.98409  0.86324  1.0000
  C   C1320     1.0  0.43103  0.96367  0.86490  1.0000
  C   C1321     1.0  0.41729  0.95699  0.87973  1.0000
  C   C1322     1.0  0.13140  0.64632  0.77654  1.0000
  H   H1045     1.0  0.48849  0.85719  0.76105  1.0000
  C   C1323     1.0  0.18311  0.51940  0.88580  1.0000
  C   C1324     1.0  0.04168  0.62069  0.79580  1.0000
  C   C1325     1.0  0.02426  0.54803  0.86546  1.0000
  C   C1326     1.0  0.37428  0.94833  0.90803  1.0000
  C   C1327     1.0  0.35348  0.96118  0.90787  1.0000
  C   C1328     1.0  0.33401  0.95140  0.90338  1.0000
  C   C1329     1.0  0.33519  0.92892  0.89868  1.0000
  C   C1330     1.0  0.35578  0.91602  0.89880  1.0000
  C   C1331     1.0  0.37523  0.92562  0.90353  1.0000
  H   H1046     1.0  0.40419  0.89736  0.96062  1.0000
  C   C1332     1.0  0.44473  0.88098  0.78598  1.0000
  C   C1333     1.0  0.19614  0.52042  0.92067  1.0000
  H   H1047     1.0  0.44715  0.94182  0.91379  1.0000
  H   H1048     1.0  0.38464  0.92942  0.94407  1.0000
  C   C1334     1.0  0.10852  0.59129  0.74822  1.0000
  H   H1049     1.0  0.28369  0.51390  0.95655  1.0000
  H   H1050     1.0  0.31284  0.50619  0.90318  1.0000
  H   H1051     1.0  0.43291  0.91807  0.76052  1.0000
  H   H1052     1.0  0.40657  0.94319  0.87869  1.0000
  C   C1335     1.0  0.47227  0.81061  0.89486  1.0000
  H   H1053     1.0  0.45081  0.85625  0.89271  1.0000
  C   C1336     1.0  0.44528  0.78816  0.88217  1.0000
  H   H1054     1.0  0.46625  0.90973  0.93031  1.0000
  H   H1055     1.0  0.04383  0.55744  0.88644  1.0000
  H   H1056     1.0  0.35205  0.51758  0.90484  1.0000
  H   H1057     1.0  0.32032  0.92170  0.89436  1.0000
  H   H1058     1.0  0.35670  0.89872  0.89480  1.0000
  H   H1059     1.0  0.39107  0.91537  0.90342  1.0000
  H   H1060     1.0  0.35307  0.96969  0.76039  1.0000
  H   H1061     1.0  0.38130  0.69083  0.98346  1.0000
  C   C1337     1.0  0.02630  0.61933  0.92516  1.0000
  C   C1338     1.0  0.15475  0.67710  0.75406  1.0000
  C   C1339     1.0  0.44502  0.98153  0.86576  1.0000
  C   C1340     1.0  0.39237  0.98536  0.94519  1.0000
  H   H1062     1.0  0.04723  0.59806  0.88603  1.0000
  C   C1341     1.0  0.05867  0.62703  0.89747  1.0000
  C   C1342     1.0  0.18149  0.50418  0.91650  1.0000
  C   C1343     1.0  0.22745  0.51206  0.96739  1.0000
  P   P48       1.0  0.01199  0.58039  0.91180  1.0000
  C   C1344     1.0  0.30451  0.59454  0.99353  1.0000
  C   C1345     1.0  0.15301  0.65499  0.74882  1.0000
  Fe  Fe95      1.0  0.37888  0.78325  0.98923  1.0000
  C   C1346     1.0  0.42662  0.83736  0.94817  1.0000
  H   H1063     1.0  0.04578  0.53728  0.79922  1.0000
  C   C1347     1.0  0.25020  0.50463  0.96473  1.0000
  H   H1064     1.0  0.45089  0.78273  0.85426  1.0000
  H   H1065     1.0  0.29889  0.65934  0.95050  1.0000
  H   H1066     1.0  0.48890  0.90372  0.80294  1.0000
  C   C1348     1.0  0.48561  0.89944  0.89129  1.0000
  C   C1349     1.0  0.14821  0.54157  0.96298  1.0000
  H   H1067     1.0  0.41836  0.84889  0.99187  1.0000
  C   C1350     1.0  0.48309  0.85450  0.90492  1.0000
  C   C1351     1.0  0.39569  0.84818  0.75720  1.0000
  C   C1352     1.0  0.04502  0.56051  0.93395  1.0000
  H   H1068     1.0  0.28131  0.52547  0.92049  1.0000
  H   H1069     1.0  0.07121  0.63015  0.88671  1.0000
  H   H1070     1.0  0.13099  0.51478  0.86846  1.0000
  C   C1353     1.0  0.14081  0.63984  0.76003  1.0000
  H   H1071     1.0  0.35215  0.97883  0.91086  1.0000
  C   C1354     1.0  0.19726  0.53581  0.89020  1.0000
  C   C1355     1.0  0.99556  0.60346  0.75741  1.0000
  H   H1072     1.0  0.46065  0.94660  0.76249  1.0000
  C   C1356     1.0  0.45285  0.79826  0.89678  1.0000
  C   C1357     1.0  0.31618  0.51959  0.91160  1.0000
  C   C1358     1.0  0.44566  0.80171  0.95771  1.0000
  P   P49       1.0  0.00387  0.60860  0.77938  1.0000
  H   H1073     1.0  0.14179  0.55888  0.96031  1.0000
  C   C1359     1.0  0.10005  0.51634  0.81634  1.0000
  H   H1074     1.0  0.44498  0.88735  0.95374  1.0000
  C   C1360     1.0  0.01874  0.53528  0.92383  1.0000
  C   C1361     1.0  0.34032  0.79116  0.90812  1.0000
  C   C1362     1.0  0.34777  0.78248  0.89184  1.0000
  C   C1363     1.0  0.34964  0.75909  0.89013  1.0000
  C   C1364     1.0  0.34436  0.74437  0.90478  1.0000
  C   C1365     1.0  0.33725  0.75295  0.92132  1.0000
  C   C1366     1.0  0.33520  0.77654  0.92282  1.0000
  P   P50       1.0  0.33249  0.73353  0.94050  1.0000
  C   C1367     1.0  0.31783  0.74817  0.95859  1.0000
  C   C1368     1.0  0.31511  0.71136  0.93491  1.0000
  C   C1369     1.0  0.30043  0.71516  0.92095  1.0000
  C   C1370     1.0  0.28582  0.69870  0.91739  1.0000
  C   C1371     1.0  0.28541  0.67850  0.92791  1.0000
  C   C1372     1.0  0.29963  0.67472  0.94200  1.0000
  C   C1373     1.0  0.31444  0.69102  0.94548  1.0000
  C   C1374     1.0  0.32896  0.76399  0.96732  1.0000
  C   C1375     1.0  0.22053  0.53468  0.96336  1.0000
  H   H1075     1.0  0.05136  0.57711  0.93437  1.0000
  C   C1376     1.0  0.00127  0.64694  0.86914  1.0000
  C   C1377     1.0  0.29518  0.74440  0.96384  1.0000
  C   C1378     1.0  0.35935  0.72144  0.94804  1.0000
  C   C1379     1.0  0.36036  0.71006  0.96487  1.0000
  C   C1380     1.0  0.38075  0.69955  0.97043  1.0000
  C   C1381     1.0  0.40054  0.70107  0.95954  1.0000
  C   C1382     1.0  0.39992  0.71307  0.94305  1.0000
  C   C1383     1.0  0.37944  0.72319  0.93728  1.0000
  H   H1076     1.0  0.33917  0.80932  0.90947  1.0000
  H   H1077     1.0  0.35242  0.79395  0.88066  1.0000
  H   H1078     1.0  0.35552  0.75243  0.87749  1.0000
  H   H1079     1.0  0.34632  0.72627  0.90332  1.0000
  H   H1080     1.0  0.33000  0.78394  0.93526  1.0000
  H   H1081     1.0  0.29985  0.73102  0.91304  1.0000
  H   H1082     1.0  0.40805  0.94624  0.79540  1.0000
  H   H1083     1.0  0.27381  0.66592  0.92533  1.0000
  C   C1384     1.0  0.16129  0.51718  0.78856  1.0000
  H   H1084     1.0  0.32481  0.68783  0.95674  1.0000
  C   C1385     1.0  0.46542  0.86528  0.89533  1.0000
  H   H1085     1.0  0.14249  0.49718  0.77276  1.0000
  C   C1386     1.0  0.40202  0.98126  0.80207  1.0000
  H   H1086     1.0  0.12635  0.67312  0.79467  1.0000
  H   H1087     1.0  0.28611  0.73221  0.95753  1.0000
  H   H1088     1.0  0.34546  0.70941  0.97383  1.0000
  C   C1387     1.0  0.48017  0.89409  0.79415  1.0000
  C   C1388     1.0  0.12878  0.57782  0.74884  1.0000
  H   H1089     1.0  0.41538  0.71473  0.93480  1.0000
  H   H1090     1.0  0.37960  0.73254  0.92455  1.0000
  C   C1389     1.0  0.26602  0.51976  0.95783  1.0000
  H   H1091     1.0  0.42975  0.77950  0.88352  1.0000
  H   H1092     1.0  0.03671  0.60912  0.80678  1.0000
  C   C1390     1.0  0.34753  0.92707  0.80120  1.0000
  H   H1093     1.0  0.12254  0.63430  0.78532  1.0000
  H   H1094     1.0  0.19718  0.57632  0.75889  1.0000
  H   H1095     1.0  0.03770  0.64899  0.93610  1.0000
  C   C1391     1.0  0.32477  0.55437  0.93316  1.0000
  C   C1392     1.0  0.30258  0.54781  0.93250  1.0000
  H   H1096     1.0  0.14882  0.53340  0.93568  1.0000
  P   P51       1.0  0.27948  0.56238  0.94480  1.0000
  C   C1393     1.0  0.25910  0.54243  0.95329  1.0000
  C   C1394     1.0  0.29050  0.57468  0.96358  1.0000
  C   C1395     1.0  0.29194  0.56210  0.97988  1.0000
  C   C1396     1.0  0.03979  0.63771  0.92528  1.0000
  C   C1397     1.0  0.05601  0.64153  0.91143  1.0000
  H   H1097     1.0  0.06652  0.65575  0.91143  1.0000
  C   C1398     1.0  0.29738  0.59696  0.96219  1.0000
  C   C1399     1.0  0.23627  0.54973  0.95627  1.0000
  C   C1400     1.0  0.00210  0.61248  0.85354  1.0000
  C   C1401     1.0  0.00673  0.58111  0.79098  1.0000
  C   C1402     1.0  0.47754  0.89605  0.84446  1.0000
  H   H1098     1.0  0.06965  0.63126  0.80940  1.0000
  C   C1403     1.0  0.26572  0.58401  0.93038  1.0000
  C   C1404     1.0  0.26558  0.58135  0.91201  1.0000
  C   C1405     1.0  0.25440  0.59776  0.90099  1.0000
  C   C1406     1.0  0.24327  0.61696  0.90818  1.0000
  C   C1407     1.0  0.24328  0.61974  0.92641  1.0000
  C   C1408     1.0  0.25431  0.60331  0.93747  1.0000
  H   H1099     1.0  0.09589  0.53759  0.77378  1.0000
  C   C1409     1.0  0.43184  0.98591  0.89636  1.0000
  H   H1100     1.0  0.32846  0.56789  0.94131  1.0000
  C   C1410     1.0  0.17531  0.50357  0.89885  1.0000
  H   H1101     1.0  0.28719  0.54480  0.98130  1.0000
  H   H1102     1.0  0.36626  0.94952  0.81492  1.0000
  C   C1411     1.0  0.19817  0.52656  0.77606  1.0000
  C   C1412     1.0  0.46069  0.82323  0.93171  1.0000
  H   H1103     1.0  0.29708  0.60687  0.94968  1.0000
  H   H1104     1.0  0.23066  0.56720  0.95366  1.0000
  H   H1105     1.0  0.20303  0.54074  0.96596  1.0000
  H   H1106     1.0  0.41644  0.69346  0.96410  1.0000
  H   H1107     1.0  0.26651  0.75334  0.98157  1.0000
  C   C1413     1.0  0.06662  0.64914  0.78381  1.0000
  H   H1108     1.0  0.27382  0.56656  0.90613  1.0000
  H   H1109     1.0  0.25403  0.59547  0.88688  1.0000
  H   H1110     1.0  0.23413  0.62938  0.89970  1.0000
  H   H1111     1.0  0.23405  0.63428  0.93210  1.0000
  H   H1112     1.0  0.25349  0.60557  0.95161  1.0000
  H   H1113     1.0  0.45298  0.89586  0.88122  1.0000
  C   C1414     1.0  0.16525  0.49707  0.97007  1.0000
  C   C1415     1.0  0.36246  0.96146  0.78746  1.0000
  H   H1114     1.0  0.42656  0.88070  0.78813  1.0000
  C   C1416     1.0  0.34254  0.54343  0.92326  1.0000
  H   H1115     1.0  0.39701  0.96995  0.95289  1.0000
  S   S192      1.0  0.39424  0.74791  0.98606  1.0000
  H   H1116     1.0  0.00043  0.53981  0.84683  1.0000
  C   C1417     1.0  0.09667  0.52511  0.78486  1.0000
  H   H1117     1.0  0.44685  0.85786  0.76503  1.0000
  C   C1418     1.0  0.44282  0.83983  0.93405  1.0000
  C   C1419     1.0  0.00866  0.56979  0.89020  1.0000
  C   C1420     1.0  0.44291  0.97442  0.81891  1.0000
  C   C1421     1.0  0.49254  0.98114  0.78806  1.0000
  C   C1422     1.0  0.45713  0.79010  0.86564  1.0000
  C   C1423     1.0  0.02919  0.62356  0.78049  1.0000
  P   P52       1.0  0.48133  0.82535  0.91311  1.0000
  H   H1118     1.0  0.30834  0.62444  0.97636  1.0000
  C   C1424     1.0  0.15806  0.50532  0.77357  1.0000
  C   C1425     1.0  0.02717  0.55853  0.88119  1.0000
  H   H1119     1.0  0.45731  0.83086  0.98831  1.0000
  H   H1120     1.0  0.20244  0.54869  0.88025  1.0000
  C   C1426     1.0  0.43452  0.95677  0.81046  1.0000
  H   H1121     1.0  0.03864  0.53943  0.85858  1.0000
  C   C1427     1.0  0.34046  0.93819  0.77058  1.0000
  H   H1122     1.0  0.01401  0.61649  0.93614  1.0000
  H   H1123     1.0  0.41246  0.84979  0.94963  1.0000
  C   C1428     1.0  0.19087  0.58378  0.74655  1.0000
  H   H1124     1.0  0.44383  0.94048  0.81056  1.0000
  H   H1125     1.0  0.27451  0.70181  0.90664  1.0000
  C   C1429     1.0  0.04504  0.60876  0.89717  1.0000
  H   H1126     1.0  0.02470  0.49998  0.93189  1.0000
  H   H1127     1.0  0.44767  0.90259  0.80724  1.0000
  H   H1128     1.0  0.31815  0.96156  0.90283  1.0000
  C   C1430     1.0  0.09730  0.59764  0.76430  1.0000
  C   C1431     1.0  0.48454  0.98426  0.75676  1.0000
  H   H1129     1.0  0.14669  0.70062  0.77459  1.0000
  C   C1432     1.0  0.12262  0.49980  0.86619  1.0000
  C   C1433     1.0  0.05401  0.65251  0.76873  1.0000
  H   H1130     1.0  0.48677  0.91658  0.88562  1.0000
  C   C1434     1.0  0.42805  0.81831  0.95997  1.0000
  C   C1435     1.0  0.30409  0.60691  0.97719  1.0000
  H   H1131     1.0  0.35964  0.54849  0.92391  1.0000
  H   H1132     1.0  0.09740  0.55015  0.80427  1.0000
  C   C1436     1.0  0.14511  0.68362  0.77053  1.0000
  H   H1133     1.0  0.44093  0.85445  0.92490  1.0000
  C   C1437     1.0  0.45624  0.86818  0.77296  1.0000
  H   H1134     1.0  0.43257  0.99466  0.90846  1.0000
  C   C1438     1.0  0.46655  0.88775  0.88880  1.0000
  H   H1135     1.0  0.05864  0.66505  0.75835  1.0000
  C   C1439     1.0  0.02764  0.56845  0.79065  1.0000
  C   C1440     1.0  0.00282  0.54822  0.85883  1.0000
  C   C1441     1.0  0.48406  0.81253  0.87819  1.0000
  C   C1442     1.0  0.41413  0.96009  0.80207  1.0000
  C   C1443     1.0  0.09776  0.53226  0.80205  1.0000
  H   H1136     1.0  0.41518  0.81610  0.97063  1.0000
  H   H1137     1.0  0.04254  0.57543  0.78405  1.0000
  H   H1138     1.0  0.12138  0.50516  0.93062  1.0000
  C   C1444     1.0  0.13358  0.66818  0.78182  1.0000
  C   C1445     1.0  0.47980  0.86809  0.77064  1.0000
  C   C1446     1.0  0.15331  0.53421  0.98027  1.0000
  C   C1447     1.0  0.06034  0.63337  0.79741  1.0000
  C   C1448     1.0  0.44118  0.92533  0.74850  1.0000
  H   H1139     1.0  0.48563  0.80378  0.85081  1.0000
  C   C1449     1.0  0.46191  0.80410  0.94364  1.0000
  C   C1450     1.0  0.35951  0.94636  0.80235  1.0000
  H   H1140     1.0  0.45864  0.97153  0.82550  1.0000
  H   H1141     1.0  0.10132  0.52192  0.82967  1.0000
  C   C1451     1.0  0.15204  0.52695  0.94911  1.0000
  H   H1142     1.0  0.05978  0.55100  0.75969  1.0000
  C   C1452     1.0  0.19490  0.51488  0.76096  1.0000
  C   C1453     1.0  0.33826  0.52602  0.91251  1.0000
  C   C1454     1.0  0.35219  0.95764  0.77173  1.0000
  H   H1143     1.0  0.43060  0.95503  0.85272  1.0000
  C   C1455     1.0  0.17463  0.50441  0.75950  1.0000
  H   H1144     1.0  0.34539  0.91541  0.81272  1.0000
  C   C1456     1.0  0.03511  0.64007  0.76720  1.0000
  H   H1145     1.0  0.18345  0.53750  0.80125  1.0000
  H   H1146     1.0  0.08158  0.60801  0.76398  1.0000
  C   C1457     1.0  0.02950  0.54676  0.79908  1.0000
  C   C1458     1.0  0.09900  0.50026  0.86716  1.0000
  C   C1459     1.0  0.28388  0.75647  0.97747  1.0000
  H   H1147     1.0  0.15105  0.54596  0.99080  1.0000
  H   H1148     1.0  0.20071  0.52156  0.93419  1.0000
  C   C1460     1.0  0.03021  0.51691  0.93265  1.0000
  H   H1149     1.0  0.20809  0.51437  0.75043  1.0000
  C   C1461     1.0  0.32748  0.98813  0.86828  1.0000
  C   C1462     1.0  0.20402  0.53611  0.90758  1.0000
  C   C1463     1.0  0.04908  0.52031  0.94209  1.0000
  C   C1464     1.0  0.05645  0.54209  0.94277  1.0000
  H   H1150     1.0  0.01183  0.52069  0.81419  1.0000
  C   C1465     1.0  0.16072  0.50453  0.95249  1.0000
  C   C1466     1.0  0.18129  0.52788  0.78977  1.0000
  H   H1151     1.0  0.27856  0.69088  0.98959  1.0000
  C   C1467     1.0  0.01039  0.53741  0.80753  1.0000
  H   H1152     1.0  0.21534  0.50044  0.97312  1.0000
  C   C1468     1.0  0.47663  0.80209  0.86369  1.0000
  H   H1153     1.0  0.32568  0.78974  0.98635  1.0000
  C   C1469     1.0  0.29870  0.57206  0.99482  1.0000
  C   C1470     1.0  0.02605  0.55722  0.92440  1.0000
  C   C1471     1.0  0.09736  0.50198  0.78195  1.0000
  H   H1154     1.0  0.21367  0.53489  0.77706  1.0000
  H   H1155     1.0  0.45552  0.98697  0.85429  1.0000
  H   H1156     1.0  0.05815  0.50603  0.94872  1.0000
  C   C1472     1.0  0.39623  0.98437  0.75453  1.0000
  H   H1157     1.0  0.09717  0.49699  0.76845  1.0000
  H   H1158     1.0  0.33304  0.93499  0.75829  1.0000
  H   H1159     1.0  0.03571  0.51860  0.76220  1.0000
  H   H1160     1.0  0.07127  0.54470  0.94988  1.0000
  H   H1161     1.0  0.02491  0.64374  0.75586  1.0000
  C   C1473     1.0  0.16170  0.51191  0.98384  1.0000
  C   C1474     1.0  0.44547  0.99258  0.88149  1.0000
  H   H1162     1.0  0.37575  0.91100  0.74788  1.0000
  H   H1163     1.0  0.38454  0.99084  0.86378  1.0000
  C   C1475     1.0  0.49198  0.88147  0.78096  1.0000
  Fe  Fe96      1.0  0.20224  0.59506  0.99229  1.0000
  H   H1164     1.0  0.13877  0.62292  0.75610  1.0000
  H   H1165     1.0  0.18484  0.61687  0.75659  1.0000
  H   H1166     1.0  0.39437  0.96631  0.75588  1.0000
  H   H1167     1.0  0.00441  0.53232  0.91626  1.0000
  C   C1476     1.0  0.29489  0.77273  0.98566  1.0000
  H   H1168     1.0  0.31092  0.71407  0.99408  1.0000
  C   C1477     1.0  0.03622  0.52919  0.75002  1.0000
  C   C1478     1.0  0.04995  0.54750  0.74869  1.0000
  Fe  Fe97      1.0  0.61122  0.11360  0.16306  1.0000
  S   S193      1.0  0.59101  0.08804  0.15185  1.0000
  S   S194      1.0  0.62221  0.14345  0.14453  1.0000
  Fe  Fe98      1.0  0.60380  0.09280  0.20206  1.0000
  S   S195      1.0  0.58219  0.06678  0.19265  1.0000
  S   S196      1.0  0.60632  0.08327  0.23175  1.0000
  Fe  Fe99      1.0  0.60848  0.06237  0.17044  1.0000
  S   S197      1.0  0.62541  0.02816  0.16386  1.0000
  Fe  Fe100     1.0  0.56716  0.09499  0.17535  1.0000
  S   S198      1.0  0.53065  0.10544  0.17284  1.0000
  S   S199      1.0  0.63107  0.08734  0.18018  1.0000
  S   S200      1.0  0.58639  0.12151  0.18614  1.0000
  Fe  Fe101     1.0  0.87748  0.35955  0.13993  1.0000
  S   S201      1.0  0.90227  0.38392  0.12845  1.0000
  S   S202      1.0  0.85506  0.34042  0.12318  1.0000
  Fe  Fe102     1.0  0.88655  0.36977  0.17885  1.0000
  S   S203      1.0  0.91173  0.39515  0.16975  1.0000
  S   S204      1.0  0.87160  0.36689  0.20762  1.0000
  Fe  Fe103     1.0  0.88738  0.40708  0.14896  1.0000
  S   S205      1.0  0.87664  0.44287  0.13982  1.0000
  Fe  Fe104     1.0  0.92478  0.36992  0.14997  1.0000
  S   S206      1.0  0.96162  0.36595  0.14040  1.0000
  S   S207      1.0  0.86105  0.38370  0.15935  1.0000
  S   S208      1.0  0.90121  0.34325  0.16019  1.0000
  Fe  Fe105     1.0  0.63413  0.22514  0.01490  1.0000
  S   S209      1.0  0.64482  0.18773  0.01843  1.0000
  P   P53       1.0  0.88600  0.28626  0.21719  1.0000
  H   H1169     1.0  0.85199  0.46280  0.09628  1.0000
  H   H1170     1.0  0.51682  0.16022  0.17839  1.0000
  C   C1479     1.0  0.54143  0.12112  0.04261  1.0000
  Fe  Fe106     1.0  0.61380  0.18436  0.03720  1.0000
  S   S210      1.0  0.61020  0.15755  0.06055  1.0000
  S   S211      1.0  0.60426  0.22191  0.03512  1.0000
  Fe  Fe107     1.0  0.80411  0.36427  0.02171  1.0000
  S   S212      1.0  0.76584  0.36861  0.02269  1.0000
  S   S213      1.0  0.82694  0.37187  0.04408  1.0000
  C   C1480     1.0  0.97152  0.43936  0.14137  1.0000
  H   H1171     1.0  0.50305  0.24669  0.00124  1.0000
  C   C1481     1.0  0.68982  0.22570  0.04838  1.0000
  C   C1482     1.0  0.76062  0.13349  0.05049  1.0000
  H   H1172     1.0  0.60531  0.05823  0.10467  1.0000
  H   H1173     1.0  0.51696  0.13125  0.00207  1.0000
  C   C1483     1.0  0.58763  0.00293  0.16790  1.0000
  C   C1484     1.0  0.88414  0.49314  0.09040  1.0000
  C   C1485     1.0  0.79501  0.47425  0.01237  1.0000
  H   H1174     1.0  0.88486  0.48234  0.20666  1.0000
  C   C1486     1.0  0.87740  0.46691  0.20396  1.0000
  C   C1487     1.0  0.66227  0.19274  0.06390  1.0000
  C   C1488     1.0  0.98425  0.36515  0.15452  1.0000
  C   C1489     1.0  0.50329  0.22877  0.00492  1.0000
  C   C1490     1.0  0.72145  0.29533  0.00630  1.0000
  C   C1491     1.0  0.76063  0.16593  0.06846  1.0000
  C   C1492     1.0  0.91320  0.29802  0.21223  1.0000
  C   C1493     1.0  0.54372  0.06530  0.12483  1.0000
  H   H1175     1.0  0.86887  0.49123  0.14008  1.0000
  H   H1176     1.0  0.85203  0.32755  0.16533  1.0000
  H   H1177     1.0  0.52778  0.15245  0.09247  1.0000
  H   H1178     1.0  0.86111  0.48650  0.03975  1.0000
  H   H1179     1.0  0.96700  0.44499  0.15459  1.0000
  C   C1494     1.0  0.53845  0.20616  0.05548  1.0000
  C   C1495     1.0  0.68485  0.13974  0.00915  1.0000
  H   H1180     1.0  0.63686  0.22015  0.06728  1.0000
  C   C1496     1.0  0.56415  0.01707  0.21865  1.0000
  H   H1181     1.0  0.78274  0.35482  0.05758  1.0000
  C   C1497     1.0  0.50416  0.16310  0.18917  1.0000
  C   C1498     1.0  0.72512  0.15407  0.05898  1.0000
  H   H1182     1.0  0.65595  0.01975  0.19327  1.0000
  H   H1183     1.0  0.66439  0.11393  0.12550  1.0000
  H   H1184     1.0  0.59223  0.03171  0.12923  1.0000
  C   C1499     1.0  0.89067  0.46323  0.14989  1.0000
  C   C1500     1.0  0.90889  0.45670  0.16031  1.0000
  C   C1501     1.0  0.91882  0.47265  0.16962  1.0000
  C   C1502     1.0  0.66315  0.13422  0.04293  1.0000
  C   C1503     1.0  0.88296  0.48608  0.14818  1.0000
  H   H1185     1.0  0.91520  0.43934  0.16139  1.0000
  H   H1186     1.0  0.93245  0.46727  0.17809  1.0000
  C   C1504     1.0  0.76661  0.47682  0.06329  1.0000
  C   C1505     1.0  0.84778  0.34898  0.10101  1.0000
  C   C1506     1.0  0.83277  0.33647  0.09246  1.0000
  C   C1507     1.0  0.82642  0.34288  0.07500  1.0000
  C   C1508     1.0  0.83487  0.36207  0.06588  1.0000
  C   C1509     1.0  0.85009  0.37438  0.07439  1.0000
  C   C1510     1.0  0.85644  0.36798  0.09180  1.0000
  H   H1187     1.0  0.82606  0.32165  0.09935  1.0000
  H   H1188     1.0  0.81516  0.33283  0.06860  1.0000
  H   H1189     1.0  0.85715  0.38897  0.06741  1.0000
  H   H1190     1.0  0.86810  0.37775  0.09807  1.0000
  C   C1511     1.0  0.61664  0.14750  0.12150  1.0000
  C   C1512     1.0  0.61785  0.16922  0.11296  1.0000
  C   C1513     1.0  0.61536  0.17282  0.09447  1.0000
  C   C1514     1.0  0.61220  0.15459  0.08415  1.0000
  C   C1515     1.0  0.61076  0.13293  0.09273  1.0000
  C   C1516     1.0  0.61266  0.12943  0.11127  1.0000
  H   H1191     1.0  0.62095  0.18334  0.12069  1.0000
  H   H1192     1.0  0.61619  0.18964  0.08821  1.0000
  H   H1193     1.0  0.60859  0.11863  0.08494  1.0000
  H   H1194     1.0  0.61191  0.11258  0.11753  1.0000
  C   C1517     1.0  0.52331  0.06068  0.16972  1.0000
  C   C1518     1.0  0.51514  0.08333  0.16721  1.0000
  H   H1195     1.0  0.76975  0.17738  0.07556  1.0000
  H   H1196     1.0  0.53986  0.05663  0.17473  1.0000
  H   H1197     1.0  0.72811  0.12406  0.04377  1.0000
  C   C1519     1.0  0.68087  0.27131  0.01175  1.0000
  H   H1198     1.0  0.75350  0.33040  0.07120  1.0000
  S   S214      1.0  0.80800  0.39098  0.99950  1.0000
  C   C1520     1.0  0.57069  0.03107  0.23140  1.0000
  C   C1521     1.0  0.83681  0.47650  0.07208  1.0000
  S   S215      1.0  0.59171  0.17706  0.01523  1.0000
  H   H1199     1.0  0.97050  0.45727  0.20181  1.0000
  H   H1200     1.0  0.65122  0.18002  0.06937  1.0000
  C   C1522     1.0  0.52389  0.21687  0.00888  1.0000
  H   H1201     1.0  0.57771  0.01876  0.16948  1.0000
  H   H1202     1.0  0.80779  0.45365  0.13645  1.0000
  H   H1203     1.0  0.92713  0.47811  0.21119  1.0000
  C   C1523     1.0  0.84671  0.29202  0.16593  1.0000
  H   H1204     1.0  0.91340  0.40768  0.20740  1.0000
  C   C1524     1.0  0.53924  0.12871  0.11351  1.0000
  H   H1205     1.0  0.60986  0.13021  0.24208  1.0000
  S   S216      1.0  0.65485  0.25718  0.01562  1.0000
  H   H1206     1.0  0.94277  0.41904  0.14143  1.0000
  C   C1525     1.0  0.53592  0.15030  0.10493  1.0000
  C   C1526     1.0  0.54400  0.16920  0.11206  1.0000
  C   C1527     1.0  0.55497  0.16675  0.12800  1.0000
  C   C1528     1.0  0.55739  0.14551  0.13699  1.0000
  C   C1529     1.0  0.54944  0.12660  0.12983  1.0000
  H   H1207     1.0  0.77280  0.49345  0.06418  1.0000
  H   H1208     1.0  0.84354  0.42355  0.09216  1.0000
  C   C1530     1.0  0.94853  0.30995  0.22214  1.0000
  C   C1531     1.0  0.58063  0.04503  0.12390  1.0000
  H   H1209     1.0  0.92087  0.30040  0.23975  1.0000
  P   P54       1.0  0.53203  0.10376  0.10304  1.0000
  C   C1532     1.0  0.77243  0.14849  0.05939  1.0000
  C   C1533     1.0  0.67273  0.14536  0.11173  1.0000
  C   C1534     1.0  0.73703  0.16855  0.06844  1.0000
  C   C1535     1.0  0.90619  0.35588  0.23074  1.0000
  H   H1210     1.0  0.54234  0.18562  0.10498  1.0000
  H   H1211     1.0  0.56192  0.18118  0.13328  1.0000
  H   H1212     1.0  0.56600  0.14351  0.14931  1.0000
  H   H1213     1.0  0.55161  0.11028  0.13690  1.0000
  H   H1214     1.0  0.53969  0.18436  0.01661  1.0000
  C   C1536     1.0  0.90879  0.47241  0.23658  1.0000
  C   C1537     1.0  0.52194  0.22259  0.06096  1.0000
  Fe  Fe108     1.0  0.76786  0.34197  0.00211  1.0000
  H   H1215     1.0  0.50693  0.06349  0.10031  1.0000
  H   H1216     1.0  0.62552  0.03836  0.21227  1.0000
  C   C1538     1.0  0.99104  0.44651  0.13177  1.0000
  H   H1217     1.0  0.96749  0.48709  0.17758  1.0000
  H   H1218     1.0  0.87276  0.32445  0.19288  1.0000
  H   H1219     1.0  0.88586  0.47868  0.08222  1.0000
  H   H1220     1.0  0.69175  0.00468  0.20630  1.0000
  H   H1221     1.0  0.81798  0.48457  0.04859  1.0000
  C   C1539     1.0  0.50289  0.18320  0.19801  1.0000
  C   C1540     1.0  0.58808  0.09876  0.01591  1.0000
  H   H1222     1.0  0.68817  0.10966  0.07081  1.0000
  C   C1541     1.0  0.96331  0.41693  0.11710  1.0000
  C   C1542     1.0  0.65390  0.12598  0.02822  1.0000
  C   C1543     1.0  0.58797  0.06000  0.11007  1.0000
  H   H1223     1.0  0.79375  0.43787  0.01287  1.0000
  H   H1224     1.0  0.56763  0.04930  0.22968  1.0000
  H   H1225     1.0  0.76975  0.11976  0.04369  1.0000
  H   H1226     1.0  0.84219  0.44872  0.17471  1.0000
  H   H1227     1.0  0.51540  0.02574  0.16890  1.0000
  C   C1544     1.0  0.75676  0.47161  0.04787  1.0000
  C   C1545     1.0  0.87470  0.24571  0.23504  1.0000
  H   H1228     1.0  0.98706  0.35679  0.10311  1.0000
  C   C1546     1.0  0.95769  0.42475  0.13398  1.0000
  C   C1547     1.0  0.98217  0.47947  0.22041  1.0000
  C   C1548     1.0  0.66479  0.12863  0.01134  1.0000
  C   C1549     1.0  0.68188  0.01576  0.23255  1.0000
  C   C1550     1.0  0.68450  0.18646  0.05787  1.0000
  H   H1229     1.0  0.72808  0.18190  0.07579  1.0000
  C   C1551     1.0  0.92182  0.30100  0.19451  1.0000
  C   C1552     1.0  0.52400  0.19369  0.01353  1.0000
  C   C1553     1.0  0.81846  0.44904  0.05623  1.0000
  C   C1554     1.0  0.68102  0.29445  0.01516  1.0000
  H   H1230     1.0  0.95275  0.40517  0.11165  1.0000
  H   H1231     1.0  0.80859  0.44504  0.04536  1.0000
  C   C1555     1.0  0.97508  0.47423  0.20393  1.0000
  C   C1556     1.0  0.85182  0.31538  0.23253  1.0000
  C   C1557     1.0  0.78580  0.45402  0.00844  1.0000
  H   H1232     1.0  0.70171  0.24258  0.00284  1.0000
  C   C1558     1.0  0.55849  0.04766  0.13123  1.0000
  H   H1233     1.0  0.52585  0.24021  0.06036  1.0000
  C   C1559     1.0  0.82386  0.47133  0.05809  1.0000
  H   H1234     1.0  0.84622  0.31958  0.21933  1.0000
  C   C1560     1.0  0.66500  0.02708  0.24321  1.0000
  C   C1561     1.0  0.69414  0.14804  0.02385  1.0000
  H   H1235     1.0  0.81027  0.47342  0.01952  1.0000
  C   C1562     1.0  0.96801  0.40237  0.21859  1.0000
  H   H1236     1.0  0.50388  0.16492  0.01880  1.0000
  S   S217      1.0  0.74735  0.30963  0.00209  1.0000
  H   H1237     1.0  0.65735  0.12268  0.99987  1.0000
  C   C1563     1.0  0.87085  0.30043  0.23542  1.0000
  C   C1564     1.0  0.98160  0.35802  0.17248  1.0000
  C   C1565     1.0  0.68002  0.15605  0.09558  1.0000
  C   C1566     1.0  0.85016  0.27098  0.17509  1.0000
  C   C1567     1.0  0.86256  0.46778  0.19022  1.0000
  C   C1568     1.0  0.55786  0.12614  0.05393  1.0000
  P   P55       1.0  0.69465  0.15707  0.05964  1.0000
  C   C1569     1.0  0.88387  0.36431  0.22867  1.0000
  H   H1238     1.0  0.91551  0.48402  0.10279  1.0000
  H   H1239     1.0  0.96502  0.35434  0.17820  1.0000
  C   C1570     1.0  0.85464  0.31126  0.17253  1.0000
  C   C1571     1.0  0.56851  0.08775  0.01350  1.0000
  C   C1572     1.0  0.68510  0.14341  0.08053  1.0000
  C   C1573     1.0  0.64444  0.03454  0.23587  1.0000
  C   C1574     1.0  0.85724  0.42791  0.19582  1.0000
  C   C1575     1.0  0.85285  0.44821  0.18590  1.0000
  H   H1240     1.0  0.55604  0.02445  0.20697  1.0000
  C   C1576     1.0  0.69805  0.20301  0.04961  1.0000
  C   C1577     1.0  0.88231  0.44641  0.21376  1.0000
  C   C1578     1.0  0.87164  0.42711  0.20982  1.0000
  C   C1579     1.0  0.67065  0.12200  0.11305  1.0000
  S   S218      1.0  0.80643  0.33680  0.00197  1.0000
  C   C1580     1.0  0.92729  0.42796  0.22650  1.0000
  C   C1581     1.0  0.50295  0.09776  0.10903  1.0000
  C   C1582     1.0  0.52051  0.10315  0.06754  1.0000
  C   C1583     1.0  0.89122  0.25687  0.22441  1.0000
  H   H1241     1.0  0.75510  0.48423  0.03695  1.0000
  C   C1584     1.0  0.66793  0.23192  0.05506  1.0000
  H   H1242     1.0  0.66549  0.30333  0.01990  1.0000
  H   H1243     1.0  0.70018  0.23850  0.04191  1.0000
  C   C1585     1.0  0.98280  0.42373  0.10753  1.0000
  C   C1586     1.0  0.49855  0.05993  0.20990  1.0000
  H   H1244     1.0  0.51448  0.19615  0.19398  1.0000
  C   C1587     1.0  0.87841  0.22279  0.24031  1.0000
  C   C1588     1.0  0.96723  0.41881  0.23115  1.0000
  H   H1245     1.0  0.82157  0.41457  0.06686  1.0000
  H   H1246     1.0  0.56754  0.12570  0.08079  1.0000
  H   H1247     1.0  0.84967  0.41267  0.19259  1.0000
  C   C1589     1.0  0.91481  0.22169  0.22394  1.0000
  C   C1590     1.0  0.49532  0.07657  0.10577  1.0000
  C   C1591     1.0  0.84311  0.45925  0.08477  1.0000
  H   H1248     1.0  0.87455  0.41137  0.21759  1.0000
  H   H1249     1.0  0.67470  0.09108  0.09936  1.0000
  C   C1592     1.0  0.55517  0.12055  0.07216  1.0000
  C   C1593     1.0  0.94699  0.43160  0.23507  1.0000
  H   H1250     1.0  0.54316  0.12634  0.02861  1.0000
  H   H1251     1.0  0.55508  0.21103  0.05059  1.0000
  H   H1252     1.0  0.91208  0.29720  0.18355  1.0000
  H   H1253     1.0  0.83808  0.29351  0.15360  1.0000
  C   C1594     1.0  0.57318  0.07753  0.10351  1.0000
  C   C1595     1.0  0.70128  0.26029  0.00556  1.0000
  H   H1254     1.0  0.79072  0.14647  0.05941  1.0000
  H   H1255     1.0  0.55291  0.03625  0.14213  1.0000
  C   C1596     1.0  0.68373  0.11982  0.08211  1.0000
  C   C1597     1.0  0.71629  0.42506  0.13888  1.0000
  C   C1598     1.0  0.69730  0.43672  0.13180  1.0000
  C   C1599     1.0  0.69748  0.44304  0.11364  1.0000
  C   C1600     1.0  0.71667  0.43782  0.10256  1.0000
  C   C1601     1.0  0.73595  0.42645  0.10963  1.0000
  C   C1602     1.0  0.73550  0.41981  0.12783  1.0000
  P   P56       1.0  0.76044  0.41875  0.09531  1.0000
  C   C1603     1.0  0.78516  0.41981  0.10807  1.0000
  C   C1604     1.0  0.75832  0.39054  0.08801  1.0000
  C   C1605     1.0  0.74191  0.37650  0.09587  1.0000
  C   C1606     1.0  0.74018  0.35488  0.08983  1.0000
  C   C1607     1.0  0.75484  0.34710  0.07599  1.0000
  C   C1608     1.0  0.77129  0.36089  0.06825  1.0000
  C   C1609     1.0  0.77305  0.38252  0.07418  1.0000
  C   C1610     1.0  0.78744  0.43853  0.11823  1.0000
  C   C1611     1.0  0.80585  0.43905  0.12886  1.0000
  C   C1612     1.0  0.82169  0.42057  0.12992  1.0000
  C   C1613     1.0  0.81925  0.40162  0.12031  1.0000
  C   C1614     1.0  0.80124  0.40127  0.10925  1.0000
  C   C1615     1.0  0.76081  0.43892  0.07627  1.0000
  C   C1616     1.0  0.76869  0.46057  0.07743  1.0000
  H   H1256     1.0  0.59863  0.09328  0.02678  1.0000
  C   C1617     1.0  0.61118  0.00285  0.16529  1.0000
  C   C1618     1.0  0.74922  0.45007  0.04644  1.0000
  C   C1619     1.0  0.75108  0.43383  0.06058  1.0000
  H   H1257     1.0  0.71608  0.41995  0.15292  1.0000
  H   H1258     1.0  0.68239  0.44071  0.14035  1.0000
  H   H1259     1.0  0.68267  0.45186  0.10811  1.0000
  H   H1260     1.0  0.71632  0.44260  0.08850  1.0000
  H   H1261     1.0  0.74994  0.41042  0.13348  1.0000
  H   H1262     1.0  0.73034  0.38211  0.10659  1.0000
  H   H1263     1.0  0.72744  0.34413  0.09583  1.0000
  C   C1620     1.0  0.91117  0.24461  0.21866  1.0000
  H   H1264     1.0  0.60308  0.29022  0.00942  1.0000
  H   H1265     1.0  0.78593  0.39293  0.06791  1.0000
  H   H1266     1.0  0.77480  0.45259  0.11824  1.0000
  C   C1621     1.0  0.50033  0.21639  0.06682  1.0000
  H   H1267     1.0  0.83584  0.42088  0.13826  1.0000
  H   H1268     1.0  0.83143  0.38718  0.12141  1.0000
  H   H1269     1.0  0.79996  0.38632  0.10192  1.0000
  H   H1270     1.0  0.77645  0.46512  0.08912  1.0000
  H   H1271     1.0  0.52567  0.07778  0.21889  1.0000
  C   C1622     1.0  0.55482  0.09498  0.99952  1.0000
  H   H1272     1.0  0.74188  0.44594  0.03432  1.0000
  H   H1273     1.0  0.74454  0.41748  0.05924  1.0000
  H   H1274     1.0  0.65394  0.13279  0.05574  1.0000
  H   H1275     1.0  0.98724  0.41737  0.09454  1.0000
  H   H1276     1.0  0.70927  0.15728  0.02184  1.0000
  H   H1277     1.0  0.52693  0.06742  0.13118  1.0000
  C   C1623     1.0  0.52286  0.10943  0.04937  1.0000
  H   H1278     1.0  0.68150  0.17417  0.09490  1.0000
  H   H1279     1.0  0.84405  0.25606  0.16989  1.0000
  C   C1624     1.0  0.53334  0.18352  0.05580  1.0000
  Fe  Fe109     1.0  0.58417  0.21451  0.01204  1.0000
  H   H1280     1.0  0.63792  0.11814  0.02988  1.0000
  C   C1625     1.0  0.86167  0.26914  0.19081  1.0000
  H   H1281     1.0  0.66146  0.24947  0.05377  1.0000
  H   H1282     1.0  0.57242  0.13501  0.04867  1.0000
  H   H1283     1.0  0.66811  0.15522  0.12321  1.0000
  Fe  Fe110     1.0  0.77050  0.39410  0.99947  1.0000
  C   C1626     1.0  0.65408  0.21542  0.06266  1.0000
  H   H1284     1.0  0.95885  0.31350  0.23286  1.0000
  H   H1285     1.0  0.91701  0.35198  0.21912  1.0000
  C   C1627     1.0  0.92177  0.48495  0.22388  1.0000
  C   C1628     1.0  0.86630  0.30946  0.18815  1.0000
  C   C1629     1.0  0.68356  0.14495  0.04091  1.0000
  C   C1630     1.0  0.94342  0.30869  0.19070  1.0000
  C   C1631     1.0  0.50787  0.07861  0.21629  1.0000
  C   C1632     1.0  0.92822  0.41120  0.21407  1.0000
  C   C1633     1.0  0.95681  0.31301  0.20451  1.0000
  H   H1286     1.0  0.71481  0.19849  0.04391  1.0000
  H   H1287     1.0  0.56718  0.27682  0.00008  1.0000
  C   C1634     1.0  0.55084  0.08026  0.11075  1.0000
  C   C1635     1.0  0.73701  0.13611  0.05042  1.0000
  C   C1636     1.0  0.86991  0.28842  0.19745  1.0000
  H   H1288     1.0  0.54619  0.17106  0.05122  1.0000
  C   C1637     1.0  0.67629  0.10920  0.09827  1.0000
  H   H1289     1.0  0.69751  0.00889  0.23796  1.0000
  H   H1290     1.0  0.86428  0.25263  0.19754  1.0000
  H   H1291     1.0  0.97365  0.31864  0.20152  1.0000
  C   C1638     1.0  0.50368  0.18268  0.01464  1.0000
  H   H1292     1.0  0.94903  0.38574  0.20039  1.0000
  H   H1293     1.0  0.98368  0.39251  0.21543  1.0000
  H   H1294     1.0  0.85282  0.37601  0.24253  1.0000
  H   H1295     1.0  0.94982  0.31123  0.17699  1.0000
  H   H1296     1.0  0.92390  0.25266  0.21005  1.0000
  C   C1639     1.0  0.72129  0.27217  0.00292  1.0000
  C   C1640     1.0  0.94851  0.39856  0.21009  1.0000
  P   P57       1.0  0.90118  0.44455  0.23183  1.0000
  C   C1641     1.0  0.97357  0.49095  0.19018  1.0000
  C   C1642     1.0  0.59417  0.11672  0.00415  1.0000
  C   C1643     1.0  0.82563  0.43184  0.06845  1.0000
  H   H1297     1.0  0.85892  0.25470  0.23922  1.0000
  C   C1644     1.0  0.50955  0.04326  0.16635  1.0000
  C   C1645     1.0  0.92684  0.30248  0.22600  1.0000
  C   C1646     1.0  0.70103  0.30632  0.01250  1.0000
  C   C1647     1.0  0.83793  0.43694  0.08271  1.0000
  H   H1298     1.0  0.50619  0.09391  0.07239  1.0000
  H   H1299     1.0  0.98298  0.46615  0.23077  1.0000
  H   H1300     1.0  0.70060  0.32407  0.01515  1.0000
  C   C1648     1.0  0.65839  0.02144  0.20725  1.0000
  H   H1301     1.0  0.57944  0.08911  0.09307  1.0000
  H   H1302     1.0  0.56396  0.07364  0.02249  1.0000
  C   C1649     1.0  0.53636  0.10912  0.07919  1.0000
  C   C1650     1.0  0.64122  0.03192  0.21795  1.0000
  H   H1303     1.0  0.85912  0.48355  0.18253  1.0000
  S   S219      1.0  0.54902  0.23156  0.00802  1.0000
  H   H1304     1.0  0.66296  0.07345  0.24316  1.0000
  C   C1651     1.0  0.67860  0.01311  0.21459  1.0000
  C   C1652     1.0  0.89848  0.21080  0.23480  1.0000
  H   H1305     1.0  0.82541  0.33730  0.24439  1.0000
  H   H1306     1.0  0.51018  0.10536  0.04055  1.0000
  C   C1653     1.0  0.51158  0.17724  0.06131  1.0000
  H   H1307     1.0  0.50909  0.04462  0.20759  1.0000
  H   H1308     1.0  0.84479  0.48574  0.23147  1.0000
  H   H1309     1.0  0.97594  0.32254  0.12074  1.0000
  H   H1310     1.0  0.63104  0.04283  0.24397  1.0000
  H   H1311     1.0  0.50784  0.15971  0.06095  1.0000
  H   H1312     1.0  0.60951  0.12512  0.00572  1.0000
  H   H1313     1.0  0.93026  0.21231  0.21952  1.0000
  C   C1654     1.0  0.87011  0.36944  0.24395  1.0000
  H   H1314     1.0  0.49703  0.19707  0.10255  1.0000
  H   H1315     1.0  0.96082  0.48385  0.14070  1.0000
  H   H1316     1.0  0.98231  0.42158  0.23789  1.0000
  H   H1317     1.0  0.90130  0.19302  0.23886  1.0000
  C   C1655     1.0  0.76589  0.45470  0.99942  1.0000
  C   C1656     1.0  0.99362  0.32438  0.11678  1.0000
  H   H1318     1.0  0.50220  0.11329  0.22287  1.0000
  H   H1319     1.0  0.53983  0.08617  0.99767  1.0000
  H   H1320     1.0  0.94671  0.44424  0.24485  1.0000
  H   H1321     1.0  0.85296  0.44182  0.24313  1.0000
  Fe  Fe111     1.0  0.62180  0.18260  0.99633  1.0000
  H   H1322     1.0  0.73682  0.26334  0.99809  1.0000
  C   C1657     1.0  0.60209  0.28468  0.99610  1.0000
  H   H1323     1.0  0.69280  0.14243  0.99595  1.0000
  Fe  Fe112     1.0  0.58982  0.07289  0.36062  1.0000
  S   S220      1.0  0.60301  0.10768  0.35961  1.0000
  S   S221      1.0  0.55511  0.06054  0.36847  1.0000
  Fe  Fe113     1.0  0.63395  0.05198  0.34473  1.0000
  S   S222      1.0  0.65018  0.08495  0.34206  1.0000
  S   S223      1.0  0.65242  0.02013  0.33539  1.0000
  Fe  Fe114     1.0  0.63514  0.08989  0.36994  1.0000
  S   S224      1.0  0.66048  0.10208  0.38858  1.0000
  Fe  Fe115     1.0  0.61701  0.09944  0.33201  1.0000
  S   S225      1.0  0.61389  0.12384  0.30744  1.0000
  S   S226      1.0  0.62077  0.05570  0.37292  1.0000
  S   S227      1.0  0.60197  0.06586  0.33272  1.0000
  Fe  Fe116     1.0  0.93768  0.36310  0.34080  1.0000
  S   S228      1.0  0.92080  0.33300  0.33326  1.0000
  S   S229      1.0  0.97527  0.35751  0.33960  1.0000
  Fe  Fe117     1.0  0.89410  0.39225  0.34140  1.0000
  S   S230      1.0  0.87411  0.36369  0.33364  1.0000
  S   S231      1.0  0.87633  0.42706  0.34396  1.0000
  Fe  Fe118     1.0  0.89409  0.34280  0.35435  1.0000
  S   S232      1.0  0.88082  0.31500  0.37406  1.0000
  Fe  Fe119     1.0  0.90320  0.35675  0.31337  1.0000
  S   S233      1.0  0.90982  0.34621  0.28452  1.0000
  S   S234      1.0  0.91230  0.37185  0.36301  1.0000
  S   S235      1.0  0.92163  0.38649  0.32022  1.0000
  H   H1324     1.0  0.54172  0.10869  0.36436  1.0000
  S   S236      1.0  0.89370  0.30158  0.45824  1.0000
  C   C1658     1.0  0.71554  0.02632  0.26586  1.0000
  S   S237      1.0  0.67590  0.08684  0.47208  1.0000
  H   H1325     1.0  0.98257  0.31692  0.37231  1.0000
  C   C1659     1.0  0.90183  0.48183  0.25278  1.0000
  C   C1660     1.0  0.63055  0.02903  0.29023  1.0000
  H   H1326     1.0  0.93553  0.27944  0.40664  1.0000
  C   C1661     1.0  0.90002  0.35551  0.26327  1.0000
  C   C1662     1.0  0.87811  0.36510  0.26113  1.0000
  C   C1663     1.0  0.69518  0.01964  0.27437  1.0000
  C   C1664     1.0  0.49940  0.01010  0.31772  1.0000
  C   C1665     1.0  0.67063  0.06762  0.28773  1.0000
  H   H1327     1.0  0.77327  0.10452  0.47262  1.0000
  H   H1328     1.0  0.86691  0.36804  0.27272  1.0000
  C   C1666     1.0  0.89387  0.49049  0.35168  1.0000
  C   C1667     1.0  0.83028  0.47478  0.30076  1.0000
  C   C1668     1.0  0.49639  0.06543  0.26716  1.0000
  C   C1669     1.0  0.88810  0.41225  0.28051  1.0000
  H   H1329     1.0  0.54488  0.07133  0.31858  1.0000
  H   H1330     1.0  0.96478  0.38201  0.37174  1.0000
  C   C1670     1.0  0.89242  0.45006  0.34774  1.0000
  H   H1331     1.0  0.50657  0.09764  0.25583  1.0000
  C   C1671     1.0  0.91591  0.44732  0.34876  1.0000
  H   H1332     1.0  0.93606  0.32077  0.48798  1.0000
  H   H1333     1.0  0.92451  0.43072  0.34764  1.0000
  C   C1672     1.0  0.88498  0.31127  0.39741  1.0000
  C   C1673     1.0  0.87739  0.29187  0.40708  1.0000
  C   C1674     1.0  0.87998  0.28844  0.42560  1.0000
  C   C1675     1.0  0.89001  0.30455  0.43480  1.0000
  C   C1676     1.0  0.89778  0.32382  0.42508  1.0000
  C   C1677     1.0  0.89540  0.32713  0.40656  1.0000
  H   H1334     1.0  0.86932  0.27944  0.40021  1.0000
  H   H1335     1.0  0.87398  0.27348  0.43278  1.0000
  H   H1336     1.0  0.90559  0.33639  0.43197  1.0000
  H   H1337     1.0  0.90134  0.34213  0.39942  1.0000
  C   C1678     1.0  0.61125  0.11296  0.28629  1.0000
  C   C1679     1.0  0.60923  0.08991  0.28466  1.0000
  C   C1680     1.0  0.61136  0.12748  0.27080  1.0000
  H   H1338     1.0  0.60883  0.07869  0.29640  1.0000
  H   H1339     1.0  0.61328  0.14530  0.27184  1.0000
  C   C1681     1.0  0.63383  0.99840  0.33841  1.0000
  H   H1340     1.0  0.53279  0.11007  0.32665  1.0000
  H   H1341     1.0  0.60706  0.01933  0.35096  1.0000
  C   C1682     1.0  0.66503  0.09552  0.41160  1.0000
  C   C1683     1.0  0.64776  0.08873  0.42380  1.0000
  C   C1684     1.0  0.65157  0.08587  0.44214  1.0000
  C   C1685     1.0  0.67275  0.08941  0.44858  1.0000
  C   C1686     1.0  0.69027  0.09538  0.43629  1.0000
  C   C1687     1.0  0.68636  0.09861  0.41798  1.0000
  H   H1342     1.0  0.63124  0.08634  0.41920  1.0000
  H   H1343     1.0  0.63788  0.08115  0.45145  1.0000
  H   H1344     1.0  0.70675  0.09776  0.44091  1.0000
  H   H1345     1.0  0.69990  0.10379  0.40870  1.0000
  C   C1688     1.0  0.51066  0.06349  0.36019  1.0000
  C   C1689     1.0  0.52959  0.07559  0.36280  1.0000
  C   C1690     1.0  0.52734  0.09925  0.36207  1.0000
  H   H1346     1.0  0.51222  0.04518  0.36090  1.0000
  H   H1347     1.0  0.60230  0.02648  0.30929  1.0000
  H   H1348     1.0  0.67280  0.05500  0.29862  1.0000
  H   H1349     1.0  0.53650  0.02358  0.28301  1.0000
  C   C1691     1.0  0.54246  0.16692  0.36425  1.0000
  H   H1350     1.0  0.78278  0.23560  0.43434  1.0000
  H   H1351     1.0  0.97394  0.40341  0.30826  1.0000
  H   H1352     1.0  0.68379  0.03047  0.36400  1.0000
  C   C1692     1.0  0.60794  0.09571  0.25237  1.0000
  H   H1353     1.0  0.93953  0.47824  0.31110  1.0000
  C   C1693     1.0  0.50623  0.11068  0.35894  1.0000
  H   H1354     1.0  0.55829  0.06406  0.28743  1.0000
  C   C1694     1.0  0.66829  0.17050  0.48060  1.0000
  C   C1695     1.0  0.50721  0.01518  0.30008  1.0000
  C   C1696     1.0  0.90921  0.46502  0.30277  1.0000
  H   H1355     1.0  0.76284  0.08767  0.41939  1.0000
  C   C1697     1.0  0.69584  0.00555  0.29003  1.0000
  H   H1356     1.0  0.94367  0.38713  0.26068  1.0000
  H   H1357     1.0  0.75194  0.02329  0.26574  1.0000
  H   H1358     1.0  0.85041  0.46042  0.32216  1.0000
  H   H1359     1.0  0.65399  0.17262  0.49014  1.0000
  H   H1360     1.0  0.95355  0.34541  0.38984  1.0000
  C   C1698     1.0  0.86453  0.41432  0.28262  1.0000
  C   C1699     1.0  0.87661  0.49205  0.30042  1.0000
  C   C1700     1.0  0.53756  0.01009  0.32733  1.0000
  C   C1701     1.0  0.94242  0.28496  0.39367  1.0000
  H   H1361     1.0  0.96542  0.48349  0.26850  1.0000
  C   C1702     1.0  0.67525  0.00098  0.38048  1.0000
  C   C1703     1.0  0.60773  0.08133  0.26786  1.0000
  C   C1704     1.0  0.54544  0.01532  0.30985  1.0000
  H   H1362     1.0  0.78200  0.45290  0.28910  1.0000
  H   H1363     1.0  0.60642  0.06340  0.26689  1.0000
  H   H1364     1.0  0.58801  0.03265  0.25542  1.0000
  H   H1365     1.0  0.59899  0.18372  0.27659  1.0000
  C   C1705     1.0  0.89918  0.42109  0.26501  1.0000
  H   H1366     1.0  0.86324  0.47374  0.34916  1.0000
  C   C1706     1.0  0.51849  0.17138  0.33930  1.0000
  C   C1707     1.0  0.66485  0.10072  0.26011  1.0000
  H   H1367     1.0  0.83777  0.32930  0.27509  1.0000
  H   H1368     1.0  0.94473  0.36338  0.45329  1.0000
  C   C1708     1.0  0.86301  0.43359  0.25345  1.0000
  C   C1709     1.0  0.80347  0.43802  0.30928  1.0000
  H   H1369     1.0  0.66861  0.13405  0.48237  1.0000
  C   C1710     1.0  0.55275  0.08106  0.29097  1.0000
  C   C1711     1.0  0.53873  0.10721  0.31311  1.0000
  C   C1712     1.0  0.52239  0.17546  0.35687  1.0000
  C   C1713     1.0  0.95839  0.27918  0.26618  1.0000
  C   C1714     1.0  0.96046  0.33348  0.41686  1.0000
  C   C1715     1.0  0.95196  0.34909  0.40375  1.0000
  C   C1716     1.0  0.51135  0.00898  0.40532  1.0000
  C   C1717     1.0  0.64573  0.01753  0.27838  1.0000
  H   H1370     1.0  0.94730  0.26670  0.26252  1.0000
  H   H1371     1.0  0.83368  0.42631  0.27063  1.0000
  C   C1718     1.0  0.83589  0.45874  0.31450  1.0000
  H   H1372     1.0  0.54554  0.17011  0.37785  1.0000
  H   H1373     1.0  0.98759  0.26492  0.25133  1.0000
  C   C1719     1.0  0.79157  0.48960  0.44417  1.0000
  H   H1374     1.0  0.89185  0.47258  0.26280  1.0000
  C   C1720     1.0  0.97160  0.36479  0.26890  1.0000
  P   P58       1.0  0.53000  0.15359  0.30624  1.0000
  C   C1721     1.0  0.54690  0.12110  0.28272  1.0000
  H   H1375     1.0  0.96299  0.30714  0.34647  1.0000
  H   H1376     1.0  0.96936  0.44703  0.28603  1.0000
  C   C1722     1.0  0.66510  0.07781  0.25662  1.0000
  C   C1723     1.0  0.53898  0.00664  0.38048  1.0000
  C   C1724     1.0  0.86561  0.30619  0.26713  1.0000
  H   H1377     1.0  0.50822  0.00426  0.34486  1.0000
  C   C1725     1.0  0.66770  0.00692  0.41184  1.0000
  C   C1726     1.0  0.66770  0.06107  0.27047  1.0000
  H   H1378     1.0  0.89773  0.40341  0.29078  1.0000
  C   C1727     1.0  0.98189  0.38483  0.36682  1.0000
  C   C1728     1.0  0.93139  0.27953  0.37884  1.0000
  H   H1379     1.0  0.57446  0.14832  0.35966  1.0000
  H   H1380     1.0  0.77991  0.07821  0.44834  1.0000
  H   H1381     1.0  0.50525  0.17161  0.27521  1.0000
  C   C1729     1.0  0.54849  0.21393  0.28244  1.0000
  C   C1730     1.0  0.69496  0.14589  0.46397  1.0000
  H   H1382     1.0  0.56761  0.14033  0.32879  1.0000
  H   H1383     1.0  0.58098  0.22214  0.27035  1.0000
  H   H1384     1.0  0.66215  0.11356  0.24947  1.0000
  C   C1731     1.0  0.57114  0.20904  0.27696  1.0000
  C   C1732     1.0  0.53438  0.15809  0.32916  1.0000
  C   C1733     1.0  0.95145  0.28300  0.43821  1.0000
  H   H1385     1.0  0.94540  0.41232  0.28573  1.0000
  H   H1386     1.0  0.91626  0.27021  0.38061  1.0000
  C   C1734     1.0  0.98883  0.37408  0.29553  1.0000
  C   C1735     1.0  0.61332  0.01769  0.29962  1.0000
  P   P59       1.0  0.97468  0.30694  0.41068  1.0000
  C   C1736     1.0  0.73628  0.01817  0.27241  1.0000
  H   H1387     1.0  0.63227  0.04651  0.29267  1.0000
  C   C1737     1.0  0.96433  0.31230  0.28208  1.0000
  C   C1738     1.0  0.54535  0.08516  0.30849  1.0000
  C   C1739     1.0  0.88144  0.47163  0.34948  1.0000
  C   C1740     1.0  0.51454  0.00757  0.33125  1.0000
  H   H1388     1.0  0.79322  0.42376  0.31256  1.0000
  H   H1389     1.0  0.66617  0.12484  0.28019  1.0000
  C   C1741     1.0  0.84672  0.32097  0.26409  1.0000
  C   C1742     1.0  0.55338  0.09900  0.27807  1.0000
  H   H1390     1.0  0.57699  0.15392  0.29206  1.0000
  C   C1743     1.0  0.85197  0.42492  0.26906  1.0000
  C   C1744     1.0  0.67978  0.02376  0.37743  1.0000
  C   C1745     1.0  0.95766  0.30035  0.35959  1.0000
  H   H1391     1.0  0.92953  0.39057  0.43003  1.0000
  H   H1392     1.0  0.93265  0.26394  0.45859  1.0000
  C   C1746     1.0  0.96141  0.29797  0.39159  1.0000
  C   C1747     1.0  0.67657  0.14878  0.47630  1.0000
  H   H1393     1.0  0.78251  0.48460  0.41757  1.0000
  H   H1394     1.0  0.99335  0.45799  0.41111  1.0000
  C   C1748     1.0  0.55870  0.15444  0.35403  1.0000
  C   C1749     1.0  0.71660  0.99752  0.29659  1.0000
  C   C1750     1.0  0.82274  0.44028  0.31857  1.0000
  H   H1395     1.0  0.87127  0.30311  0.28050  1.0000
  C   C1751     1.0  0.94710  0.35952  0.43945  1.0000
  C   C1752     1.0  0.79723  0.45439  0.29603  1.0000
  C   C1753     1.0  0.98712  0.34345  0.48045  1.0000
  H   H1396     1.0  0.50986  0.18531  0.36475  1.0000
  H   H1397     1.0  0.53694  0.03282  0.39915  1.0000
  H   H1398     1.0  0.92984  0.28362  0.35044  1.0000
  H   H1399     1.0  0.81687  0.14349  0.48807  1.0000
  C   C1754     1.0  0.94910  0.26609  0.45180  1.0000
  C   C1755     1.0  0.92831  0.46614  0.35127  1.0000
  C   C1756     1.0  0.67014  0.09054  0.29116  1.0000
  C   C1757     1.0  0.67847  0.03806  0.39154  1.0000
  C   C1758     1.0  0.95762  0.39807  0.28422  1.0000
  Fe  Fe120     1.0  0.70211  0.08804  0.49331  1.0000
  H   H1400     1.0  0.68171  0.05578  0.38909  1.0000
  C   C1759     1.0  0.99144  0.27217  0.43452  1.0000
  C   C1760     1.0  0.76006  0.09924  0.43000  1.0000
  C   C1761     1.0  0.76962  0.09387  0.44629  1.0000
  C   C1762     1.0  0.76572  0.10862  0.46003  1.0000
  C   C1763     1.0  0.75189  0.12852  0.45768  1.0000
  C   C1764     1.0  0.74271  0.13440  0.44120  1.0000
  C   C1765     1.0  0.74686  0.11951  0.42737  1.0000
  P   P60       1.0  0.72644  0.16113  0.43775  1.0000
  C   C1766     1.0  0.70500  0.16477  0.45559  1.0000
  C   C1767     1.0  0.74463  0.18454  0.43652  1.0000
  C   C1768     1.0  0.73859  0.20462  0.42654  1.0000
  C   C1769     1.0  0.75236  0.22290  0.42569  1.0000
  C   C1770     1.0  0.77213  0.22142  0.43494  1.0000
  C   C1771     1.0  0.77814  0.20165  0.44506  1.0000
  C   C1772     1.0  0.76449  0.18329  0.44586  1.0000
  C   C1773     1.0  0.55471  0.14994  0.33656  1.0000
  C   C1774     1.0  0.93846  0.37483  0.42636  1.0000
  H   H1401     1.0  0.66224  0.00096  0.42515  1.0000
  C   C1775     1.0  0.88657  0.46998  0.29904  1.0000
  C   C1776     1.0  0.94100  0.36966  0.40852  1.0000
  C   C1777     1.0  0.71235  0.16083  0.41720  1.0000
  C   C1778     1.0  0.72441  0.16493  0.40084  1.0000
  C   C1779     1.0  0.71403  0.16329  0.38486  1.0000
  C   C1780     1.0  0.69157  0.15756  0.38511  1.0000
  C   C1781     1.0  0.67943  0.15369  0.40132  1.0000
  C   C1782     1.0  0.68975  0.15517  0.41731  1.0000
  S   S238      1.0  0.73937  0.07718  0.49265  1.0000
  H   H1402     1.0  0.82753  0.42785  0.32907  1.0000
  H   H1403     1.0  0.74861  0.13941  0.46871  1.0000
  H   H1404     1.0  0.73971  0.12315  0.41461  1.0000
  H   H1405     1.0  0.72317  0.20624  0.41949  1.0000
  C   C1783     1.0  0.54577  0.17501  0.29408  1.0000
  C   C1784     1.0  0.58692  0.99826  0.24792  1.0000
  H   H1406     1.0  0.79338  0.20057  0.45240  1.0000
  H   H1407     1.0  0.76962  0.16834  0.45389  1.0000
  H   H1408     1.0  0.70086  0.12889  0.46066  1.0000
  C   C1785     1.0  0.67241  0.02966  0.40874  1.0000
  C   C1786     1.0  0.56868  0.17043  0.28901  1.0000
  H   H1409     1.0  0.96607  0.23936  0.46759  1.0000
  C   C1787     1.0  0.69669  0.18658  0.46008  1.0000
  H   H1410     1.0  0.74200  0.16879  0.40043  1.0000
  H   H1411     1.0  0.72350  0.16601  0.37227  1.0000
  H   H1412     1.0  0.68364  0.15559  0.37278  1.0000
  H   H1413     1.0  0.66221  0.14861  0.40148  1.0000
  H   H1414     1.0  0.68015  0.15114  0.42961  1.0000
  H   H1415     1.0  0.67203  0.20626  0.47593  1.0000
  C   C1788     1.0  0.66720  0.10709  0.27738  1.0000
  H   H1416     1.0  0.94647  0.46391  0.35208  1.0000
  C   C1789     1.0  0.84544  0.49150  0.25939  1.0000
  C   C1790     1.0  0.96391  0.34236  0.48449  1.0000
  H   H1417     1.0  0.67159  0.09554  0.30459  1.0000
  H   H1418     1.0  0.56318  0.01788  0.30697  1.0000
  C   C1791     1.0  0.53978  0.12538  0.30036  1.0000
  C   C1792     1.0  0.58126  0.18736  0.28037  1.0000
  C   C1793     1.0  0.93899  0.28718  0.36182  1.0000
  H   H1419     1.0  0.80516  0.48561  0.28185  1.0000
  H   H1420     1.0  0.97003  0.35358  0.25831  1.0000
  H   H1421     1.0  0.70394  0.20144  0.45370  1.0000
  C   C1794     1.0  0.91737  0.48782  0.35246  1.0000
  H   H1422     1.0  0.93417  0.38145  0.39835  1.0000
  H   H1423     1.0  0.84274  0.47412  0.26351  1.0000
  C   C1795     1.0  0.95664  0.38395  0.27017  1.0000
  C   C1796     1.0  0.97249  0.28583  0.42908  1.0000
  H   H1424     1.0  0.87681  0.45651  0.29530  1.0000
  C   C1797     1.0  0.95822  0.33898  0.43474  1.0000
  H   H1425     1.0  0.93673  0.29379  0.43477  1.0000
  C   C1798     1.0  0.95004  0.29625  0.27726  1.0000
  Fe  Fe121     1.0  0.88752  0.27620  0.48227  1.0000
  S   S239      1.0  0.89200  0.23796  0.48427  1.0000
  H   H1426     1.0  0.67098  0.04095  0.41959  1.0000
  H   H1427     1.0  0.93244  0.29723  0.28216  1.0000
  C   C1799     1.0  0.92224  0.48217  0.30753  1.0000
  H   H1428     1.0  0.95751  0.32534  0.29078  1.0000
  C   C1800     1.0  0.96792  0.25228  0.45686  1.0000
  C   C1801     1.0  0.87744  0.29573  0.25292  1.0000
  C   C1802     1.0  0.67848  0.18940  0.47261  1.0000
  C   C1803     1.0  0.95407  0.32165  0.48479  1.0000
  H   H1429     1.0  0.58407  0.99921  0.39592  1.0000
  H   H1430     1.0  0.95351  0.35752  0.48754  1.0000
  H   H1431     1.0  0.50309  0.17867  0.33373  1.0000
  H   H1432     1.0  0.51861  0.20131  0.29588  1.0000
  H   H1433     1.0  0.50450  0.12895  0.35881  1.0000
  P   P61       1.0  0.66855  0.03133  0.26637  1.0000
  C   C1804     1.0  0.98107  0.27820  0.25987  1.0000
  C   C1805     1.0  0.53031  0.01820  0.29629  1.0000
  C   C1806     1.0  0.53590  0.19706  0.29117  1.0000
  H   H1434     1.0  0.91640  0.44773  0.30257  1.0000
  H   H1435     1.0  0.55936  0.09586  0.26452  1.0000
  H   H1436     1.0  0.91738  0.41949  0.26372  1.0000
  H   H1437     1.0  0.85607  0.40741  0.29470  1.0000
  H   H1438     1.0  0.54758  0.13478  0.27257  1.0000
  H   H1439     1.0  0.55346  0.01322  0.37292  1.0000
  C   C1807     1.0  0.96749  0.30199  0.48119  1.0000
  C   C1808     1.0  0.52974  0.01762  0.39536  1.0000
  C   C1809     1.0  0.99055  0.37554  0.35097  1.0000
  H   H1440     1.0  0.99466  0.35950  0.48090  1.0000
  C   C1810     1.0  0.96877  0.30584  0.37438  1.0000
  H   H1441     1.0  0.96473  0.32729  0.44506  1.0000
  H   H1442     1.0  0.50197  0.05681  0.25529  1.0000
  C   C1811     1.0  0.98913  0.25549  0.44836  1.0000
  C   C1812     1.0  0.88675  0.43183  0.25135  1.0000
  C   C1813     1.0  0.97371  0.39312  0.29689  1.0000
  C   C1814     1.0  0.49919  0.08862  0.26742  1.0000
  C   C1815     1.0  0.98360  0.45289  0.27779  1.0000
  H   H1443     1.0  0.54080  0.23089  0.28018  1.0000
  C   C1816     1.0  0.98158  0.47375  0.26810  1.0000
  C   C1817     1.0  0.60955  0.11894  0.25390  1.0000
  H   H1444     1.0  0.88484  0.47773  0.39508  1.0000
  C   C1818     1.0  0.81046  0.47283  0.29188  1.0000
  C   C1819     1.0  0.51291  0.99578  0.25957  1.0000
  C   C1820     1.0  0.61209  0.00284  0.34616  1.0000
  C   C1821     1.0  0.73681  0.00369  0.28773  1.0000
  H   H1445     1.0  0.74767  0.23829  0.41791  1.0000
  H   H1446     1.0  0.95992  0.28583  0.48218  1.0000
  H   H1447     1.0  0.50444  0.01738  0.41701  1.0000
  H   H1448     1.0  0.78094  0.47679  0.45027  1.0000
  H   H1449     1.0  0.83998  0.17640  0.49091  1.0000
  H   H1450     1.0  0.89169  0.28393  0.25568  1.0000
  H   H1451     1.0  0.75287  0.99753  0.29291  1.0000
  H   H1452     1.0  0.54920  0.00863  0.33790  1.0000
  H   H1453     1.0  0.71534  0.03803  0.25426  1.0000
  C   C1822     1.0  0.91410  0.35124  0.24795  1.0000
  C   C1823     1.0  0.99274  0.49441  0.41097  1.0000
  H   H1454     1.0  0.93104  0.34373  0.24944  1.0000
  C   C1824     1.0  0.79244  0.49401  0.42576  1.0000
  H   H1455     1.0  0.98982  0.40284  0.38948  1.0000
  C   C1825     1.0  0.99058  0.30309  0.47654  1.0000
  C   C1826     1.0  0.50035  0.15655  0.30195  1.0000
  H   H1456     1.0  0.86565  0.21431  0.24860  1.0000
  C   C1827     1.0  0.98707  0.31165  0.27561  1.0000
  H   H1457     1.0  0.68045  0.00114  0.29752  1.0000
  H   H1458     1.0  0.98948  0.30468  0.31234  1.0000
  H   H1459     1.0  0.62419  0.99932  0.40170  1.0000
  C   C1828     1.0  0.98767  0.35957  0.28169  1.0000
  H   H1460     1.0  0.71903  0.01205  0.49558  1.0000
  C   C1829     1.0  0.58216  0.02167  0.24597  1.0000
  C   C1830     1.0  0.83977  0.32546  0.24682  1.0000
  Fe  Fe122     1.0  0.60786  0.04589  0.68803  1.0000
  S   S240      1.0  0.64052  0.06248  0.68691  1.0000
  S   S241      1.0  0.60815  0.00964  0.69848  1.0000
  Fe  Fe123     1.0  0.58090  0.08984  0.67954  1.0000
  S   S242      1.0  0.61212  0.10985  0.67773  1.0000
  S   S243      1.0  0.54571  0.10749  0.68071  1.0000
  Fe  Fe124     1.0  0.62862  0.08127  0.66185  1.0000
  S   S244      1.0  0.65688  0.08146  0.63924  1.0000
  Fe  Fe125     1.0  0.62122  0.08913  0.70272  1.0000
  S   S245      1.0  0.63743  0.10294  0.72608  1.0000
  S   S246      1.0  0.59660  0.06260  0.66217  1.0000
  S   S247      1.0  0.58934  0.07120  0.70534  1.0000
  H   H1461     1.0  0.67757  0.15102  0.53174  1.0000
  Fe  Fe126     1.0  0.88475  0.27873  0.52374  1.0000
  S   S248      1.0  0.88919  0.24072  0.52798  1.0000
  S   S249      1.0  0.88506  0.30738  0.54311  1.0000
  H   H1462     1.0  0.98698  0.28807  0.70195  1.0000
  C   C1831     1.0  0.52841  0.99568  0.66376  1.0000
  Fe  Fe127     1.0  0.86420  0.23881  0.50650  1.0000
  S   S250      1.0  0.83225  0.21739  0.51193  1.0000
  C   C1832     1.0  0.50020  0.10196  0.68218  1.0000
  S   S251      1.0  0.85863  0.27727  0.50333  1.0000
  H   H1463     1.0  0.68280  0.23108  0.55488  1.0000
  S   S252      1.0  0.70635  0.11852  0.50905  1.0000
  C   C1833     1.0  0.94876  0.32867  0.61140  1.0000
  Fe  Fe128     1.0  0.73108  0.05694  0.51820  1.0000
  S   S253      1.0  0.69386  0.06622  0.51811  1.0000
  H   H1464     1.0  0.59659  0.07286  0.62146  1.0000
  Fe  Fe129     1.0  0.70078  0.09564  0.53388  1.0000
  S   S254      1.0  0.67495  0.10773  0.55598  1.0000
  S   S255      1.0  0.73793  0.08543  0.53540  1.0000
  Fe  Fe130     1.0  0.89245  0.35326  0.64290  1.0000
  S   S256      1.0  0.90767  0.38528  0.63205  1.0000
  S   S257      1.0  0.88112  0.32495  0.62648  1.0000
  Fe  Fe131     1.0  0.90295  0.36259  0.68203  1.0000
  S   S258      1.0  0.91996  0.39436  0.67339  1.0000
  S   S259      1.0  0.90488  0.34749  0.71055  1.0000
  Fe  Fe132     1.0  0.89075  0.40189  0.65599  1.0000
  S   S260      1.0  0.87242  0.43697  0.65571  1.0000
  Fe  Fe133     1.0  0.93516  0.37493  0.65054  1.0000
  S   S261      1.0  0.97119  0.37451  0.63999  1.0000
  S   S262      1.0  0.87268  0.37066  0.66559  1.0000
  S   S263      1.0  0.92095  0.34240  0.66047  1.0000
  H   H1465     1.0  0.94974  0.30905  0.70778  1.0000
  C   C1834     1.0  0.87580  0.48204  0.66127  1.0000
  C   C1835     1.0  0.88747  0.46071  0.65973  1.0000
  C   C1836     1.0  0.91096  0.45884  0.66073  1.0000
  C   C1837     1.0  0.92277  0.47823  0.66249  1.0000
  C   C1838     1.0  0.95344  0.26683  0.56981  1.0000
  H   H1466     1.0  0.92011  0.44255  0.65967  1.0000
  C   C1839     1.0  0.98492  0.30016  0.71221  1.0000
  C   C1840     1.0  0.98222  0.36049  0.67393  1.0000
  H   H1467     1.0  0.72632  0.21261  0.54293  1.0000
  H   H1468     1.0  0.68034  0.16188  0.56218  1.0000
  H   H1469     1.0  0.96457  0.36393  0.67792  1.0000
  C   C1841     1.0  0.89422  0.35997  0.73045  1.0000
  C   C1842     1.0  0.97502  0.34645  0.53715  1.0000
  C   C1843     1.0  0.88594  0.31102  0.56643  1.0000
  C   C1844     1.0  0.88121  0.29386  0.57942  1.0000
  C   C1845     1.0  0.88033  0.29830  0.59768  1.0000
  C   C1846     1.0  0.88454  0.31980  0.60329  1.0000
  C   C1847     1.0  0.89017  0.33668  0.59031  1.0000
  C   C1848     1.0  0.89070  0.33234  0.57205  1.0000
  H   H1470     1.0  0.87755  0.27738  0.57539  1.0000
  H   H1471     1.0  0.87598  0.28507  0.60754  1.0000
  H   H1472     1.0  0.89342  0.35329  0.59430  1.0000
  H   H1473     1.0  0.89444  0.34575  0.56218  1.0000
  C   C1849     1.0  0.78892  0.15542  0.50542  1.0000
  H   H1474     1.0  0.65384  0.24081  0.61724  1.0000
  Fe  Fe134     1.0  0.91631  0.24275  0.50554  1.0000
  C   C1850     1.0  0.81574  0.19352  0.50869  1.0000
  C   C1851     1.0  0.79421  0.19203  0.51765  1.0000
  C   C1852     1.0  0.78096  0.17328  0.51605  1.0000
  H   H1475     1.0  0.78776  0.20552  0.52598  1.0000
  H   H1476     1.0  0.76456  0.17269  0.52306  1.0000
  H   H1477     1.0  0.97918  0.26341  0.51037  1.0000
  C   C1853     1.0  0.96573  0.31147  0.55367  1.0000
  C   C1854     1.0  0.67003  0.04662  0.73822  1.0000
  H   H1478     1.0  0.96180  0.26077  0.54206  1.0000
  H   H1479     1.0  0.94524  0.33714  0.73051  1.0000
  C   C1855     1.0  0.97913  0.42948  0.69211  1.0000
  H   H1480     1.0  0.96073  0.48671  0.60032  1.0000
  C   C1856     1.0  0.65178  0.25297  0.58986  1.0000
  H   H1481     1.0  0.94336  0.48743  0.69950  1.0000
  C   C1857     1.0  0.68821  0.16451  0.53422  1.0000
  C   C1858     1.0  0.66059  0.08730  0.61573  1.0000
  C   C1859     1.0  0.68141  0.08054  0.60695  1.0000
  C   C1860     1.0  0.68579  0.08587  0.58860  1.0000
  C   C1861     1.0  0.66953  0.09844  0.57876  1.0000
  C   C1862     1.0  0.64864  0.10503  0.58750  1.0000
  C   C1863     1.0  0.64407  0.09928  0.60578  1.0000
  H   H1482     1.0  0.69436  0.07126  0.61443  1.0000
  H   H1483     1.0  0.70188  0.08059  0.58212  1.0000
  H   H1484     1.0  0.63592  0.11480  0.58010  1.0000
  H   H1485     1.0  0.62803  0.10472  0.61228  1.0000
  C   C1864     1.0  0.52109  0.09738  0.67284  1.0000
  C   C1865     1.0  0.52160  0.08668  0.65681  1.0000
  H   H1486     1.0  0.89808  0.45981  0.74055  1.0000
  H   H1487     1.0  0.53754  0.08355  0.64933  1.0000
  H   H1488     1.0  0.66613  0.06010  0.72828  1.0000
  H   H1489     1.0  0.78950  0.03902  0.51181  1.0000
  C   C1866     1.0  0.66003  0.25015  0.57234  1.0000
  P   P62       1.0  0.97228  0.28941  0.57052  1.0000
  C   C1867     1.0  0.65548  0.00550  0.62976  1.0000
  C   C1868     1.0  0.80259  0.40409  0.67399  1.0000
  C   C1869     1.0  0.80038  0.38310  0.68323  1.0000
  C   C1870     1.0  0.81587  0.37527  0.69592  1.0000
  H   H1490     1.0  0.92329  0.33115  0.52720  1.0000
  P   P63       1.0  0.81507  0.34716  0.70637  1.0000
  C   C1871     1.0  0.83490  0.32999  0.69298  1.0000
  C   C1872     1.0  0.74658  0.34404  0.71380  1.0000
  C   C1873     1.0  0.68984  0.17079  0.55162  1.0000
  C   C1874     1.0  0.67663  0.23291  0.56854  1.0000
  C   C1875     1.0  0.82947  0.32492  0.67588  1.0000
  C   C1876     1.0  0.84536  0.31313  0.66483  1.0000
  C   C1877     1.0  0.86684  0.30654  0.67067  1.0000
  C   C1878     1.0  0.87246  0.31179  0.68756  1.0000
  C   C1879     1.0  0.85663  0.32362  0.69863  1.0000
  C   C1880     1.0  0.50131  0.08105  0.65001  1.0000
  C   C1881     1.0  0.92306  0.23285  0.56824  1.0000
  C   C1882     1.0  0.66369  0.00586  0.66601  1.0000
  H   H1491     1.0  0.87085  0.13452  0.52428  1.0000
  H   H1492     1.0  0.96367  0.37416  0.71832  1.0000
  H   H1493     1.0  0.93923  0.26963  0.59690  1.0000
  C   C1883     1.0  0.96187  0.47242  0.60995  1.0000
  H   H1494     1.0  0.81267  0.38226  0.73261  1.0000
  C   C1884     1.0  0.82048  0.41717  0.67712  1.0000
  C   C1885     1.0  0.68505  0.21828  0.58230  1.0000
  H   H1495     1.0  0.80080  0.07701  0.50033  1.0000
  H   H1496     1.0  0.89459  0.48370  0.62046  1.0000
  H   H1497     1.0  0.85050  0.41904  0.69139  1.0000
  H   H1498     1.0  0.81320  0.33061  0.67090  1.0000
  H   H1499     1.0  0.84144  0.30980  0.65143  1.0000
  H   H1500     1.0  0.87937  0.29808  0.66184  1.0000
  H   H1501     1.0  0.88940  0.30746  0.69185  1.0000
  H   H1502     1.0  0.86177  0.32844  0.71129  1.0000
  C   C1886     1.0  0.59640  0.99780  0.66586  1.0000
  H   H1503     1.0  0.84722  0.10433  0.53730  1.0000
  C   C1887     1.0  0.95358  0.38299  0.72851  1.0000
  H   H1504     1.0  0.82641  0.18464  0.54938  1.0000
  C   C1888     1.0  0.55015  0.01946  0.68813  1.0000
  H   H1505     1.0  0.49815  0.06331  0.72623  1.0000
  C   C1889     1.0  0.69540  0.13658  0.61898  1.0000
  Fe  Fe135     1.0  0.74337  0.10695  0.50977  1.0000
  S   S264      1.0  0.95138  0.22377  0.50538  1.0000
  C   C1890     1.0  0.68062  0.16514  0.59766  1.0000
  H   H1506     1.0  0.73767  0.16712  0.59986  1.0000
  H   H1507     1.0  0.73121  0.13571  0.62212  1.0000
  C   C1891     1.0  0.73420  0.20660  0.57895  1.0000
  H   H1508     1.0  0.78898  0.19639  0.56345  1.0000
  H   H1509     1.0  0.97960  0.47666  0.71318  1.0000
  C   C1892     1.0  0.98017  0.33307  0.73763  1.0000
  H   H1510     1.0  0.55920  0.02847  0.69721  1.0000
  H   H1511     1.0  0.69997  0.16972  0.50679  1.0000
  C   C1893     1.0  0.98381  0.43819  0.67473  1.0000
  C   C1894     1.0  0.88492  0.48031  0.71863  1.0000
  C   C1895     1.0  0.73758  0.99552  0.51685  1.0000
  C   C1896     1.0  0.71713  0.14395  0.61524  1.0000
  H   H1512     1.0  0.72260  0.23459  0.59516  1.0000
  C   C1897     1.0  0.92399  0.24411  0.58387  1.0000
  C   C1898     1.0  0.88255  0.38129  0.73037  1.0000
  C   C1899     1.0  0.80019  0.07259  0.51449  1.0000
  C   C1900     1.0  0.80481  0.08867  0.52633  1.0000
  C   C1901     1.0  0.95434  0.34742  0.52918  1.0000
  C   C1902     1.0  0.59416  0.04199  0.58516  1.0000
  C   C1903     1.0  0.75329  0.19560  0.57046  1.0000
  H   H1513     1.0  0.88608  0.46656  0.70971  1.0000
  H   H1514     1.0  0.69257  0.12261  0.62868  1.0000
  C   C1904     1.0  0.79380  0.05127  0.52095  1.0000
  H   H1515     1.0  0.79341  0.23083  0.57955  1.0000
  C   C1905     1.0  0.93752  0.40006  0.72333  1.0000
  H   H1516     1.0  0.59692  0.01541  0.66157  1.0000
  H   H1517     1.0  0.63885  0.26628  0.59278  1.0000
  H   H1518     1.0  0.75169  0.18054  0.56335  1.0000
  C   C1906     1.0  0.71579  0.19897  0.54078  1.0000
  H   H1519     1.0  0.66618  0.17324  0.59113  1.0000
  H   H1520     1.0  0.97219  0.45106  0.66899  1.0000
  H   H1521     1.0  0.99049  0.40607  0.71321  1.0000
  C   C1907     1.0  0.98065  0.32863  0.54943  1.0000
  H   H1522     1.0  0.95981  0.32743  0.63812  1.0000
  C   C1908     1.0  0.94506  0.31255  0.54548  1.0000
  H   H1523     1.0  0.62817  0.04504  0.62708  1.0000
  C   C1909     1.0  0.96477  0.43550  0.63473  1.0000
  H   H1524     1.0  0.78617  0.02975  0.54417  1.0000
  C   C1910     1.0  0.69250  0.03929  0.74090  1.0000
  H   H1525     1.0  0.99211  0.35147  0.70060  1.0000
  H   H1526     1.0  0.76021  0.24961  0.59558  1.0000
  H   H1527     1.0  0.94100  0.47678  0.66252  1.0000
  H   H1528     1.0  0.66599  0.00648  0.68011  1.0000
  H   H1529     1.0  0.93621  0.23008  0.54120  1.0000
  H   H1530     1.0  0.94965  0.36150  0.52006  1.0000
  H   H1531     1.0  0.84678  0.38187  0.70761  1.0000
  C   C1911     1.0  0.98174  0.46738  0.61887  1.0000
  H   H1532     1.0  0.96563  0.42107  0.64422  1.0000
  H   H1533     1.0  0.79770  0.30336  0.69962  1.0000
  H   H1534     1.0  0.50174  0.07334  0.63736  1.0000
  C   C1912     1.0  0.98056  0.29227  0.60624  1.0000
  C   C1913     1.0  0.83614  0.40929  0.68950  1.0000
  H   H1535     1.0  0.52969  0.08532  0.71308  1.0000
  P   P64       1.0  0.70656  0.19600  0.57758  1.0000
  C   C1914     1.0  0.81033  0.15701  0.49634  1.0000
  C   C1915     1.0  0.74322  0.32190  0.70968  1.0000
  C   C1916     1.0  0.82196  0.34664  0.72937  1.0000
  C   C1917     1.0  0.79196  0.04603  0.53926  1.0000
  H   H1536     1.0  0.83105  0.31060  0.73130  1.0000
  H   H1537     1.0  0.77183  0.09349  0.58890  1.0000
  C   C1918     1.0  0.82920  0.32614  0.73823  1.0000
  H   H1538     1.0  0.78697  0.37281  0.68012  1.0000
  H   H1539     1.0  0.93091  0.42986  0.62822  1.0000
  S   S265      1.0  0.74404  0.02074  0.52661  1.0000
  C   C1919     1.0  0.93916  0.26096  0.58471  1.0000
  C   C1920     1.0  0.71342  0.01316  0.58569  1.0000
  H   H1540     1.0  0.61667  0.01333  0.57869  1.0000
  C   C1921     1.0  0.67286  0.01604  0.59300  1.0000
  C   C1922     1.0  0.72518  0.99597  0.50166  1.0000
  H   H1541     1.0  0.98652  0.35971  0.53408  1.0000
  C   C1923     1.0  0.62455  0.02666  0.60348  1.0000
  C   C1924     1.0  0.96186  0.32000  0.62533  1.0000
  C   C1925     1.0  0.78697  0.33736  0.70705  1.0000
  C   C1926     1.0  0.72069  0.16181  0.60259  1.0000
  H   H1542     1.0  0.61313  0.99824  0.74413  1.0000
  H   H1543     1.0  0.80877  0.10540  0.52105  1.0000
  H   H1544     1.0  0.93615  0.34251  0.61358  1.0000
  C   C1927     1.0  0.98977  0.36380  0.65608  1.0000
  C   C1928     1.0  0.50924  0.07065  0.73480  1.0000
  C   C1929     1.0  0.83396  0.38833  0.69872  1.0000
  C   C1930     1.0  0.94357  0.45888  0.61329  1.0000
  H   H1545     1.0  0.69717  0.99532  0.60803  1.0000
  C   C1931     1.0  0.61215  0.02598  0.58829  1.0000
  H   H1546     1.0  0.91273  0.24003  0.59528  1.0000
  H   H1547     1.0  0.92828  0.46255  0.60625  1.0000
  H   H1548     1.0  0.85763  0.48365  0.66047  1.0000
  H   H1549     1.0  0.77082  0.36879  0.71612  1.0000
  H   H1550     1.0  0.72412  0.20049  0.51253  1.0000
  H   H1551     1.0  0.93499  0.40380  0.70934  1.0000
  C   C1932     1.0  0.54802  0.99623  0.69104  1.0000
  C   C1933     1.0  0.67685  0.22140  0.59991  1.0000
  H   H1552     1.0  0.58488  0.04162  0.57329  1.0000
  H   H1553     1.0  0.65353  0.26132  0.56166  1.0000
  C   C1934     1.0  0.75823  0.23451  0.58858  1.0000
  C   C1935     1.0  0.76171  0.30738  0.70447  1.0000
  C   C1936     1.0  0.54129  0.03091  0.67317  1.0000
  C   C1937     1.0  0.52681  0.08329  0.72739  1.0000
  C   C1938     1.0  0.67718  0.14723  0.61024  1.0000
  H   H1554     1.0  0.72633  0.31591  0.71072  1.0000
  C   C1939     1.0  0.70244  0.17248  0.59361  1.0000
  C   C1940     1.0  0.66022  0.23862  0.60364  1.0000
  C   C1941     1.0  0.77450  0.20442  0.57060  1.0000
  H   H1555     1.0  0.73230  0.35518  0.71809  1.0000
  C   C1942     1.0  0.58844  0.05878  0.59717  1.0000
  C   C1943     1.0  0.60073  0.05960  0.61228  1.0000
  C   C1944     1.0  0.61875  0.04368  0.61542  1.0000
  H   H1556     1.0  0.57881  0.01487  0.73038  1.0000
  C   C1945     1.0  0.96402  0.31201  0.71543  1.0000
  C   C1946     1.0  0.95187  0.31946  0.59473  1.0000
  C   C1947     1.0  0.69470  0.00707  0.59669  1.0000
  C   C1948     1.0  0.78355  0.31501  0.70327  1.0000
  C   C1949     1.0  0.71439  0.19237  0.52344  1.0000
  H   H1557     1.0  0.73103  0.10409  0.59330  1.0000
  H   H1558     1.0  0.68328  0.21055  0.61079  1.0000
  H   H1559     1.0  0.71174  0.13011  0.57136  1.0000
  P   P65       1.0  0.64872  0.00684  0.60666  1.0000
  C   C1950     1.0  0.94506  0.44042  0.62565  1.0000
  H   H1560     1.0  0.91121  0.21991  0.56751  1.0000
  S   S266      1.0  0.91304  0.28031  0.50254  1.0000
  C   C1951     1.0  0.67144  0.02291  0.65407  1.0000
  C   C1952     1.0  0.66760  0.02259  0.63600  1.0000
  C   C1953     1.0  0.93946  0.33039  0.53324  1.0000
  C   C1954     1.0  0.67010  0.03162  0.57838  1.0000
  C   C1955     1.0  0.68884  0.03768  0.56744  1.0000
  C   C1956     1.0  0.71046  0.02838  0.57101  1.0000
  C   C1957     1.0  0.73690  0.22592  0.58829  1.0000
  C   C1958     1.0  0.98331  0.44888  0.63138  1.0000
  H   H1561     1.0  0.54325  0.04887  0.67091  1.0000
  H   H1562     1.0  0.57469  0.07137  0.59469  1.0000
  C   C1959     1.0  0.85593  0.13878  0.53274  1.0000
  C   C1960     1.0  0.70069  0.17509  0.52018  1.0000
  H   H1563     1.0  0.55402  0.10363  0.73257  1.0000
  H   H1564     1.0  0.79083  0.40998  0.66404  1.0000
  H   H1565     1.0  0.66033  0.14154  0.61325  1.0000
  C   C1961     1.0  0.89192  0.47660  0.73600  1.0000
  H   H1566     1.0  0.88040  0.39093  0.71791  1.0000
  C   C1962     1.0  0.53019  0.01920  0.66114  1.0000
  C   C1963     1.0  0.93709  0.23865  0.55337  1.0000
  H   H1567     1.0  0.67973  0.03688  0.65887  1.0000
  H   H1568     1.0  0.67319  0.03630  0.62703  1.0000
  H   H1569     1.0  0.65364  0.03935  0.57537  1.0000
  H   H1570     1.0  0.68660  0.04990  0.55630  1.0000
  H   H1571     1.0  0.72490  0.03310  0.56240  1.0000
  C   C1964     1.0  0.77698  0.22389  0.57962  1.0000
  H   H1572     1.0  0.80225  0.15473  0.56250  1.0000
  H   H1573     1.0  0.96391  0.43547  0.69952  1.0000
  H   H1574     1.0  0.82270  0.43310  0.66957  1.0000
  H   H1575     1.0  0.93288  0.29999  0.54880  1.0000
  H   H1576     1.0  0.86031  0.17468  0.53024  1.0000
  C   C1965     1.0  0.79640  0.06214  0.55114  1.0000
  C   C1966     1.0  0.80325  0.08347  0.54474  1.0000
  H   H1577     1.0  0.91099  0.42401  0.73205  1.0000
  P   P66       1.0  0.80545  0.10527  0.56006  1.0000
  C   C1967     1.0  0.77650  0.11527  0.56501  1.0000
  C   C1968     1.0  0.81923  0.09453  0.57975  1.0000
  C   C1969     1.0  0.81563  0.10607  0.59548  1.0000
  C   C1970     1.0  0.82671  0.09818  0.61070  1.0000
  C   C1971     1.0  0.84172  0.07895  0.61022  1.0000
  C   C1972     1.0  0.84579  0.06769  0.59448  1.0000
  C   C1973     1.0  0.83471  0.07553  0.57924  1.0000
  C   C1974     1.0  0.76543  0.13010  0.55271  1.0000
  C   C1975     1.0  0.74222  0.13566  0.55507  1.0000
  C   C1976     1.0  0.72988  0.12641  0.56978  1.0000
  C   C1977     1.0  0.74078  0.11164  0.58214  1.0000
  C   C1978     1.0  0.76397  0.10588  0.57970  1.0000
  C   C1979     1.0  0.82260  0.12736  0.55046  1.0000
  C   C1980     1.0  0.84238  0.12178  0.54000  1.0000
  H   H1578     1.0  0.94137  0.32623  0.58415  1.0000
  C   C1981     1.0  0.85012  0.16139  0.53619  1.0000
  C   C1982     1.0  0.83085  0.16700  0.54701  1.0000
  C   C1983     1.0  0.81712  0.15007  0.55417  1.0000
  C   C1984     1.0  0.70388  0.18791  0.55510  1.0000
  C   C1985     1.0  0.98075  0.22731  0.50756  1.0000
  C   C1986     1.0  0.95189  0.25584  0.55401  1.0000
  H   H1579     1.0  0.79378  0.05819  0.56527  1.0000
  C   C1987     1.0  0.96827  0.30160  0.59192  1.0000
  H   H1580     1.0  0.80435  0.12123  0.59595  1.0000
  H   H1581     1.0  0.82380  0.10708  0.62284  1.0000
  H   H1582     1.0  0.85039  0.07291  0.62201  1.0000
  H   H1583     1.0  0.85770  0.05300  0.59403  1.0000
  H   H1584     1.0  0.83842  0.06690  0.56705  1.0000
  H   H1585     1.0  0.77456  0.13645  0.54083  1.0000
  H   H1586     1.0  0.73371  0.14631  0.54504  1.0000
  H   H1587     1.0  0.52322  0.02852  0.64973  1.0000
  C   C1988     1.0  0.54050  0.09366  0.73842  1.0000
  C   C1989     1.0  0.76839  0.35172  0.71259  1.0000
  C   C1990     1.0  0.81886  0.36635  0.73890  1.0000
  C   C1991     1.0  0.96158  0.32818  0.72824  1.0000
  C   C1992     1.0  0.97761  0.30171  0.62280  1.0000
  H   H1588     1.0  0.55034  0.00663  0.62959  1.0000
  H   H1589     1.0  0.50551  0.04256  0.69876  1.0000
  H   H1590     1.0  0.99255  0.27782  0.60461  1.0000
  H   H1591     1.0  0.51433  0.00983  0.71960  1.0000
  H   H1592     1.0  0.70601  0.04700  0.73292  1.0000
  H   H1593     1.0  0.77562  0.48742  0.59358  1.0000
  H   H1594     1.0  0.73023  0.00609  0.58850  1.0000
  C   C1993     1.0  0.92408  0.41155  0.73615  1.0000
  H   H1595     1.0  0.75914  0.29012  0.70153  1.0000
  H   H1596     1.0  0.49963  0.11063  0.69442  1.0000
  S   S267      1.0  0.77318  0.13070  0.50323  1.0000
  H   H1597     1.0  0.93717  0.47642  0.74322  1.0000
  H   H1598     1.0  0.98844  0.19165  0.50509  1.0000
  C   C1994     1.0  0.58285  0.02011  0.74325  1.0000
  C   C1995     1.0  0.99013  0.24808  0.50987  1.0000
  C   C1996     1.0  0.49789  0.01175  0.71408  1.0000
  C   C1997     1.0  0.82356  0.17578  0.49792  1.0000
  H   H1599     1.0  0.55474  0.04492  0.74508  1.0000
  H   H1600     1.0  0.96967  0.44836  0.74459  1.0000
  C   C1998     1.0  0.97110  0.49301  0.71563  1.0000
  H   H1601     1.0  0.57273  0.00194  0.60150  1.0000
  C   C1999     1.0  0.99397  0.41290  0.69978  1.0000
  H   H1602     1.0  0.81290  0.49123  0.57731  1.0000
  H   H1603     1.0  0.98752  0.29493  0.63372  1.0000
  Fe  Fe136     1.0  0.60740  0.10235  0.83715  1.0000
  S   S268      1.0  0.58058  0.07736  0.84133  1.0000
  S   S269      1.0  0.62651  0.11070  0.81055  1.0000
  Fe  Fe137     1.0  0.60194  0.11687  0.87683  1.0000
  S   S270      1.0  0.57502  0.09243  0.88313  1.0000
  S   S271      1.0  0.60566  0.14503  0.89612  1.0000
  Fe  Fe138     1.0  0.59697  0.06775  0.86709  1.0000
  S   S272      1.0  0.60269  0.03219  0.87949  1.0000
  Fe  Fe139     1.0  0.56155  0.10435  0.85702  1.0000
  S   S273      1.0  0.52552  0.11775  0.85558  1.0000
  S   S274      1.0  0.62526  0.09131  0.86227  1.0000
  S   S275      1.0  0.58704  0.13007  0.85111  1.0000
  C   C2000     1.0  0.92673  0.40606  0.75421  1.0000
  S   S276      1.0  0.63170  0.15523  0.97645  1.0000
  H   H1604     1.0  0.88177  0.38834  0.95643  1.0000
  H   H1605     1.0  0.65727  0.12606  0.78347  1.0000
  S   S277      1.0  0.83333  0.37169  0.95619  1.0000
  Fe  Fe140     1.0  0.87323  0.37285  0.85163  1.0000
  S   S278      1.0  0.89949  0.39620  0.85783  1.0000
  S   S279      1.0  0.85257  0.35309  0.87336  1.0000
  Fe  Fe141     1.0  0.87791  0.38642  0.81065  1.0000
  S   S280      1.0  0.90364  0.41118  0.81477  1.0000
  S   S281      1.0  0.86468  0.38951  0.78271  1.0000
  Fe  Fe142     1.0  0.91888  0.38397  0.83318  1.0000
  S   S282      1.0  0.95601  0.37360  0.82775  1.0000
  Fe  Fe143     1.0  0.88174  0.42072  0.83868  1.0000
  S   S283      1.0  0.86881  0.45573  0.84522  1.0000
  S   S284      1.0  0.89401  0.35834  0.82811  1.0000
  S   S285      1.0  0.85466  0.39817  0.83349  1.0000
  H   H1606     1.0  0.54719  0.10013  0.76503  1.0000
  H   H1607     1.0  0.54226  0.05121  0.93738  1.0000
  H   H1608     1.0  0.74009  0.47667  0.98717  1.0000
  H   H1609     1.0  0.60306  0.08402  0.75300  1.0000
  C   C2001     1.0  0.89001  0.47442  0.84624  1.0000
  C   C2002     1.0  0.91269  0.46779  0.84198  1.0000
  C   C2003     1.0  0.92936  0.48328  0.84285  1.0000
  C   C2004     1.0  0.94044  0.43844  0.88401  1.0000
  H   H1610     1.0  0.91735  0.45080  0.83799  1.0000
  C   C2005     1.0  0.51393  0.12087  0.97537  1.0000
  C   C2006     1.0  0.67952  0.32628  0.96812  1.0000
  C   C2007     1.0  0.88941  0.35721  0.76299  1.0000
  C   C2008     1.0  0.87744  0.37836  0.76290  1.0000
  C   C2009     1.0  0.64481  0.01029  0.82932  1.0000
  H   H1611     1.0  0.56224  0.16192  0.87908  1.0000
  H   H1612     1.0  0.83797  0.48358  0.97539  1.0000
  H   H1613     1.0  0.89172  0.34764  0.77548  1.0000
  C   C2010     1.0  0.67138  0.21102  0.97128  1.0000
  C   C2011     1.0  0.58106  0.26874  0.97400  1.0000
  C   C2012     1.0  0.83717  0.36701  0.93294  1.0000
  C   C2013     1.0  0.85295  0.37944  0.92239  1.0000
  C   C2014     1.0  0.85748  0.37579  0.90416  1.0000
  C   C2015     1.0  0.84642  0.35938  0.89612  1.0000
  C   C2016     1.0  0.83038  0.34715  0.90656  1.0000
  C   C2017     1.0  0.82564  0.35103  0.92479  1.0000
  H   H1614     1.0  0.86176  0.39199  0.92840  1.0000
  H   H1615     1.0  0.86979  0.38536  0.89636  1.0000
  H   H1616     1.0  0.82169  0.33439  0.90055  1.0000
  H   H1617     1.0  0.81349  0.34124  0.93261  1.0000
  H   H1618     1.0  0.63699  0.28931  0.98911  1.0000
  C   C2018     1.0  0.60824  0.01804  0.76746  1.0000
  C   C2019     1.0  0.93493  0.38012  0.93683  1.0000
  H   H1619     1.0  0.68404  0.99994  0.77493  1.0000
  C   C2020     1.0  0.50633  0.09701  0.85455  1.0000
  C   C2021     1.0  0.51327  0.07396  0.85569  1.0000
  H   H1620     1.0  0.59890  0.08701  0.78618  1.0000
  H   H1621     1.0  0.55743  0.13239  0.90320  1.0000
  H   H1622     1.0  0.53094  0.06868  0.85701  1.0000
  H   H1623     1.0  0.76817  0.36746  0.93952  1.0000
  C   C2022     1.0  0.61250  0.14697  0.91869  1.0000
  C   C2023     1.0  0.60549  0.16685  0.92738  1.0000
  C   C2024     1.0  0.61063  0.16946  0.94515  1.0000
  C   C2025     1.0  0.62348  0.15242  0.95436  1.0000
  C   C2026     1.0  0.63064  0.13259  0.94565  1.0000
  C   C2027     1.0  0.62517  0.12983  0.92797  1.0000
  H   H1624     1.0  0.59603  0.18039  0.92028  1.0000
  H   H1625     1.0  0.60506  0.18485  0.95159  1.0000
  H   H1626     1.0  0.64068  0.11930  0.95255  1.0000
  H   H1627     1.0  0.63112  0.11463  0.92142  1.0000
  C   C2028     1.0  0.90005  0.38536  0.95524  1.0000
  C   C2029     1.0  0.87730  0.48037  0.78353  1.0000
  C   C2030     1.0  0.64534  0.11678  0.77702  1.0000
  C   C2031     1.0  0.62774  0.10691  0.78720  1.0000
  C   C2032     1.0  0.61245  0.09487  0.77849  1.0000
  C   C2033     1.0  0.83195  0.34544  0.76530  1.0000
  C   C2034     1.0  0.82393  0.36572  0.75677  1.0000
  C   C2035     1.0  0.51945  0.13563  0.81217  1.0000
  H   H1628     1.0  0.83647  0.34524  0.77902  1.0000
  H   H1629     1.0  0.82221  0.38107  0.76397  1.0000
  C   C2036     1.0  0.52098  0.13722  0.90514  1.0000
  H   H1630     1.0  0.67021  0.17875  0.95980  1.0000
  H   H1631     1.0  0.66394  0.27853  0.88819  1.0000
  H   H1632     1.0  0.67082  0.26531  0.91917  1.0000
  H   H1633     1.0  0.95158  0.43174  0.79964  1.0000
  H   H1634     1.0  0.63025  0.30413  0.88157  1.0000
  H   H1635     1.0  0.60352  0.31676  0.90616  1.0000
  H   H1636     1.0  0.94458  0.37180  0.98096  1.0000
  H   H1637     1.0  0.91589  0.41457  0.76418  1.0000
  C   C2037     1.0  0.51029  0.11760  0.80465  1.0000
  H   H1638     1.0  0.90865  0.35189  0.91879  1.0000
  C   C2038     1.0  0.93592  0.34664  0.87115  1.0000
  C   C2039     1.0  0.96030  0.44708  0.90951  1.0000
  H   H1639     1.0  0.96764  0.41923  0.92833  1.0000
  H   H1640     1.0  0.64616  0.99852  0.84085  1.0000
  S   S286      1.0  0.61300  0.21996  0.99163  1.0000
  C   C2040     1.0  0.50182  0.14934  0.89848  1.0000
  C   C2041     1.0  0.64060  0.04076  0.79980  1.0000
  C   C2042     1.0  0.64378  0.04864  0.81650  1.0000
  C   C2043     1.0  0.64557  0.03347  0.83130  1.0000
  H   H1641     1.0  0.56502  0.05786  0.77404  1.0000
  C   C2044     1.0  0.59976  0.00845  0.86696  1.0000
  C   C2045     1.0  0.91158  0.38597  0.93850  1.0000
  H   H1642     1.0  0.71460  0.41976  0.93532  1.0000
  C   C2046     1.0  0.84477  0.48875  0.80378  1.0000
  Fe  Fe144     1.0  0.80726  0.36428  0.97968  1.0000
  H   H1643     1.0  0.96692  0.33582  0.92983  1.0000
  C   C2047     1.0  0.67997  0.01272  0.76453  1.0000
  H   H1644     1.0  0.79880  0.48145  0.95016  1.0000
  C   C2048     1.0  0.73954  0.39173  0.93738  1.0000
  C   C2049     1.0  0.96925  0.34193  0.77453  1.0000
  H   H1645     1.0  0.57510  0.11733  0.80935  1.0000
  C   C2050     1.0  0.94017  0.41581  0.89038  1.0000
  H   H1646     1.0  0.86030  0.42783  0.97651  1.0000
  P   P67       1.0  0.90101  0.48971  0.76957  1.0000
  H   H1647     1.0  0.89045  0.33090  0.89738  1.0000
  H   H1648     1.0  0.59842  0.04085  0.78842  1.0000
  H   H1649     1.0  0.67960  0.20395  0.98299  1.0000
  H   H1650     1.0  0.63940  0.05286  0.78848  1.0000
  H   H1651     1.0  0.64484  0.06657  0.81799  1.0000
  H   H1652     1.0  0.64749  0.03966  0.84432  1.0000
  C   C2051     1.0  0.89092  0.49449  0.74744  1.0000
  H   H1653     1.0  0.54750  0.16267  0.98847  1.0000
  C   C2052     1.0  0.59432  0.03476  0.77588  1.0000
  H   H1654     1.0  0.94353  0.34480  0.85786  1.0000
  C   C2053     1.0  0.95612  0.37708  0.74661  1.0000
  C   C2054     1.0  0.91193  0.38017  0.97052  1.0000
  H   H1655     1.0  0.95136  0.31406  0.82076  1.0000
  C   C2055     1.0  0.91570  0.33671  0.87623  1.0000
  H   H1656     1.0  0.66150  0.12298  0.75110  1.0000
  C   C2056     1.0  0.65454  0.20581  0.94357  1.0000
  H   H1657     1.0  0.72720  0.37911  0.93978  1.0000
  P   P68       1.0  0.97720  0.35524  0.75316  1.0000
  C   C2057     1.0  0.85374  0.43131  0.94867  1.0000
  C   C2058     1.0  0.95054  0.45408  0.89353  1.0000
  C   C2059     1.0  0.53712  0.00974  0.79450  1.0000
  C   C2060     1.0  0.80831  0.43845  0.96014  1.0000
  C   C2061     1.0  0.81440  0.43889  0.94185  1.0000
  C   C2062     1.0  0.83725  0.43534  0.93618  1.0000
  P   P69       1.0  0.79285  0.44465  0.92606  1.0000
  C   C2063     1.0  0.77172  0.42433  0.93137  1.0000
  C   C2064     1.0  0.58193  0.27703  0.99086  1.0000
  H   H1658     1.0  0.80540  0.47585  0.89560  1.0000
  C   C2065     1.0  0.74848  0.43087  0.93174  1.0000
  H   H1659     1.0  0.57604  0.05915  0.91758  1.0000
  P   P70       1.0  0.63503  0.00786  0.77594  1.0000
  C   C2066     1.0  0.96290  0.43845  0.77223  1.0000
  C   C2067     1.0  0.77856  0.40143  0.93486  1.0000
  C   C2068     1.0  0.80462  0.44019  0.90364  1.0000
  C   C2069     1.0  0.81017  0.41820  0.89801  1.0000
  C   C2070     1.0  0.81850  0.41488  0.88056  1.0000
  C   C2071     1.0  0.82158  0.43344  0.86861  1.0000
  C   C2072     1.0  0.81686  0.45535  0.87417  1.0000
  C   C2073     1.0  0.80855  0.45874  0.89161  1.0000
  H   H1660     1.0  0.87122  0.42782  0.94432  1.0000
  C   C2074     1.0  0.58068  0.12379  0.99006  1.0000
  C   C2075     1.0  0.99045  0.40669  0.86197  1.0000
  H   H1661     1.0  0.79070  0.44079  0.96485  1.0000
  H   H1662     1.0  0.84233  0.43515  0.92221  1.0000
  H   H1663     1.0  0.74251  0.44840  0.92991  1.0000
  H   H1664     1.0  0.53145  0.06245  0.82278  1.0000
  C   C2076     1.0  0.61485  0.09314  0.75969  1.0000
  C   C2077     1.0  0.65733  0.01971  0.76170  1.0000
  C   C2078     1.0  0.53657  0.09152  0.75689  1.0000
  H   H1665     1.0  0.79628  0.39602  0.93571  1.0000
  H   H1666     1.0  0.80834  0.40344  0.90693  1.0000
  H   H1667     1.0  0.82270  0.39785  0.87631  1.0000
  H   H1668     1.0  0.82810  0.43088  0.85511  1.0000
  H   H1669     1.0  0.59251  0.02772  0.84267  1.0000
  H   H1670     1.0  0.85208  0.43222  0.79817  1.0000
  H   H1671     1.0  0.59966  0.26085  0.94960  1.0000
  C   C2079     1.0  0.97728  0.38270  0.84036  1.0000
  H   H1672     1.0  0.51920  0.12405  0.91561  1.0000
  H   H1673     1.0  0.99048  0.38469  0.77956  1.0000
  C   C2080     1.0  0.95860  0.45087  0.75632  1.0000
  S   S287      1.0  0.76930  0.36816  0.97894  1.0000
  C   C2081     1.0  0.55064  0.06666  0.93852  1.0000
  C   C2082     1.0  0.94830  0.44142  0.78728  1.0000
  C   C2083     1.0  0.60034  0.26814  0.96235  1.0000
  C   C2084     1.0  0.64054  0.28287  0.93038  1.0000
  C   C2085     1.0  0.87305  0.45732  0.78531  1.0000
  C   C2086     1.0  0.85504  0.45006  0.79653  1.0000
  H   H1674     1.0  0.50257  0.03989  0.85594  1.0000
  S   S288      1.0  0.75286  0.42951  0.99545  1.0000
  C   C2087     1.0  0.93984  0.46643  0.75548  1.0000
  C   C2088     1.0  0.92478  0.46908  0.77040  1.0000
  H   H1675     1.0  0.67525  0.34332  0.97219  1.0000
  C   C2089     1.0  0.62181  0.29781  0.92660  1.0000
  C   C2090     1.0  0.92937  0.45679  0.78642  1.0000
  C   C2091     1.0  0.66559  0.23426  0.96944  1.0000
  H   H1676     1.0  0.50390  0.16217  0.93238  1.0000
  H   H1677     1.0  0.64986  0.19462  0.93377  1.0000
  C   C2092     1.0  0.93537  0.37565  0.96907  1.0000
  C   C2093     1.0  0.65591  0.27631  0.91646  1.0000
  C   C2094     1.0  0.97919  0.32482  0.80331  1.0000
  H   H1678     1.0  0.99451  0.39430  0.90173  1.0000
  C   C2095     1.0  0.50474  0.16613  0.88473  1.0000
  C   C2096     1.0  0.56066  0.11329  0.98787  1.0000
  H   H1679     1.0  0.96829  0.45918  0.91682  1.0000
  H   H1680     1.0  0.61017  0.30379  0.93718  1.0000
  C   C2097     1.0  0.65213  0.28386  0.89891  1.0000
  H   H1681     1.0  0.91837  0.45914  0.79828  1.0000
  C   C2098     1.0  0.58086  0.09073  0.92904  1.0000
  H   H1682     1.0  0.69541  0.26503  0.95425  1.0000
  C   C2099     1.0  0.97293  0.39995  0.85215  1.0000
  C   C2100     1.0  0.52646  0.17072  0.87783  1.0000
  C   C2101     1.0  0.55316  0.10231  0.95237  1.0000
  C   C2102     1.0  0.57281  0.10614  0.94163  1.0000
  P   P71       1.0  0.54376  0.12172  0.96926  1.0000
  C   C2103     1.0  0.54740  0.15086  0.96189  1.0000
  C   C2104     1.0  0.98565  0.33493  0.78671  1.0000
  C   C2105     1.0  0.94996  0.40861  0.90638  1.0000
  H   H1683     1.0  0.52820  0.07798  0.96000  1.0000
  C   C2106     1.0  0.66253  0.31283  0.96361  1.0000
  H   H1684     1.0  0.54799  0.02617  0.83535  1.0000
  C   C2107     1.0  0.63317  0.29830  0.89518  1.0000
  C   C2108     1.0  0.54838  0.16732  0.97436  1.0000
  C   C2109     1.0  0.55077  0.18996  0.96869  1.0000
  C   C2110     1.0  0.55162  0.19644  0.95057  1.0000
  C   C2111     1.0  0.55011  0.18024  0.93809  1.0000
  C   C2112     1.0  0.54807  0.15755  0.94374  1.0000
  C   C2113     1.0  0.99112  0.47911  0.79613  1.0000
  H   H1685     1.0  0.96503  0.37214  0.95154  1.0000
  C   C2114     1.0  0.76543  0.48242  0.91485  1.0000
  H   H1686     1.0  0.98750  0.47411  0.81003  1.0000
  C   C2115     1.0  0.56972  0.07105  0.92741  1.0000
  C   C2116     1.0  0.52736  0.03023  0.78738  1.0000
  C   C2117     1.0  0.94663  0.33740  0.77876  1.0000
  C   C2118     1.0  0.69065  0.28202  0.95820  1.0000
  C   C2119     1.0  0.65462  0.24353  0.95447  1.0000
  H   H1687     1.0  0.58198  0.12101  0.94300  1.0000
  H   H1688     1.0  0.82751  0.45992  0.81495  1.0000
  H   H1689     1.0  0.82009  0.46968  0.86496  1.0000
  H   H1690     1.0  0.59577  0.09404  0.92050  1.0000
  C   C2120     1.0  0.66789  0.29041  0.95903  1.0000
  C   C2121     1.0  0.97780  0.36678  0.91632  1.0000
  H   H1691     1.0  0.55205  0.20252  0.97834  1.0000
  H   H1692     1.0  0.55356  0.21397  0.94623  1.0000
  H   H1693     1.0  0.55093  0.18513  0.92400  1.0000
  H   H1694     1.0  0.54704  0.14528  0.93393  1.0000
  H   H1695     1.0  0.93220  0.40409  0.88280  1.0000
  H   H1696     1.0  0.90289  0.37951  0.98346  1.0000
  C   C2122     1.0  0.82495  0.43520  0.97251  1.0000
  H   H1697     1.0  0.95083  0.47158  0.88845  1.0000
  H   H1698     1.0  0.54980  0.14928  0.82000  1.0000
  C   C2123     1.0  0.62134  0.28421  0.98446  1.0000
  C   C2124     1.0  0.94287  0.38904  0.75945  1.0000
  C   C2125     1.0  0.62057  0.27614  0.96743  1.0000
  C   C2126     1.0  0.94019  0.32741  0.79538  1.0000
  H   H1699     1.0  0.95615  0.40821  0.85353  1.0000
  H   H1700     1.0  0.66935  0.24498  0.97983  1.0000
  C   C2127     1.0  0.50559  0.12671  0.99241  1.0000
  H   H1701     1.0  0.56561  0.26202  0.97030  1.0000
  C   C2128     1.0  0.83447  0.32563  0.75607  1.0000
  C   C2129     1.0  0.66602  0.19683  0.95827  1.0000
  C   C2130     1.0  0.84761  0.43130  0.96682  1.0000
  H   H1702     1.0  0.63893  0.23547  0.93062  1.0000
  C   C2131     1.0  0.78080  0.47353  0.92733  1.0000
  C   C2132     1.0  0.70203  0.31760  0.96770  1.0000
  H   H1703     1.0  0.92254  0.32467  0.79877  1.0000
  C   C2133     1.0  0.64775  0.11504  0.75857  1.0000
  H   H1704     1.0  0.58613  0.13727  0.98079  1.0000
  C   C2134     1.0  0.64854  0.22903  0.94177  1.0000
  C   C2135     1.0  0.57512  0.04440  0.76778  1.0000
  C   C2136     1.0  0.54540  0.15864  0.88459  1.0000
  C   C2137     1.0  0.78695  0.48752  0.94038  1.0000
  C   C2138     1.0  0.54265  0.14189  0.89820  1.0000
  C   C2139     1.0  0.91635  0.35119  0.90550  1.0000
  H   H1705     1.0  0.55916  0.08526  0.79639  1.0000
  H   H1706     1.0  0.93278  0.44384  0.87166  1.0000
  C   C2140     1.0  0.87385  0.48033  0.91031  1.0000
  C   C2141     1.0  0.86501  0.46991  0.89629  1.0000
  C   C2142     1.0  0.87191  0.44749  0.89286  1.0000
  C   C2143     1.0  0.88786  0.43542  0.90318  1.0000
  C   C2144     1.0  0.89736  0.44591  0.91674  1.0000
  C   C2145     1.0  0.89043  0.46829  0.92028  1.0000
  C   C2146     1.0  0.90610  0.33876  0.89345  1.0000
  C   C2147     1.0  0.49724  0.05773  0.85516  1.0000
  C   C2148     1.0  0.98120  0.34489  0.92431  1.0000
  C   C2149     1.0  0.60227  0.01065  0.75114  1.0000
  P   P72       1.0  0.64586  0.27332  0.95297  1.0000
  H   H1707     1.0  0.97745  0.42646  0.77291  1.0000
  C   C2150     1.0  0.73248  0.41461  0.93482  1.0000
  C   C2151     1.0  0.76259  0.38515  0.93727  1.0000
  H   H1708     1.0  0.85804  0.47812  0.94622  1.0000
  H   H1709     1.0  0.85315  0.47907  0.88772  1.0000
  H   H1710     1.0  0.86508  0.43949  0.88202  1.0000
  H   H1711     1.0  0.89308  0.41807  0.90039  1.0000
  H   H1712     1.0  0.91017  0.43672  0.92445  1.0000
  H   H1713     1.0  0.89809  0.47631  0.93071  1.0000
  C   C2152     1.0  0.61808  0.30536  0.90903  1.0000
  H   H1714     1.0  0.64518  0.31984  0.96391  1.0000
  C   C2153     1.0  0.63891  0.01754  0.79780  1.0000
  H   H1715     1.0  0.94690  0.47831  0.83944  1.0000
  H   H1716     1.0  0.72506  0.28882  0.96257  1.0000
  H   H1717     1.0  0.71518  0.32775  0.97165  1.0000
  P   P73       1.0  0.51308  0.07623  0.78834  1.0000
  C   C2154     1.0  0.52545  0.04956  0.79738  1.0000
  C   C2155     1.0  0.51911  0.07855  0.76450  1.0000
  H   H1718     1.0  0.88370  0.44485  0.77823  1.0000
  H   H1719     1.0  0.90740  0.32744  0.86684  1.0000
  H   H1720     1.0  0.93395  0.34193  0.76928  1.0000
  H   H1721     1.0  0.76051  0.47199  0.90463  1.0000
  H   H1722     1.0  0.94469  0.38510  0.77352  1.0000
  C   C2156     1.0  0.53292  0.04788  0.81473  1.0000
  C   C2157     1.0  0.54230  0.02730  0.82191  1.0000
  H   H1723     1.0  0.52865  0.18326  0.86694  1.0000
  C   C2158     1.0  0.50557  0.06802  0.75325  1.0000
  H   H1724     1.0  0.82023  0.43517  0.98656  1.0000
  C   C2159     1.0  0.52449  0.09936  0.79863  1.0000
  C   C2160     1.0  0.54436  0.00822  0.81182  1.0000
  C   C2161     1.0  0.94688  0.37568  0.95230  1.0000
  C   C2162     1.0  0.54279  0.13560  0.81373  1.0000
  C   C2163     1.0  0.55701  0.11746  0.80790  1.0000
  C   C2164     1.0  0.54790  0.09931  0.80054  1.0000
  H   H1725     1.0  0.96175  0.36695  0.87890  1.0000
  P   P74       1.0  0.94937  0.37953  0.91499  1.0000
  C   C2165     1.0  0.54256  0.08205  0.95116  1.0000
  H   H1726     1.0  0.52153  0.03091  0.77407  1.0000
  C   C2166     1.0  0.94613  0.35927  0.88309  1.0000
  H   H1727     1.0  0.50447  0.11296  0.94927  1.0000
  H   H1728     1.0  0.98713  0.42024  0.87093  1.0000
  C   C2167     1.0  0.95994  0.42445  0.91597  1.0000
  C   C2168     1.0  0.59467  0.01099  0.84909  1.0000
  C   C2169     1.0  0.84104  0.46572  0.80589  1.0000
  H   H1729     1.0  0.90217  0.39017  0.92679  1.0000
  C   C2170     1.0  0.70759  0.29555  0.96262  1.0000
  C   C2171     1.0  0.95644  0.32130  0.80772  1.0000
  C   C2172     1.0  0.93610  0.36221  0.90022  1.0000
  H   H1730     1.0  0.49857  0.10449  0.89143  1.0000
  C   C2173     1.0  0.75555  0.47594  0.99411  1.0000
  H   H1731     1.0  0.84069  0.30992  0.76272  1.0000
  C   C2174     1.0  0.64163  0.00230  0.81266  1.0000
  C   C2175     1.0  0.56936  0.03711  0.75150  1.0000
  C   C2176     1.0  0.89750  0.34797  0.74684  1.0000
  H   H1732     1.0  0.71491  0.01693  0.75631  1.0000
  C   C2177     1.0  0.63259  0.10343  0.74965  1.0000
  H   H1733     1.0  0.50841  0.14932  0.81733  1.0000
  H   H1734     1.0  0.63533  0.04351  0.74648  1.0000
  H   H1735     1.0  0.99171  0.32004  0.81290  1.0000
  C   C2178     1.0  0.49862  0.11638  0.96277  1.0000
  H   H1736     1.0  0.49664  0.17896  0.96137  1.0000
  C   C2179     1.0  0.87382  0.39023  0.74649  1.0000
  C   C2180     1.0  0.69748  0.02236  0.75406  1.0000
  H   H1737     1.0  0.86433  0.40648  0.74625  1.0000
  C   C2181     1.0  0.97619  0.49447  0.78726  1.0000
  H   H1738     1.0  0.90624  0.33133  0.74704  1.0000
  C   C2182     1.0  0.85026  0.49460  0.94894  1.0000
  C   C2183     1.0  0.65250  0.03699  0.74861  1.0000
  Fe  Fe145     1.0  0.61903  0.86707  0.19054  1.0000
  S   S289      1.0  0.58367  0.88261  0.19278  1.0000
  S   S290      1.0  0.64141  0.86094  0.21423  1.0000
  Fe  Fe146     1.0  0.61630  0.85887  0.15008  1.0000
  S   S291      1.0  0.58083  0.87450  0.14980  1.0000
  S   S292      1.0  0.63438  0.84002  0.12678  1.0000
  Fe  Fe147     1.0  0.59232  0.90125  0.16664  1.0000
  S   S293      1.0  0.57529  0.93685  0.16434  1.0000
  Fe  Fe148     1.0  0.57536  0.85505  0.17591  1.0000
  S   S294      1.0  0.54505  0.83515  0.18249  1.0000
  S   S295      1.0  0.62876  0.88735  0.16506  1.0000
  S   S296      1.0  0.60999  0.83769  0.17551  1.0000
  Fe  Fe149     1.0  0.89125  0.59293  0.19165  1.0000
  S   S297      1.0  0.92612  0.57638  0.18858  1.0000
  S   S298      1.0  0.88005  0.60977  0.21756  1.0000
  Fe  Fe150     1.0  0.88020  0.58407  0.15258  1.0000
  S   S299      1.0  0.91482  0.56684  0.14710  1.0000
  S   S300      1.0  0.85084  0.58384  0.13363  1.0000
  Fe  Fe151     1.0  0.90996  0.55033  0.17441  1.0000
  S   S301      1.0  0.92268  0.51463  0.18080  1.0000
  Fe  Fe152     1.0  0.92838  0.59447  0.16172  1.0000
  S   S302      1.0  0.96110  0.61044  0.15257  1.0000
  S   S303      1.0  0.87457  0.56511  0.17943  1.0000
  S   S304      1.0  0.89418  0.61342  0.16533  1.0000
  Fe  Fe153     1.0  0.81230  0.59619  0.02802  1.0000
  S   S305      1.0  0.77757  0.58302  0.03014  1.0000
  S   S306      1.0  0.83558  0.60381  0.05011  1.0000
  C   C2184     1.0  0.50641  0.84028  0.03989  1.0000
  H   H1739     1.0  0.66839  0.76782  0.05031  1.0000
  Fe  Fe154     1.0  0.79109  0.55823  0.00981  1.0000
  C   C2185     1.0  0.52923  0.73972  0.01700  1.0000
  S   S307      1.0  0.80379  0.62184  0.00552  1.0000
  S   S308      1.0  0.82598  0.57068  0.00872  1.0000
  Fe  Fe155     1.0  0.61514  0.78529  0.02990  1.0000
  S   S309      1.0  0.61618  0.74760  0.03549  1.0000
  S   S310      1.0  0.60534  0.81147  0.05106  1.0000
  Fe  Fe156     1.0  0.64203  0.74463  0.01213  1.0000
  S   S311      1.0  0.67684  0.72380  0.01514  1.0000
  H   H1740     1.0  0.74031  0.90573  0.00107  1.0000
  H   H1741     1.0  0.60419  0.87445  0.24091  1.0000
  C   C2186     1.0  0.51931  0.85349  0.22518  1.0000
  S   S312      1.0  0.58763  0.78534  0.01066  1.0000
  H   H1742     1.0  0.57387  0.94259  0.20225  1.0000
  C   C2187     1.0  0.53711  0.83797  0.08515  1.0000
  H   H1743     1.0  0.62127  0.98335  0.21946  1.0000
  H   H1744     1.0  0.50745  0.76250  0.12198  1.0000
  C   C2188     1.0  0.68941  0.88224  0.00535  1.0000
  C   C2189     1.0  0.50166  0.79893  0.11861  1.0000
  C   C2190     1.0  0.86508  0.50853  0.08961  1.0000
  C   C2191     1.0  0.69274  0.69706  0.01179  1.0000
  C   C2192     1.0  0.71557  0.69423  0.01633  1.0000
  C   C2193     1.0  0.72880  0.67360  0.01391  1.0000
  C   C2194     1.0  0.70617  0.89653  0.99884  1.0000
  H   H1745     1.0  0.85558  0.55366  0.24387  1.0000
  H   H1746     1.0  0.57673  0.79265  0.09616  1.0000
  C   C2195     1.0  0.84669  0.49801  0.24124  1.0000
  C   C2196     1.0  0.52548  0.75736  0.00412  1.0000
  H   H1747     1.0  0.50427  0.89613  0.14843  1.0000
  H   H1748     1.0  0.97146  0.56913  0.17401  1.0000
  C   C2197     1.0  0.84726  0.58888  0.11024  1.0000
  C   C2198     1.0  0.82678  0.58382  0.10326  1.0000
  C   C2199     1.0  0.82298  0.58784  0.08495  1.0000
  C   C2200     1.0  0.83952  0.59731  0.07330  1.0000
  C   C2201     1.0  0.85996  0.60233  0.08028  1.0000
  C   C2202     1.0  0.86389  0.59802  0.09852  1.0000
  H   H1749     1.0  0.81372  0.57677  0.11211  1.0000
  H   H1750     1.0  0.80712  0.58399  0.07993  1.0000
  H   H1751     1.0  0.87290  0.60970  0.07150  1.0000
  H   H1752     1.0  0.87968  0.60211  0.10356  1.0000
  H   H1753     1.0  0.53964  0.76616  0.99811  1.0000
  H   H1754     1.0  0.88683  0.51980  0.15631  1.0000
  C   C2203     1.0  0.56403  0.93902  0.23037  1.0000
  H   H1755     1.0  0.64357  0.88240  0.09481  1.0000
  C   C2204     1.0  0.68630  0.70261  0.07508  1.0000
  C   C2205     1.0  0.58959  0.96186  0.16544  1.0000
  C   C2206     1.0  0.57688  0.98251  0.16781  1.0000
  H   H1756     1.0  0.67677  0.68717  0.05180  1.0000
  S   S313      1.0  0.79459  0.51988  0.01610  1.0000
  C   C2207     1.0  0.62385  0.98218  0.16316  1.0000
  C   C2208     1.0  0.61314  0.96173  0.16339  1.0000
  C   C2209     1.0  0.91076  0.49534  0.16830  1.0000
  C   C2210     1.0  0.51458  0.84009  0.24079  1.0000
  C   C2211     1.0  0.72737  0.89458  0.00608  1.0000
  H   H1757     1.0  0.62306  0.94596  0.16150  1.0000
  C   C2212     1.0  0.52240  0.84711  0.17061  1.0000
  C   C2213     1.0  0.52262  0.86931  0.16319  1.0000
  C   C2214     1.0  0.56175  0.93608  0.21228  1.0000
  H   H1758     1.0  0.54802  0.81581  0.21931  1.0000
  H   H1759     1.0  0.53671  0.87934  0.16492  1.0000
  C   C2215     1.0  0.72116  0.58161  0.05859  1.0000
  C   C2216     1.0  0.62426  0.83082  0.10672  1.0000
  C   C2217     1.0  0.63568  0.81214  0.09859  1.0000
  C   C2218     1.0  0.62977  0.80552  0.08188  1.0000
  C   C2219     1.0  0.61264  0.81785  0.07279  1.0000
  C   C2220     1.0  0.60099  0.83630  0.08104  1.0000
  C   C2221     1.0  0.60659  0.84266  0.09790  1.0000
  H   H1760     1.0  0.64944  0.80288  0.10518  1.0000
  H   H1761     1.0  0.63877  0.79113  0.07594  1.0000
  H   H1762     1.0  0.58777  0.84603  0.07418  1.0000
  H   H1763     1.0  0.59774  0.85718  0.10380  1.0000
  C   C2222     1.0  0.53934  0.87746  0.09110  1.0000
  S   S314      1.0  0.55689  0.73054  0.02352  1.0000
  H   H1764     1.0  0.56596  0.74390  0.05864  1.0000
  H   H1765     1.0  0.63030  0.90183  0.06689  1.0000
  H   H1766     1.0  0.64300  0.88682  0.03781  1.0000
  H   H1767     1.0  0.53661  0.85616  0.02984  1.0000
  C   C2223     1.0  0.49704  0.81997  0.04613  1.0000
  H   H1768     1.0  0.72297  0.59687  0.03196  1.0000
  H   H1769     1.0  0.50908  0.77417  0.08831  1.0000
  C   C2224     1.0  0.97948  0.51280  0.19275  1.0000
  H   H1770     1.0  0.54203  0.89475  0.08640  1.0000
  C   C2225     1.0  0.81750  0.52034  0.08049  1.0000
  C   C2226     1.0  0.53348  0.83254  0.10342  1.0000
  H   H1771     1.0  0.53813  0.82494  0.07563  1.0000
  H   H1772     1.0  0.58427  0.80714  0.20292  1.0000
  H   H1773     1.0  0.93596  0.51695  0.21684  1.0000
  C   C2227     1.0  0.98696  0.51803  0.20912  1.0000
  C   C2228     1.0  0.57991  0.98397  0.23544  1.0000
  C   C2229     1.0  0.56892  0.99364  0.22055  1.0000
  C   C2230     1.0  0.54295  0.82024  0.03468  1.0000
  H   H1774     1.0  0.72313  0.70817  0.02176  1.0000
  H   H1775     1.0  0.50882  0.98721  0.21571  1.0000
  C   C2231     1.0  0.85806  0.54124  0.05169  1.0000
  H   H1776     1.0  0.50348  0.95495  0.19115  1.0000
  H   H1777     1.0  0.53529  0.88527  0.11872  1.0000
  H   H1778     1.0  0.51328  0.71461  0.03440  1.0000
  H   H1779     1.0  0.97840  0.62561  0.11616  1.0000
  C   C2232     1.0  0.80968  0.51960  0.09844  1.0000
  P   P75       1.0  0.53085  0.80363  0.11176  1.0000
  H   H1780     1.0  0.67264  0.71573  0.07458  1.0000
  C   C2233     1.0  0.89984  0.51541  0.11189  1.0000
  H   H1781     1.0  0.68892  0.64395  0.99735  1.0000
  S   S315      1.0  0.64227  0.78311  0.00735  1.0000
  C   C2234     1.0  0.78352  0.54326  0.07293  1.0000
  H   H1782     1.0  0.94338  0.52244  0.14156  1.0000
  C   C2235     1.0  0.98649  0.59828  0.16124  1.0000
  C   C2236     1.0  0.68852  0.68640  0.06233  1.0000
  C   C2237     1.0  0.98688  0.57760  0.17117  1.0000
  H   H1783     1.0  0.67295  0.88440  0.99982  1.0000
  C   C2238     1.0  0.54006  0.86039  0.07904  1.0000
  C   C2239     1.0  0.60443  0.81217  0.22496  1.0000
  C   C2240     1.0  0.86419  0.52797  0.09945  1.0000
  H   H1784     1.0  0.74434  0.63720  0.14079  1.0000
  H   H1785     1.0  0.65319  0.97579  0.19791  1.0000
  H   H1786     1.0  0.85146  0.52553  0.22160  1.0000
  H   H1787     1.0  0.76048  0.55220  0.09494  1.0000
  H   H1788     1.0  0.64206  0.98201  0.16107  1.0000
  C   C2241     1.0  0.56508  0.78265  0.09014  1.0000
  C   C2242     1.0  0.52935  0.84044  0.03443  1.0000
  H   H1789     1.0  0.88075  0.54605  0.00925  1.0000
  H   H1790     1.0  0.77340  0.55237  0.06303  1.0000
  H   H1791     1.0  0.70042  0.71499  0.09791  1.0000
  C   C2243     1.0  0.88139  0.53125  0.11067  1.0000
  C   C2244     1.0  0.79215  0.63397  0.11363  1.0000
  C   C2245     1.0  0.77837  0.63335  0.12929  1.0000
  C   C2246     1.0  0.75501  0.63791  0.12862  1.0000
  C   C2247     1.0  0.74541  0.64308  0.11227  1.0000
  C   C2248     1.0  0.75917  0.64411  0.09642  1.0000
  C   C2249     1.0  0.78264  0.63923  0.09726  1.0000
  P   P76       1.0  0.74641  0.64870  0.07516  1.0000
  C   C2250     1.0  0.73768  0.62193  0.06866  1.0000
  C   C2251     1.0  0.72196  0.66879  0.07603  1.0000
  C   C2252     1.0  0.70621  0.66955  0.06279  1.0000
  C   C2253     1.0  0.51064  0.79962  0.04566  1.0000
  C   C2254     1.0  0.89308  0.50221  0.15736  1.0000
  H   H1792     1.0  0.71474  0.56613  0.05462  1.0000
  C   C2255     1.0  0.71988  0.68550  0.08857  1.0000
  C   C2256     1.0  0.73296  0.60440  0.08146  1.0000
  C   C2257     1.0  0.76651  0.66027  0.05862  1.0000
  C   C2258     1.0  0.78474  0.64648  0.05170  1.0000
  C   C2259     1.0  0.80133  0.65591  0.04013  1.0000
  C   C2260     1.0  0.79931  0.67883  0.03465  1.0000
  C   C2261     1.0  0.78084  0.69252  0.04098  1.0000
  C   C2262     1.0  0.76462  0.68338  0.05305  1.0000
  H   H1793     1.0  0.81026  0.63009  0.11414  1.0000
  H   H1794     1.0  0.78587  0.62913  0.14192  1.0000
  C   C2263     1.0  0.72479  0.58432  0.07641  1.0000
  H   H1795     1.0  0.72721  0.64591  0.11196  1.0000
  H   H1796     1.0  0.79382  0.63915  0.08543  1.0000
  H   H1797     1.0  0.54347  0.86441  0.06499  1.0000
  H   H1798     1.0  0.96706  0.55508  0.14254  1.0000
  H   H1799     1.0  0.73238  0.68611  0.09835  1.0000
  H   H1800     1.0  0.73533  0.60616  0.09537  1.0000
  H   H1801     1.0  0.78662  0.62860  0.05568  1.0000
  H   H1802     1.0  0.81596  0.64545  0.03554  1.0000
  H   H1803     1.0  0.81218  0.68595  0.02561  1.0000
  H   H1804     1.0  0.77923  0.71031  0.03674  1.0000
  H   H1805     1.0  0.75077  0.69454  0.05799  1.0000
  C   C2264     1.0  0.54821  0.79911  0.13073  1.0000
  C   C2265     1.0  0.54054  0.78745  0.14648  1.0000
  C   C2266     1.0  0.55437  0.78408  0.16089  1.0000
  C   C2267     1.0  0.57591  0.79233  0.15972  1.0000
  C   C2268     1.0  0.58353  0.80421  0.14424  1.0000
  C   C2269     1.0  0.56968  0.80781  0.12991  1.0000
  H   H1806     1.0  0.52383  0.78129  0.14796  1.0000
  H   H1807     1.0  0.54819  0.77559  0.17315  1.0000
  H   H1808     1.0  0.58648  0.79006  0.17096  1.0000
  H   H1809     1.0  0.60009  0.81097  0.14340  1.0000
  H   H1810     1.0  0.57573  0.81766  0.11828  1.0000
  C   C2270     1.0  0.53350  0.79982  0.03992  1.0000
  H   H1811     1.0  0.53013  0.84588  0.12961  1.0000
  C   C2271     1.0  0.77619  0.54305  0.09089  1.0000
  H   H1812     1.0  0.62046  0.80876  0.21759  1.0000
  H   H1813     1.0  0.98451  0.61310  0.24314  1.0000
  C   C2272     1.0  0.50364  0.83462  0.16899  1.0000
  C   C2273     1.0  0.52831  0.91541  0.21953  1.0000
  H   H1814     1.0  0.53223  0.97497  0.24097  1.0000
  C   C2274     1.0  0.50345  0.76306  0.99849  1.0000
  C   C2275     1.0  0.69659  0.65796  0.00257  1.0000
  H   H1815     1.0  0.88039  0.54618  0.11839  1.0000
  H   H1816     1.0  0.50615  0.86945  0.20121  1.0000
  H   H1817     1.0  0.56078  0.82033  0.03059  1.0000
  H   H1818     1.0  0.74812  0.87713  0.02570  1.0000
  H   H1819     1.0  0.55863  0.98273  0.16930  1.0000
  C   C2276     1.0  0.70196  0.70215  0.08821  1.0000
  C   C2277     1.0  0.54396  0.92434  0.20691  1.0000
  C   C2278     1.0  0.53558  0.87215  0.10928  1.0000
  C   C2279     1.0  0.60411  0.81754  0.24273  1.0000
  H   H1820     1.0  0.50118  0.92207  0.17283  1.0000
  C   C2280     1.0  0.92681  0.50695  0.22703  1.0000
  H   H1821     1.0  0.72101  0.57095  0.08634  1.0000
  C   C2281     1.0  0.62508  0.96620  0.21553  1.0000
  C   C2282     1.0  0.61173  0.94848  0.22207  1.0000
  C   C2283     1.0  0.85045  0.52039  0.23566  1.0000
  H   H1822     1.0  0.54391  0.78406  0.03931  1.0000
  H   H1823     1.0  0.60757  0.91248  0.22144  1.0000
  P   P77       1.0  0.58740  0.95385  0.23724  1.0000
  H   H1824     1.0  0.96827  0.54802  0.23207  1.0000
  Fe  Fe157     1.0  0.76961  0.60739  0.00649  1.0000
  H   H1825     1.0  0.85041  0.54084  0.09834  1.0000
  H   H1826     1.0  0.67351  0.84862  0.23968  1.0000
  C   C2284     1.0  0.53270  0.84979  0.11543  1.0000
  C   C2285     1.0  0.73434  0.61887  0.05077  1.0000
  C   C2286     1.0  0.51056  0.72841  0.02456  1.0000
  C   C2287     1.0  0.60950  0.84688  0.00841  1.0000
  C   C2288     1.0  0.63587  0.92245  0.20449  1.0000
  C   C2289     1.0  0.64877  0.94017  0.19782  1.0000
  H   H1827     1.0  0.59165  0.76708  0.07334  1.0000
  H   H1828     1.0  0.85288  0.55179  0.06265  1.0000
  C   C2290     1.0  0.52720  0.77220  0.08581  1.0000
  C   C2291     1.0  0.61742  0.92650  0.21657  1.0000
  C   C2292     1.0  0.72579  0.59894  0.04581  1.0000
  C   C2293     1.0  0.55921  0.75515  0.06876  1.0000
  H   H1829     1.0  0.73803  0.63204  0.04065  1.0000
  H   H1830     1.0  0.94411  0.62243  0.23914  1.0000
  H   H1831     1.0  0.70781  0.65767  0.05241  1.0000
  C   C2294     1.0  0.85526  0.51789  0.05318  1.0000
  H   H1832     1.0  0.66996  0.84841  0.09359  1.0000
  C   C2295     1.0  0.96161  0.51964  0.14165  1.0000
  C   C2296     1.0  0.78425  0.49546  0.00772  1.0000
  C   C2297     1.0  0.58411  0.81146  0.21667  1.0000
  C   C2298     1.0  0.57370  0.76808  0.07713  1.0000
  H   H1833     1.0  0.64013  0.90555  0.20016  1.0000
  H   H1834     1.0  0.66279  0.93696  0.18821  1.0000
  C   C2299     1.0  0.54178  0.78450  0.09493  1.0000
  Fe  Fe158     1.0  0.58952  0.74788  0.01535  1.0000
  C   C2300     1.0  0.62695  0.84871  0.01974  1.0000
  H   H1835     1.0  0.51472  0.90611  0.21531  1.0000
  H   H1836     1.0  0.53631  0.85849  0.22165  1.0000
  C   C2301     1.0  0.78921  0.53115  0.10363  1.0000
  C   C2302     1.0  0.64959  0.84739  0.01311  1.0000
  H   H1837     1.0  0.87647  0.50460  0.01180  1.0000
  H   H1838     1.0  0.74623  0.67195  0.01744  1.0000
  C   C2303     1.0  0.71945  0.65521  0.00690  1.0000
  H   H1839     1.0  0.52477  0.74766  0.06607  1.0000
  H   H1840     1.0  0.80949  0.53232  0.05370  1.0000
  C   C2304     1.0  0.64340  0.96201  0.20337  1.0000
  C   C2305     1.0  0.50462  0.99380  0.22868  1.0000
  H   H1841     1.0  0.78360  0.53106  0.11757  1.0000
  H   H1842     1.0  0.86924  0.56939  0.03487  1.0000
  P   P78       1.0  0.84389  0.50538  0.07391  1.0000
  C   C2306     1.0  0.56352  0.81676  0.22598  1.0000
  H   H1843     1.0  0.50347  0.81741  0.17462  1.0000
  P   P79       1.0  0.67239  0.84738  0.02786  1.0000
  C   C2307     1.0  0.68316  0.81821  0.03028  1.0000
  C   C2308     1.0  0.69391  0.86561  0.01896  1.0000
  C   C2309     1.0  0.71508  0.86407  0.02642  1.0000
  C   C2310     1.0  0.73179  0.87843  0.01993  1.0000
  C   C2311     1.0  0.87149  0.51478  0.02299  1.0000
  C   C2312     1.0  0.87401  0.53809  0.02157  1.0000
  C   C2313     1.0  0.50413  0.87892  0.15406  1.0000
  C   C2314     1.0  0.67083  0.80270  0.04100  1.0000
  C   C2315     1.0  0.67828  0.77980  0.04233  1.0000
  C   C2316     1.0  0.69793  0.77217  0.03274  1.0000
  C   C2317     1.0  0.71009  0.78743  0.02176  1.0000
  C   C2318     1.0  0.70269  0.81037  0.02043  1.0000
  C   C2319     1.0  0.66313  0.85829  0.04913  1.0000
  C   C2320     1.0  0.67117  0.84792  0.06497  1.0000
  C   C2321     1.0  0.66423  0.85677  0.08132  1.0000
  C   C2322     1.0  0.64935  0.87604  0.08202  1.0000
  C   C2323     1.0  0.64176  0.88683  0.06631  1.0000
  C   C2324     1.0  0.64884  0.87817  0.04989  1.0000
  C   C2325     1.0  0.63894  0.86162  0.23790  1.0000
  C   C2326     1.0  0.98806  0.50151  0.22324  1.0000
  H   H1844     1.0  0.99206  0.53493  0.21065  1.0000
  H   H1845     1.0  0.91298  0.51787  0.12077  1.0000
  H   H1846     1.0  0.62268  0.85046  0.03374  1.0000
  H   H1847     1.0  0.71860  0.85182  0.03732  1.0000
  C   C2327     1.0  0.97494  0.53801  0.14233  1.0000
  C   C2328     1.0  0.68340  0.67860  0.00491  1.0000
  H   H1848     1.0  0.54263  0.92186  0.19289  1.0000
  H   H1849     1.0  0.66594  0.68019  0.00142  1.0000
  H   H1850     1.0  0.65513  0.80827  0.04796  1.0000
  C   C2329     1.0  0.53596  0.75726  0.07304  1.0000
  H   H1851     1.0  0.70333  0.75430  0.03341  1.0000
  S   S316      1.0  0.73524  0.62851  0.00330  1.0000
  C   C2330     1.0  0.80411  0.53195  0.06771  1.0000
  H   H1852     1.0  0.68271  0.83299  0.06482  1.0000
  C   C2331     1.0  0.86749  0.55126  0.03597  1.0000
  H   H1853     1.0  0.59213  0.84727  0.01374  1.0000
  H   H1854     1.0  0.97783  0.52575  0.18205  1.0000
  C   C2332     1.0  0.53019  0.91850  0.23754  1.0000
  C   C2333     1.0  0.86242  0.50463  0.03883  1.0000
  C   C2334     1.0  0.50221  0.85988  0.21357  1.0000
  H   H1855     1.0  0.71192  0.82178  0.01142  1.0000
  H   H1856     1.0  0.89892  0.56743  0.23515  1.0000
  H   H1857     1.0  0.72495  0.78132  0.01396  1.0000
  C   C2335     1.0  0.49512  0.77682  0.12282  1.0000
  H   H1858     1.0  0.50367  0.78351  0.04936  1.0000
  H   H1859     1.0  0.56453  0.98324  0.21015  1.0000
  C   C2336     1.0  0.88323  0.60033  0.24020  1.0000
  C   C2337     1.0  0.97167  0.49761  0.14138  1.0000
  H   H1860     1.0  0.49593  0.85598  0.03924  1.0000
  C   C2338     1.0  0.56315  0.82360  0.24348  1.0000
  C   C2339     1.0  0.90122  0.49634  0.10178  1.0000
  H   H1861     1.0  0.98727  0.58429  0.11805  1.0000
  H   H1862     1.0  0.92237  0.53371  0.24509  1.0000
  C   C2340     1.0  0.91926  0.51641  0.24297  1.0000
  H   H1863     1.0  0.81958  0.51038  0.10845  1.0000
  C   C2341     1.0  0.54793  0.93028  0.24295  1.0000
  C   C2342     1.0  0.76469  0.49626  0.99819  1.0000
  C   C2343     1.0  0.51794  0.98701  0.24291  1.0000
  C   C2344     1.0  0.89257  0.57872  0.24530  1.0000
  Fe  Fe159     1.0  0.58048  0.86148  0.35195  1.0000
  S   S317      1.0  0.61630  0.84561  0.34980  1.0000
  S   S318      1.0  0.54901  0.84229  0.35874  1.0000
  Fe  Fe160     1.0  0.59579  0.90842  0.34383  1.0000
  S   S319      1.0  0.63221  0.89646  0.34072  1.0000
  S   S320      1.0  0.58236  0.94474  0.34192  1.0000
  Fe  Fe161     1.0  0.61993  0.86906  0.32507  1.0000
  S   S321      1.0  0.63974  0.85914  0.29938  1.0000
  Fe  Fe162     1.0  0.62545  0.87450  0.36577  1.0000
  S   S322      1.0  0.65153  0.87833  0.38671  1.0000
  S   S323      1.0  0.58380  0.88288  0.32646  1.0000
  S   S324      1.0  0.58933  0.88837  0.36949  1.0000
  Fe  Fe163     1.0  0.93428  0.59316  0.34060  1.0000
  S   S325      1.0  0.89956  0.60981  0.33794  1.0000
  S   S326      1.0  0.96529  0.61195  0.33523  1.0000
  Fe  Fe164     1.0  0.91793  0.54695  0.35102  1.0000
  S   S327      1.0  0.88156  0.55997  0.34985  1.0000
  S   S328      1.0  0.93355  0.51116  0.35501  1.0000
  Fe  Fe165     1.0  0.89300  0.57851  0.32408  1.0000
  S   S329      1.0  0.87574  0.57356  0.29848  1.0000
  Fe  Fe166     1.0  0.89176  0.59017  0.36399  1.0000
  S   S330      1.0  0.87160  0.60860  0.38647  1.0000
  S   S331      1.0  0.92863  0.56379  0.32483  1.0000
  S   S332      1.0  0.92711  0.57539  0.36714  1.0000
  Fe  Fe167     1.0  0.89000  0.66185  0.48431  1.0000
  S   S333      1.0  0.88985  0.70009  0.48250  1.0000
  S   S334      1.0  0.90020  0.63659  0.46252  1.0000
  H   H1864     1.0  0.93811  0.57241  0.28072  1.0000
  S   S335      1.0  0.73018  0.86403  0.48270  1.0000
  S   S336      1.0  0.66967  0.84449  0.46761  1.0000
  H   H1865     1.0  0.68510  0.92348  0.46913  1.0000
  C   C2345     1.0  0.85209  0.52967  0.26636  1.0000
  H   H1866     1.0  0.51293  0.94667  0.30403  1.0000
  H   H1867     1.0  0.53756  0.97877  0.36401  1.0000
  H   H1868     1.0  0.60477  0.92300  0.30850  1.0000
  H   H1869     1.0  0.65695  0.97353  0.32616  1.0000
  C   C2346     1.0  0.88291  0.58538  0.27677  1.0000
  C   C2347     1.0  0.87465  0.60734  0.27166  1.0000
  C   C2348     1.0  0.97851  0.52844  0.25588  1.0000
  C   C2349     1.0  0.58356  0.82319  0.25201  1.0000
  C   C2350     1.0  0.89216  0.57123  0.26349  1.0000
  H   H1870     1.0  0.86682  0.61825  0.28160  1.0000
  H   H1871     1.0  0.89793  0.55404  0.26725  1.0000
  H   H1872     1.0  0.50493  0.90424  0.37329  1.0000
  C   C2351     1.0  0.57929  0.95231  0.27417  1.0000
  C   C2352     1.0  0.96269  0.65165  0.37428  1.0000
  C   C2353     1.0  0.88069  0.61709  0.40708  1.0000
  C   C2354     1.0  0.86737  0.63366  0.41636  1.0000
  C   C2355     1.0  0.87338  0.64039  0.43300  1.0000
  C   C2356     1.0  0.89257  0.63020  0.44088  1.0000
  C   C2357     1.0  0.90595  0.61366  0.43157  1.0000
  C   C2358     1.0  0.90022  0.60731  0.41474  1.0000
  H   H1873     1.0  0.85220  0.64131  0.41064  1.0000
  H   H1874     1.0  0.86284  0.65305  0.43994  1.0000
  H   H1875     1.0  0.92081  0.60558  0.43747  1.0000
  H   H1876     1.0  0.91070  0.59458  0.40785  1.0000
  H   H1877     1.0  0.50590  0.75589  0.26654  1.0000
  H   H1878     1.0  0.57984  0.98957  0.35346  1.0000
  H   H1879     1.0  0.53080  0.94963  0.40857  1.0000
  H   H1880     1.0  0.88529  0.50706  0.35291  1.0000
  H   H1881     1.0  0.77394  0.77814  0.46997  1.0000
  C   C2359     1.0  0.63813  0.86045  0.27576  1.0000
  C   C2360     1.0  0.65770  0.85355  0.26568  1.0000
  P   P80       1.0  0.84737  0.49860  0.29550  1.0000
  C   C2361     1.0  0.81836  0.51804  0.44687  1.0000
  C   C2362     1.0  0.61867  0.86796  0.26675  1.0000
  H   H1882     1.0  0.67282  0.84764  0.27235  1.0000
  H   H1883     1.0  0.60346  0.87298  0.27444  1.0000
  C   C2363     1.0  0.52305  0.85647  0.35312  1.0000
  C   C2364     1.0  0.52258  0.87783  0.34425  1.0000
  C   C2365     1.0  0.66941  0.99228  0.39777  1.0000
  C   C2366     1.0  0.97340  0.61577  0.25479  1.0000
  H   H1884     1.0  0.69671  0.97190  0.42555  1.0000
  H   H1885     1.0  0.53811  0.88603  0.34109  1.0000
  C   C2367     1.0  0.76042  0.78976  0.46519  1.0000
  H   H1886     1.0  0.71694  0.98678  0.30874  1.0000
  C   C2368     1.0  0.66473  0.85446  0.44519  1.0000
  C   C2369     1.0  0.64721  0.84573  0.43645  1.0000
  C   C2370     1.0  0.64268  0.85297  0.41873  1.0000
  C   C2371     1.0  0.65577  0.86900  0.40937  1.0000
  C   C2372     1.0  0.67332  0.87770  0.41810  1.0000
  C   C2373     1.0  0.67775  0.87056  0.43586  1.0000
  H   H1887     1.0  0.63704  0.83322  0.44346  1.0000
  H   H1888     1.0  0.62923  0.84596  0.41226  1.0000
  H   H1889     1.0  0.68355  0.89008  0.41106  1.0000
  H   H1890     1.0  0.69116  0.87755  0.44238  1.0000
  C   C2374     1.0  0.64022  0.97691  0.33234  1.0000
  C   C2375     1.0  0.62473  0.95995  0.33387  1.0000
  C   C2376     1.0  0.60287  0.96461  0.34137  1.0000
  P   P81       1.0  0.83759  0.54326  0.41789  1.0000
  H   H1891     1.0  0.91802  0.53953  0.39621  1.0000
  H   H1892     1.0  0.62951  0.94362  0.32872  1.0000
  H   H1893     1.0  0.92255  0.51744  0.31267  1.0000
  C   C2377     1.0  0.91677  0.65748  0.38471  1.0000
  C   C2378     1.0  0.92365  0.65844  0.36668  1.0000
  C   C2379     1.0  0.94660  0.65569  0.36149  1.0000
  C   C2380     1.0  0.72112  0.97557  0.49405  1.0000
  C   C2381     1.0  0.95602  0.65123  0.39251  1.0000
  C   C2382     1.0  0.93282  0.65391  0.39756  1.0000
  C   C2383     1.0  0.85845  0.59121  0.45902  1.0000
  C   C2384     1.0  0.97119  0.66212  0.42771  1.0000
  C   C2385     1.0  0.90710  0.50376  0.25595  1.0000
  H   H1894     1.0  0.99018  0.54819  0.32207  1.0000
  H   H1895     1.0  0.56769  0.96337  0.38929  1.0000
  C   C2386     1.0  0.97067  0.59914  0.40305  1.0000
  H   H1896     1.0  0.80383  0.49816  0.46900  1.0000
  H   H1897     1.0  0.88241  0.55919  0.40746  1.0000
  H   H1898     1.0  0.54891  0.93247  0.25694  1.0000
  H   H1899     1.0  0.85464  0.54212  0.27586  1.0000
  C   C2387     1.0  0.96129  0.69143  0.45554  1.0000
  C   C2388     1.0  0.94686  0.67449  0.45294  1.0000
  C   C2389     1.0  0.95194  0.65970  0.43930  1.0000
  C   C2390     1.0  0.53611  0.80331  0.28684  1.0000
  H   H1900     1.0  0.53825  0.93590  0.35607  1.0000
  C   C2391     1.0  0.54293  0.89331  0.40503  1.0000
  H   H1901     1.0  0.52323  0.98987  0.27044  1.0000
  H   H1902     1.0  0.71939  0.90546  0.38041  1.0000
  H   H1903     1.0  0.55375  0.87944  0.41050  1.0000
  H   H1904     1.0  0.89889  0.65896  0.38873  1.0000
  H   H1905     1.0  0.91116  0.66077  0.35674  1.0000
  H   H1906     1.0  0.97286  0.62016  0.29950  1.0000
  H   H1907     1.0  0.52858  0.87266  0.38677  1.0000
  H   H1908     1.0  0.92678  0.65263  0.41131  1.0000
  H   H1909     1.0  0.70621  0.80825  0.47658  1.0000
  H   H1910     1.0  0.96558  0.56461  0.39806  1.0000
  C   C2392     1.0  0.61138  0.99471  0.29748  1.0000
  H   H1911     1.0  0.97216  0.57846  0.45275  1.0000
  C   C2393     1.0  0.52501  0.85838  0.28380  1.0000
  H   H1912     1.0  0.71192  0.97624  0.48209  1.0000
  H   H1913     1.0  0.83259  0.58914  0.36121  1.0000
  H   H1914     1.0  0.95730  0.70287  0.46614  1.0000
  H   H1915     1.0  0.93172  0.67273  0.46157  1.0000
  H   H1916     1.0  0.94077  0.64635  0.43793  1.0000
  H   H1917     1.0  0.97750  0.61849  0.44392  1.0000
  H   H1918     1.0  0.85254  0.56484  0.38345  1.0000
  C   C2394     1.0  0.52463  0.94191  0.34772  1.0000
  C   C2395     1.0  0.52793  0.94073  0.32928  1.0000
  H   H1919     1.0  0.62598  0.96515  0.28477  1.0000
  C   C2396     1.0  0.80835  0.55366  0.31267  1.0000
  C   C2397     1.0  0.81436  0.55463  0.33020  1.0000
  C   C2398     1.0  0.83014  0.53847  0.33724  1.0000
  C   C2399     1.0  0.84031  0.52164  0.32663  1.0000
  C   C2400     1.0  0.83488  0.52096  0.30885  1.0000
  C   C2401     1.0  0.81829  0.53667  0.30210  1.0000
  C   C2402     1.0  0.91263  0.50427  0.30851  1.0000
  C   C2403     1.0  0.50196  0.88862  0.33930  1.0000
  H   H1920     1.0  0.59672  0.99151  0.25885  1.0000
  C   C2404     1.0  0.82309  0.58187  0.37264  1.0000
  C   C2405     1.0  0.59663  0.98602  0.34752  1.0000
  C   C2406     1.0  0.97626  0.52751  0.27457  1.0000
  H   H1921     1.0  0.53551  0.78195  0.31098  1.0000
  H   H1922     1.0  0.93222  0.62876  0.29539  1.0000
  C   C2407     1.0  0.59888  0.94322  0.39193  1.0000
  H   H1923     1.0  0.98153  0.57975  0.30050  1.0000
  C   C2408     1.0  0.51950  0.76700  0.29008  1.0000
  H   H1924     1.0  0.49807  0.81060  0.32704  1.0000
  H   H1925     1.0  0.73674  0.78069  0.48681  1.0000
  H   H1926     1.0  0.59866  0.98572  0.30539  1.0000
  H   H1927     1.0  0.51196  0.84687  0.28752  1.0000
  C   C2409     1.0  0.51940  0.78865  0.26179  1.0000
  C   C2410     1.0  0.95241  0.56202  0.25532  1.0000
  C   C2411     1.0  0.97473  0.60696  0.43381  1.0000
  H   H1928     1.0  0.65319  0.90968  0.45410  1.0000
  C   C2412     1.0  0.65811  0.85416  0.24706  1.0000
  H   H1929     1.0  0.80680  0.56793  0.33829  1.0000
  H   H1930     1.0  0.83472  0.53912  0.35086  1.0000
  H   H1931     1.0  0.67573  0.99049  0.36922  1.0000
  S   S337      1.0  0.72489  0.92945  0.49059  1.0000
  C   C2413     1.0  0.96144  0.54300  0.28343  1.0000
  C   C2414     1.0  0.54341  0.91502  0.41114  1.0000
  C   C2415     1.0  0.98101  0.69338  0.44465  1.0000
  C   C2416     1.0  0.88992  0.50922  0.30498  1.0000
  H   H1932     1.0  0.88275  0.52641  0.30596  1.0000
  H   H1933     1.0  0.70165  0.93125  0.40233  1.0000
  C   C2417     1.0  0.53072  0.78392  0.29730  1.0000
  C   C2418     1.0  0.83476  0.58386  0.43529  1.0000
  C   C2419     1.0  0.50200  0.98954  0.40023  1.0000
  H   H1934     1.0  0.64254  0.92697  0.42512  1.0000
  C   C2420     1.0  0.61910  0.86874  0.24783  1.0000
  H   H1935     1.0  0.65255  0.95595  0.36473  1.0000
  C   C2421     1.0  0.98690  0.59796  0.34711  1.0000
  H   H1936     1.0  0.57156  0.90004  0.27098  1.0000
  C   C2422     1.0  0.96664  0.61978  0.28639  1.0000
  C   C2423     1.0  0.79926  0.56468  0.40301  1.0000
  H   H1937     1.0  0.80692  0.51350  0.40355  1.0000
  H   H1938     1.0  0.65540  0.98522  0.26732  1.0000
  H   H1939     1.0  0.90121  0.51127  0.26825  1.0000
  C   C2424     1.0  0.51046  0.94794  0.31827  1.0000
  C   C2425     1.0  0.59449  0.98346  0.39594  1.0000
  H   H1940     1.0  0.87163  0.53853  0.44454  1.0000
  H   H1941     1.0  0.95939  0.54179  0.29781  1.0000
  C   C2426     1.0  0.98595  0.67886  0.43079  1.0000
  C   C2427     1.0  0.87484  0.61473  0.25355  1.0000
  H   H1942     1.0  0.56627  0.86908  0.25160  1.0000
  Fe  Fe168     1.0  0.69439  0.85421  0.48793  1.0000
  H   H1943     1.0  0.50280  0.82987  0.36454  1.0000
  C   C2428     1.0  0.96847  0.56893  0.42603  1.0000
  H   H1944     1.0  0.96786  0.65980  0.48494  1.0000
  H   H1945     1.0  0.70389  0.90464  0.35065  1.0000
  H   H1946     1.0  0.86752  0.63144  0.24979  1.0000
  C   C2429     1.0  0.90296  0.53026  0.39874  1.0000
  C   C2430     1.0  0.52876  0.88950  0.39159  1.0000
  C   C2431     1.0  0.96805  0.57637  0.40812  1.0000
  C   C2432     1.0  0.98160  0.61424  0.27196  1.0000
  C   C2433     1.0  0.97967  0.64501  0.48532  1.0000
  C   C2434     1.0  0.93551  0.62566  0.26702  1.0000
  H   H1947     1.0  0.67073  0.93023  0.34285  1.0000
  H   H1948     1.0  0.54394  0.93371  0.32368  1.0000
  C   C2435     1.0  0.80449  0.50163  0.45472  1.0000
  H   H1949     1.0  0.78988  0.55868  0.41493  1.0000
  C   C2436     1.0  0.53941  0.85507  0.26862  1.0000
  C   C2437     1.0  0.52972  0.98722  0.37536  1.0000
  C   C2438     1.0  0.81938  0.52253  0.42836  1.0000
  C   C2439     1.0  0.54465  0.89118  0.29002  1.0000
  C   C2440     1.0  0.55836  0.88859  0.27447  1.0000
  C   C2441     1.0  0.55556  0.87078  0.26365  1.0000
  C   C2442     1.0  0.52990  0.80611  0.26914  1.0000
  C   C2443     1.0  0.97371  0.61466  0.41589  1.0000
  H   H1950     1.0  0.91771  0.62984  0.26514  1.0000
  C   C2444     1.0  0.52783  0.87620  0.29456  1.0000
  H   H1951     1.0  0.98017  0.64823  0.36977  1.0000
  C   C2445     1.0  0.97191  0.58419  0.43886  1.0000
  C   C2446     1.0  0.60136  0.92873  0.29495  1.0000
  H   H1952     1.0  0.85254  0.50929  0.33225  1.0000
  H   H1953     1.0  0.59177  0.92776  0.38881  1.0000
  H   H1954     1.0  0.82824  0.52709  0.45530  1.0000
  C   C2447     1.0  0.72236  0.80683  0.46907  1.0000
  H   H1955     1.0  0.96608  0.55135  0.42996  1.0000
  H   H1956     1.0  0.54728  0.90456  0.29867  1.0000
  C   C2448     1.0  0.80626  0.51042  0.41787  1.0000
  C   C2449     1.0  0.88275  0.54129  0.40510  1.0000
  H   H1957     1.0  0.97094  0.56633  0.35081  1.0000
  C   C2450     1.0  0.50397  0.95079  0.35528  1.0000
  H   H1958     1.0  0.97029  0.60458  0.38907  1.0000
  P   P82       1.0  0.97662  0.64406  0.40909  1.0000
  H   H1959     1.0  0.54536  0.81592  0.29258  1.0000
  C   C2451     1.0  0.86939  0.56969  0.45777  1.0000
  P   P83       1.0  0.49983  0.95281  0.37907  1.0000
  C   C2452     1.0  0.51586  0.92937  0.38992  1.0000
  C   C2453     1.0  0.59335  0.94438  0.25985  1.0000
  C   C2454     1.0  0.86317  0.52929  0.40836  1.0000
  H   H1960     1.0  0.95189  0.65589  0.34749  1.0000
  C   C2455     1.0  0.61544  0.92079  0.28085  1.0000
  H   H1961     1.0  0.98586  0.51482  0.28243  1.0000
  C   C2456     1.0  0.61741  0.98343  0.39923  1.0000
  H   H1962     1.0  0.50174  0.90475  0.33195  1.0000
  H   H1963     1.0  0.79613  0.56620  0.30720  1.0000
  C   C2457     1.0  0.62182  0.94310  0.39511  1.0000
  H   H1964     1.0  0.63223  0.92736  0.39428  1.0000
  C   C2458     1.0  0.58328  0.94447  0.29163  1.0000
  H   H1965     1.0  0.56522  0.96453  0.27184  1.0000
  H   H1966     1.0  0.57272  0.95087  0.30269  1.0000
  C   C2459     1.0  0.94365  0.62502  0.28402  1.0000
  H   H1967     1.0  0.70662  0.95459  0.45491  1.0000
  C   C2460     1.0  0.51089  0.97873  0.38502  1.0000
  C   C2461     1.0  0.83445  0.56805  0.38536  1.0000
  C   C2462     1.0  0.61146  0.92848  0.26335  1.0000
  C   C2463     1.0  0.82268  0.55946  0.40069  1.0000
  C   C2464     1.0  0.98525  0.57549  0.35365  1.0000
  H   H1968     1.0  0.51543  0.75195  0.29819  1.0000
  C   C2465     1.0  0.68659  0.95882  0.43182  1.0000
  C   C2466     1.0  0.84567  0.56219  0.43393  1.0000
  C   C2467     1.0  0.85295  0.53623  0.24822  1.0000
  H   H1969     1.0  0.62256  0.92185  0.25269  1.0000
  H   H1970     1.0  0.62955  0.90863  0.28352  1.0000
  C   C2468     1.0  0.80015  0.80117  0.39589  1.0000
  C   C2469     1.0  0.81777  0.81567  0.39347  1.0000
  C   C2470     1.0  0.81522  0.83715  0.40030  1.0000
  C   C2471     1.0  0.79508  0.84412  0.40965  1.0000
  C   C2472     1.0  0.77743  0.82949  0.41235  1.0000
  C   C2473     1.0  0.78001  0.80807  0.40524  1.0000
  P   P84       1.0  0.75121  0.83781  0.42431  1.0000
  C   C2474     1.0  0.74672  0.81904  0.44377  1.0000
  C   C2475     1.0  0.75202  0.86558  0.43277  1.0000
  C   C2476     1.0  0.73659  0.88347  0.42763  1.0000
  C   C2477     1.0  0.73652  0.90438  0.43525  1.0000
  C   C2478     1.0  0.75179  0.90762  0.44807  1.0000
  C   C2479     1.0  0.76732  0.88997  0.45317  1.0000
  C   C2480     1.0  0.76735  0.86898  0.44565  1.0000
  C   C2481     1.0  0.76407  0.80359  0.44973  1.0000
  H   H1971     1.0  0.76986  0.58245  0.39209  1.0000
  H   H1972     1.0  0.55465  0.91797  0.42142  1.0000
  C   C2482     1.0  0.72612  0.82097  0.45385  1.0000
  C   C2483     1.0  0.72943  0.83746  0.40861  1.0000
  C   C2484     1.0  0.73115  0.85086  0.39264  1.0000
  C   C2485     1.0  0.71436  0.85117  0.38040  1.0000
  C   C2486     1.0  0.69592  0.83788  0.38389  1.0000
  C   C2487     1.0  0.69433  0.82413  0.39954  1.0000
  C   C2488     1.0  0.71108  0.82372  0.41180  1.0000
  H   H1973     1.0  0.80208  0.78454  0.39055  1.0000
  H   H1974     1.0  0.83340  0.81028  0.38627  1.0000
  H   H1975     1.0  0.82887  0.84842  0.39836  1.0000
  H   H1976     1.0  0.79342  0.86089  0.41466  1.0000
  H   H1977     1.0  0.76645  0.79667  0.40702  1.0000
  H   H1978     1.0  0.72407  0.88123  0.41822  1.0000
  H   H1979     1.0  0.72419  0.91789  0.43157  1.0000
  H   H1980     1.0  0.75120  0.92358  0.45443  1.0000
  H   H1981     1.0  0.77870  0.89230  0.46349  1.0000
  H   H1982     1.0  0.77888  0.85519  0.45029  1.0000
  H   H1983     1.0  0.78055  0.80243  0.44278  1.0000
  C   C2489     1.0  0.58526  0.96336  0.39225  1.0000
  H   H1984     1.0  0.71293  0.83352  0.44996  1.0000
  H   H1985     1.0  0.74531  0.86131  0.38979  1.0000
  H   H1986     1.0  0.71537  0.86191  0.36829  1.0000
  H   H1987     1.0  0.68257  0.83860  0.37464  1.0000
  H   H1988     1.0  0.67979  0.81415  0.40235  1.0000
  H   H1989     1.0  0.70941  0.81272  0.42366  1.0000
  C   C2490     1.0  0.70503  0.91675  0.37693  1.0000
  C   C2491     1.0  0.69633  0.91630  0.36017  1.0000
  C   C2492     1.0  0.67760  0.93068  0.35578  1.0000
  C   C2493     1.0  0.66731  0.94522  0.36822  1.0000
  C   C2494     1.0  0.67564  0.94547  0.38520  1.0000
  C   C2495     1.0  0.69484  0.93140  0.38938  1.0000
  P   P85       1.0  0.66137  0.96341  0.40150  1.0000
  C   C2496     1.0  0.63131  0.96324  0.39880  1.0000
  C   C2497     1.0  0.66814  0.95153  0.42338  1.0000
  C   C2498     1.0  0.65620  0.93367  0.43154  1.0000
  C   C2499     1.0  0.66224  0.92370  0.44801  1.0000
  C   C2500     1.0  0.68029  0.93137  0.45644  1.0000
  C   C2501     1.0  0.69243  0.94894  0.44838  1.0000
  C   C2502     1.0  0.84796  0.50730  0.27211  1.0000
  C   C2503     1.0  0.95043  0.62137  0.25238  1.0000
  C   C2504     1.0  0.51534  0.90743  0.38402  1.0000
  C   C2505     1.0  0.51403  0.76928  0.27229  1.0000
  H   H1990     1.0  0.82170  0.58997  0.42649  1.0000
  C   C2506     1.0  0.52983  0.93297  0.40373  1.0000
  H   H1991     1.0  0.83307  0.61517  0.44855  1.0000
  C   C2507     1.0  0.84111  0.59824  0.44784  1.0000
  C   C2508     1.0  0.79981  0.58696  0.37501  1.0000
  H   H1992     1.0  0.79114  0.59798  0.36526  1.0000
  C   C2509     1.0  0.86295  0.55515  0.44536  1.0000
  C   C2510     1.0  0.94953  0.56029  0.27383  1.0000
  P   P86       1.0  0.53673  0.83110  0.25550  1.0000
  C   C2511     1.0  0.73952  0.79126  0.47478  1.0000
  C   C2512     1.0  0.78787  0.57826  0.39015  1.0000
  H   H1993     1.0  0.88309  0.56449  0.46626  1.0000
  H   H1994     1.0  0.81316  0.53604  0.28864  1.0000
  C   C2513     1.0  0.50257  0.84635  0.35755  1.0000
  H   H1995     1.0  0.51726  0.87810  0.30661  1.0000
  C   C2514     1.0  0.98859  0.60608  0.49533  1.0000
  H   H1996     1.0  0.51801  0.91153  0.24730  1.0000
  C   C2515     1.0  0.62671  0.98309  0.28592  1.0000
  H   H1997     1.0  0.58372  0.82762  0.26571  1.0000
  H   H1998     1.0  0.99241  0.70627  0.44694  1.0000
  H   H1999     1.0  0.86378  0.60269  0.46837  1.0000
  C   C2516     1.0  0.86402  0.50630  0.40463  1.0000
  C   C2517     1.0  0.97323  0.62501  0.49434  1.0000
  H   H2000     1.0  0.61989  0.81793  0.24918  1.0000
  H   H2001     1.0  0.97445  0.49670  0.41122  1.0000
  C   C2518     1.0  0.90375  0.50729  0.39547  1.0000
  H   H2002     1.0  0.97579  0.75060  0.49186  1.0000
  H   H2003     1.0  0.84927  0.49661  0.40675  1.0000
  H   H2004     1.0  0.91942  0.49874  0.39054  1.0000
  C   C2519     1.0  0.64359  0.99450  0.27619  1.0000
  C   C2520     1.0  0.88424  0.49540  0.39815  1.0000
  H   H2005     1.0  0.51551  0.78997  0.24791  1.0000
  H   H2006     1.0  0.94308  0.57541  0.24786  1.0000
  C   C2521     1.0  0.96679  0.54622  0.24636  1.0000
  Fe  Fe169     1.0  0.58284  0.85712  0.66485  1.0000
  S   S338      1.0  0.61537  0.84756  0.67818  1.0000
  S   S339      1.0  0.55936  0.82974  0.66066  1.0000
  Fe  Fe170     1.0  0.59526  0.90542  0.65683  1.0000
  S   S340      1.0  0.62847  0.89975  0.66942  1.0000
  S   S341      1.0  0.58463  0.93939  0.64431  1.0000
  Fe  Fe171     1.0  0.63190  0.86749  0.65480  1.0000
  S   S342      1.0  0.66336  0.85628  0.63742  1.0000
  Fe  Fe172     1.0  0.60876  0.88075  0.69154  1.0000
  S   S343      1.0  0.60518  0.89233  0.72017  1.0000
  S   S344      1.0  0.59983  0.87470  0.64104  1.0000
  S   S345      1.0  0.57520  0.88872  0.67931  1.0000
  Fe  Fe173     1.0  0.88772  0.66012  0.52587  1.0000
  S   S346      1.0  0.88776  0.69794  0.52652  1.0000
  S   S347      1.0  0.89212  0.63341  0.54909  1.0000
  H   H2007     1.0  0.93952  0.55134  0.72362  1.0000
  H   H2008     1.0  0.70091  0.89981  0.56107  1.0000
  H   H2009     1.0  0.81314  0.57906  0.68513  1.0000
  C   C2522     1.0  0.55863  0.85674  0.73458  1.0000
  C   C2523     1.0  0.93729  0.67049  0.55626  1.0000
  H   H2010     1.0  0.50765  0.93489  0.71428  1.0000
  Fe  Fe174     1.0  0.69571  0.86142  0.52842  1.0000
  S   S348      1.0  0.73165  0.87201  0.52533  1.0000
  S   S349      1.0  0.66961  0.86593  0.55210  1.0000
  H   H2011     1.0  0.57910  0.91226  0.59546  1.0000
  H   H2012     1.0  0.82705  0.67308  0.53609  1.0000
  C   C2524     1.0  0.97828  0.71189  0.59168  1.0000
  C   C2525     1.0  0.60152  0.99051  0.68320  1.0000
  S   S350      1.0  0.70294  0.83080  0.51192  1.0000
  H   H2013     1.0  0.91189  0.65561  0.62078  1.0000
  Fe  Fe175     1.0  0.88510  0.60253  0.65489  1.0000
  S   S351      1.0  0.92090  0.58878  0.64992  1.0000
  S   S352      1.0  0.86659  0.62341  0.63283  1.0000
  Fe  Fe176     1.0  0.88548  0.58854  0.69548  1.0000
  S   S353      1.0  0.92123  0.57458  0.69265  1.0000
  S   S354      1.0  0.86919  0.58325  0.72355  1.0000
  Fe  Fe177     1.0  0.92698  0.60533  0.67492  1.0000
  S   S355      1.0  0.95712  0.62520  0.67734  1.0000
  Fe  Fe178     1.0  0.91145  0.55901  0.66818  1.0000
  S   S356      1.0  0.92721  0.52353  0.66431  1.0000
  S   S357      1.0  0.89186  0.62086  0.67924  1.0000
  S   S358      1.0  0.87489  0.57123  0.67162  1.0000
  H   H2014     1.0  0.59915  0.94330  0.60785  1.0000
  H   H2015     1.0  0.79012  0.73605  0.56569  1.0000
  H   H2016     1.0  0.79117  0.96346  0.56060  1.0000
  C   C2526     1.0  0.97568  0.71573  0.50147  1.0000
  C   C2527     1.0  0.76278  0.94576  0.57194  1.0000
  H   H2017     1.0  0.98612  0.78787  0.52509  1.0000
  H   H2018     1.0  0.84152  0.70976  0.54107  1.0000
  C   C2528     1.0  0.65230  0.98836  0.65984  1.0000
  H   H2019     1.0  0.96213  0.57747  0.67198  1.0000
  C   C2529     1.0  0.88613  0.63250  0.57258  1.0000
  C   C2530     1.0  0.89681  0.61498  0.58313  1.0000
  C   C2531     1.0  0.89158  0.61242  0.60161  1.0000
  C   C2532     1.0  0.87513  0.62703  0.60979  1.0000
  C   C2533     1.0  0.86463  0.64475  0.59928  1.0000
  C   C2534     1.0  0.87030  0.64767  0.58084  1.0000
  H   H2020     1.0  0.90913  0.60316  0.57694  1.0000
  H   H2021     1.0  0.90008  0.59895  0.60947  1.0000
  H   H2022     1.0  0.85187  0.65617  0.60542  1.0000
  H   H2023     1.0  0.86188  0.66118  0.57295  1.0000
  H   H2024     1.0  0.86088  0.70524  0.59690  1.0000
  H   H2025     1.0  0.76175  0.76484  0.55452  1.0000
  H   H2026     1.0  0.96704  0.58636  0.63353  1.0000
  H   H2027     1.0  0.86700  0.53595  0.71986  1.0000
  H   H2028     1.0  0.77195  0.80420  0.54704  1.0000
  C   C2535     1.0  0.97351  0.68548  0.56052  1.0000
  H   H2029     1.0  0.87078  0.50471  0.69933  1.0000
  C   C2536     1.0  0.99284  0.53485  0.62587  1.0000
  C   C2537     1.0  0.96909  0.52942  0.72884  1.0000
  H   H2030     1.0  0.51577  0.88631  0.71379  1.0000
  H   H2031     1.0  0.97422  0.62640  0.64056  1.0000
  C   C2538     1.0  0.81167  0.79112  0.50396  1.0000
  C   C2539     1.0  0.81321  0.74958  0.50672  1.0000
  C   C2540     1.0  0.74548  0.97441  0.52448  1.0000
  C   C2541     1.0  0.91122  0.49960  0.66364  1.0000
  C   C2542     1.0  0.98791  0.73252  0.55558  1.0000
  Fe  Fe179     1.0  0.91479  0.69575  0.50415  1.0000
  C   C2543     1.0  0.59028  0.95923  0.65940  1.0000
  C   C2544     1.0  0.59514  0.95201  0.67681  1.0000
  C   C2545     1.0  0.60085  0.96762  0.68867  1.0000
  C   C2546     1.0  0.85410  0.58791  0.57159  1.0000
  C   C2547     1.0  0.82136  0.58889  0.65767  1.0000
  H   H2032     1.0  0.59452  0.93440  0.68124  1.0000
  H   H2033     1.0  0.69668  0.98201  0.54353  1.0000
  H   H2034     1.0  0.75461  0.92923  0.61579  1.0000
  C   C2548     1.0  0.66481  0.85872  0.61366  1.0000
  C   C2549     1.0  0.64758  0.87016  0.60411  1.0000
  C   C2550     1.0  0.64966  0.87241  0.58539  1.0000
  C   C2551     1.0  0.66886  0.86318  0.57581  1.0000
  C   C2552     1.0  0.68618  0.85182  0.58529  1.0000
  C   C2553     1.0  0.68410  0.84956  0.60409  1.0000
  H   H2035     1.0  0.63272  0.87749  0.61115  1.0000
  H   H2036     1.0  0.63626  0.88140  0.57823  1.0000
  H   H2037     1.0  0.70104  0.84456  0.57815  1.0000
  H   H2038     1.0  0.69747  0.84059  0.61130  1.0000
  C   C2554     1.0  0.51489  0.84846  0.66575  1.0000
  C   C2555     1.0  0.52966  0.83082  0.65940  1.0000
  C   C2556     1.0  0.52071  0.81263  0.65193  1.0000
  H   H2039     1.0  0.93604  0.64489  0.64597  1.0000
  H   H2040     1.0  0.52167  0.86232  0.67183  1.0000
  H   H2041     1.0  0.53195  0.79890  0.64710  1.0000
  C   C2557     1.0  0.94989  0.68627  0.56360  1.0000
  H   H2042     1.0  0.95635  0.62423  0.50060  1.0000
  S   S359      1.0  0.94546  0.71730  0.50229  1.0000
  H   H2043     1.0  0.94883  0.59103  0.73664  1.0000
  Fe  Fe180     1.0  0.86257  0.69999  0.50497  1.0000
  C   C2558     1.0  0.82721  0.58142  0.64067  1.0000
  P   P87       1.0  0.83696  0.54810  0.61603  1.0000
  C   C2559     1.0  0.83692  0.57039  0.59861  1.0000
  C   C2560     1.0  0.81831  0.58629  0.59740  1.0000
  C   C2561     1.0  0.81804  0.60335  0.58374  1.0000
  C   C2562     1.0  0.83601  0.60423  0.57090  1.0000
  H   H2044     1.0  0.52890  0.90158  0.67106  1.0000
  C   C2563     1.0  0.74098  0.95395  0.51711  1.0000
  C   C2564     1.0  0.81755  0.52859  0.60931  1.0000
  H   H2045     1.0  0.91903  0.67131  0.55841  1.0000
  C   C2565     1.0  0.80826  0.50110  0.58876  1.0000
  H   H2046     1.0  0.53998  0.93801  0.65694  1.0000
  H   H2047     1.0  0.80852  0.96543  0.58953  1.0000
  C   C2566     1.0  0.51966  0.80039  0.60160  1.0000
  C   C2567     1.0  0.86949  0.51157  0.61810  1.0000
  H   H2048     1.0  0.83132  0.59382  0.63008  1.0000
  H   H2049     1.0  0.80414  0.58564  0.60712  1.0000
  H   H2050     1.0  0.80395  0.61594  0.58317  1.0000
  H   H2051     1.0  0.83613  0.61760  0.56044  1.0000
  H   H2052     1.0  0.83948  0.78650  0.56261  1.0000
  C   C2568     1.0  0.50604  0.95382  0.65794  1.0000
  C   C2569     1.0  0.87621  0.50177  0.71276  1.0000
  H   H2053     1.0  0.96382  0.62917  0.58434  1.0000
  H   H2054     1.0  0.81632  0.53794  0.68025  1.0000
  C   C2570     1.0  0.82329  0.51599  0.59433  1.0000
  H   H2055     1.0  0.81354  0.70548  0.59515  1.0000
  H   H2056     1.0  0.96401  0.54623  0.64253  1.0000
  H   H2057     1.0  0.92154  0.73970  0.55856  1.0000
  C   C2571     1.0  0.72892  0.95442  0.50171  1.0000
  H   H2058     1.0  0.86802  0.58868  0.56160  1.0000
  C   C2572     1.0  0.85464  0.57108  0.58539  1.0000
  H   H2059     1.0  0.96091  0.68334  0.63018  1.0000
  C   C2573     1.0  0.61008  0.87992  0.74185  1.0000
  H   H2060     1.0  0.86853  0.70653  0.62855  1.0000
  C   C2574     1.0  0.97163  0.65276  0.54291  1.0000
  H   H2061     1.0  0.91854  0.54975  0.62425  1.0000
  C   C2575     1.0  0.78300  0.95632  0.57271  1.0000
  C   C2576     1.0  0.78794  0.79287  0.50722  1.0000
  H   H2062     1.0  0.57837  0.93717  0.72165  1.0000
  H   H2063     1.0  0.60479  0.96193  0.70209  1.0000
  C   C2577     1.0  0.96744  0.73774  0.61500  1.0000
  H   H2064     1.0  0.55046  0.86164  0.70722  1.0000
  C   C2578     1.0  0.89998  0.60449  0.74220  1.0000
  C   C2579     1.0  0.51157  0.83935  0.55547  1.0000
  C   C2580     1.0  0.81893  0.55007  0.66912  1.0000
  C   C2581     1.0  0.81708  0.57324  0.67188  1.0000
  H   H2065     1.0  0.67240  0.97177  0.58467  1.0000
  H   H2066     1.0  0.81072  0.81495  0.55114  1.0000
  C   C2582     1.0  0.76217  0.93714  0.60375  1.0000
  H   H2067     1.0  0.84564  0.75298  0.53447  1.0000
  H   H2068     1.0  0.82051  0.80644  0.50154  1.0000
  C   C2583     1.0  0.97721  0.55121  0.63278  1.0000
  H   H2069     1.0  0.80634  0.65197  0.56061  1.0000
  P   P88       1.0  0.51443  0.98062  0.64785  1.0000
  H   H2070     1.0  0.92629  0.64832  0.59003  1.0000
  C   C2584     1.0  0.92882  0.64789  0.61831  1.0000
  C   C2585     1.0  0.78725  0.49897  0.59791  1.0000
  C   C2586     1.0  0.54906  0.87771  0.62403  1.0000
  C   C2587     1.0  0.55742  0.89764  0.61631  1.0000
  C   C2588     1.0  0.57211  0.89688  0.60113  1.0000
  C   C2589     1.0  0.57869  0.87615  0.59380  1.0000
  C   C2590     1.0  0.57040  0.85596  0.60149  1.0000
  C   C2591     1.0  0.55553  0.85698  0.61671  1.0000
  P   P89       1.0  0.58076  0.82869  0.59349  1.0000
  C   C2592     1.0  0.55927  0.80890  0.59929  1.0000
  C   C2593     1.0  0.58690  0.83076  0.56963  1.0000
  C   C2594     1.0  0.57335  0.82079  0.55807  1.0000
  C   C2595     1.0  0.57869  0.82195  0.53971  1.0000
  C   C2596     1.0  0.59764  0.83294  0.53276  1.0000
  C   C2597     1.0  0.61129  0.84275  0.54415  1.0000
  C   C2598     1.0  0.60597  0.84164  0.56246  1.0000
  C   C2599     1.0  0.56497  0.78747  0.60737  1.0000
  C   C2600     1.0  0.54810  0.77274  0.61266  1.0000
  C   C2601     1.0  0.53427  0.97150  0.73774  1.0000
  S   S360      1.0  0.91631  0.65809  0.50482  1.0000
  C   C2602     1.0  0.53647  0.81522  0.59638  1.0000
  C   C2603     1.0  0.60598  0.81949  0.60494  1.0000
  C   C2604     1.0  0.60600  0.82127  0.62337  1.0000
  C   C2605     1.0  0.62536  0.81456  0.63247  1.0000
  C   C2606     1.0  0.64488  0.80596  0.62324  1.0000
  C   C2607     1.0  0.64487  0.80353  0.60495  1.0000
  C   C2608     1.0  0.62540  0.80993  0.59585  1.0000
  H   H2071     1.0  0.53857  0.87812  0.63629  1.0000
  C   C2609     1.0  0.95828  0.63259  0.59787  1.0000
  S   S361      1.0  0.68470  0.88357  0.50474  1.0000
  H   H2072     1.0  0.59071  0.87602  0.58248  1.0000
  H   H2073     1.0  0.54966  0.84168  0.62347  1.0000
  H   H2074     1.0  0.55896  0.81172  0.56317  1.0000
  H   H2075     1.0  0.56840  0.81398  0.53086  1.0000
  H   H2076     1.0  0.60204  0.83358  0.51858  1.0000
  H   H2077     1.0  0.62631  0.85089  0.53885  1.0000
  H   H2078     1.0  0.61721  0.84871  0.57106  1.0000
  H   H2079     1.0  0.58236  0.78219  0.60993  1.0000
  H   H2080     1.0  0.55256  0.75645  0.61927  1.0000
  C   C2610     1.0  0.94817  0.65369  0.54601  1.0000
  C   C2611     1.0  0.78950  0.75133  0.51012  1.0000
  H   H2081     1.0  0.53168  0.83180  0.59043  1.0000
  H   H2082     1.0  0.59111  0.82792  0.63079  1.0000
  H   H2083     1.0  0.62541  0.81655  0.64664  1.0000
  H   H2084     1.0  0.66011  0.80162  0.63026  1.0000
  H   H2085     1.0  0.66008  0.79702  0.59779  1.0000
  H   H2086     1.0  0.62578  0.80745  0.58178  1.0000
  H   H2087     1.0  0.63832  0.97497  0.63768  1.0000
  H   H2088     1.0  0.90638  0.61139  0.72942  1.0000
  C   C2612     1.0  0.51009  0.81673  0.55170  1.0000
  H   H2089     1.0  0.87974  0.75980  0.51516  1.0000
  C   C2613     1.0  0.97270  0.69366  0.60350  1.0000
  H   H2090     1.0  0.86891  0.55871  0.58563  1.0000
  C   C2614     1.0  0.65045  0.94458  0.58536  1.0000
  C   C2615     1.0  0.96395  0.63118  0.62941  1.0000
  H   H2091     1.0  0.87858  0.51789  0.66393  1.0000
  C   C2616     1.0  0.54257  0.95526  0.60173  1.0000
  C   C2617     1.0  0.89150  0.50195  0.61973  1.0000
  C   C2618     1.0  0.87415  0.51940  0.72433  1.0000
  C   C2619     1.0  0.53284  0.97597  0.62829  1.0000
  Fe  Fe181     1.0  0.72078  0.89261  0.50084  1.0000
  H   H2092     1.0  0.87969  0.56700  0.62125  1.0000
  S   S362      1.0  0.77319  0.82064  0.50760  1.0000
  H   H2093     1.0  0.97994  0.64005  0.53462  1.0000
  H   H2094     1.0  0.54710  0.91983  0.70873  1.0000
  C   C2620     1.0  0.88294  0.54886  0.62041  1.0000
  H   H2095     1.0  0.95833  0.72493  0.54207  1.0000
  H   H2096     1.0  0.62915  0.84992  0.73337  1.0000
  H   H2097     1.0  0.85725  0.74109  0.64478  1.0000
  C   C2621     1.0  0.56080  0.98955  0.60602  1.0000
  C   C2622     1.0  0.88762  0.50144  0.66330  1.0000
  C   C2623     1.0  0.55658  0.96277  0.73447  1.0000
  H   H2098     1.0  0.75524  0.97395  0.53611  1.0000
  H   H2099     1.0  0.83942  0.51766  0.58700  1.0000
  C   C2624     1.0  0.78118  0.51189  0.61255  1.0000
  H   H2100     1.0  0.94118  0.69927  0.57141  1.0000
  H   H2101     1.0  0.52657  0.84803  0.55106  1.0000
  H   H2102     1.0  0.74731  0.93788  0.52305  1.0000
  C   C2625     1.0  0.98641  0.77267  0.53382  1.0000
  C   C2626     1.0  0.59065  0.98217  0.65400  1.0000
  S   S363      1.0  0.86129  0.66152  0.50550  1.0000
  C   C2627     1.0  0.61494  0.94974  0.60251  1.0000
  C   C2628     1.0  0.86516  0.53516  0.61802  1.0000
  H   H2103     1.0  0.83806  0.77443  0.62919  1.0000
  H   H2104     1.0  0.88771  0.73285  0.57812  1.0000
  H   H2105     1.0  0.91771  0.75281  0.52694  1.0000
  C   C2629     1.0  0.90924  0.51576  0.62158  1.0000
  C   C2630     1.0  0.62991  0.93638  0.59193  1.0000
  S   S364      1.0  0.82812  0.72185  0.50672  1.0000
  H   H2106     1.0  0.62572  0.91959  0.58896  1.0000
  H   H2107     1.0  0.54029  0.94108  0.59379  1.0000
  C   C2631     1.0  0.98055  0.50827  0.72613  1.0000
  H   H2108     1.0  0.79992  0.66819  0.59023  1.0000
  C   C2632     1.0  0.74261  0.85584  0.60052  1.0000
  C   C2633     1.0  0.75181  0.84747  0.58454  1.0000
  C   C2634     1.0  0.75318  0.86187  0.56921  1.0000
  C   C2635     1.0  0.74507  0.88456  0.56980  1.0000
  C   C2636     1.0  0.73508  0.89290  0.58565  1.0000
  C   C2637     1.0  0.73441  0.87850  0.60114  1.0000
  P   P90       1.0  0.72613  0.92257  0.58647  1.0000
  C   C2638     1.0  0.75189  0.93668  0.58754  1.0000
  C   C2639     1.0  0.71117  0.93274  0.56716  1.0000
  C   C2640     1.0  0.70042  0.91775  0.55732  1.0000
  C   C2641     1.0  0.68865  0.92587  0.54250  1.0000
  C   C2642     1.0  0.68735  0.94899  0.53751  1.0000
  C   C2643     1.0  0.69747  0.96409  0.54754  1.0000
  C   C2644     1.0  0.70930  0.95602  0.56234  1.0000
  H   H2109     1.0  0.82096  0.60681  0.65990  1.0000
  C   C2645     1.0  0.97867  0.58377  0.67232  1.0000
  H   H2110     1.0  0.68059  0.91416  0.53486  1.0000
  C   C2646     1.0  0.65629  0.96594  0.58971  1.0000
  C   C2647     1.0  0.82481  0.54257  0.65212  1.0000
  C   C2648     1.0  0.70636  0.92778  0.60517  1.0000
  C   C2649     1.0  0.70763  0.94670  0.61529  1.0000
  C   C2650     1.0  0.69220  0.95045  0.62977  1.0000
  C   C2651     1.0  0.67514  0.93560  0.63400  1.0000
  C   C2652     1.0  0.67333  0.91720  0.62363  1.0000
  C   C2653     1.0  0.68877  0.91336  0.60920  1.0000
  H   H2111     1.0  0.74157  0.84472  0.61244  1.0000
  H   H2112     1.0  0.75789  0.82985  0.58402  1.0000
  H   H2113     1.0  0.76048  0.85544  0.55683  1.0000
  H   H2114     1.0  0.74654  0.89559  0.55785  1.0000
  H   H2115     1.0  0.72750  0.88462  0.61370  1.0000
  H   H2116     1.0  0.96546  0.75482  0.61949  1.0000
  C   C2654     1.0  0.51623  0.96151  0.73068  1.0000
  H   H2117     1.0  0.67878  0.95514  0.52571  1.0000
  H   H2118     1.0  0.57417  0.84660  0.73160  1.0000
  H   H2119     1.0  0.71713  0.96796  0.56989  1.0000
  H   H2120     1.0  0.99172  0.51722  0.63028  1.0000
  C   C2655     1.0  0.94237  0.64174  0.63250  1.0000
  C   C2656     1.0  0.79619  0.52677  0.61818  1.0000
  H   H2121     1.0  0.72046  0.95859  0.61206  1.0000
  H   H2122     1.0  0.69344  0.96483  0.63776  1.0000
  H   H2123     1.0  0.66327  0.93828  0.64531  1.0000
  H   H2124     1.0  0.65998  0.90580  0.62689  1.0000
  H   H2125     1.0  0.68702  0.89912  0.60119  1.0000
  H   H2126     1.0  0.97971  0.74842  0.58879  1.0000
  H   H2127     1.0  0.82995  0.77338  0.59764  1.0000
  C   C2657     1.0  0.82453  0.67990  0.54912  1.0000
  C   C2658     1.0  0.81278  0.66809  0.56291  1.0000
  C   C2659     1.0  0.80913  0.67728  0.57954  1.0000
  C   C2660     1.0  0.81712  0.69834  0.58234  1.0000
  C   C2661     1.0  0.82941  0.71007  0.56862  1.0000
  C   C2662     1.0  0.83280  0.70078  0.55197  1.0000
  P   P91       1.0  0.83866  0.73786  0.57183  1.0000
  C   C2663     1.0  0.84479  0.73923  0.59488  1.0000
  C   C2664     1.0  0.86397  0.74268  0.55786  1.0000
  C   C2665     1.0  0.86207  0.75043  0.54002  1.0000
  C   C2666     1.0  0.88138  0.75439  0.52903  1.0000
  C   C2667     1.0  0.90280  0.75048  0.53571  1.0000
  C   C2668     1.0  0.90491  0.74283  0.55345  1.0000
  C   C2669     1.0  0.88560  0.73892  0.56451  1.0000
  C   C2670     1.0  0.83849  0.75872  0.60414  1.0000
  C   C2671     1.0  0.84305  0.75938  0.62206  1.0000
  C   C2672     1.0  0.85388  0.74061  0.63085  1.0000
  C   C2673     1.0  0.86027  0.72117  0.62171  1.0000
  C   C2674     1.0  0.85582  0.72047  0.60379  1.0000
  C   C2675     1.0  0.81692  0.75917  0.56531  1.0000
  C   C2676     1.0  0.79481  0.75328  0.56307  1.0000
  C   C2677     1.0  0.77859  0.76959  0.55676  1.0000
  C   C2678     1.0  0.78430  0.79182  0.55260  1.0000
  C   C2679     1.0  0.80620  0.79785  0.55489  1.0000
  C   C2680     1.0  0.82244  0.78165  0.56130  1.0000
  C   C2681     1.0  0.97900  0.57409  0.62760  1.0000
  C   C2682     1.0  0.56108  0.94405  0.72414  1.0000
  C   C2683     1.0  0.54335  0.93422  0.71687  1.0000
  C   C2684     1.0  0.54542  0.86554  0.72079  1.0000
  C   C2685     1.0  0.52101  0.94286  0.72009  1.0000
  C   C2686     1.0  0.51615  0.91523  0.66883  1.0000
  C   C2687     1.0  0.98137  0.59629  0.72352  1.0000
  H   H2128     1.0  0.85593  0.50044  0.61743  1.0000
  H   H2129     1.0  0.52386  0.80786  0.54432  1.0000
  H   H2130     1.0  0.66197  0.93416  0.57714  1.0000
  H   H2131     1.0  0.55340  0.91346  0.62263  1.0000
  C   C2688     1.0  0.90493  0.53919  0.62203  1.0000
  C   C2689     1.0  0.97192  0.62604  0.61213  1.0000
  C   C2690     1.0  0.52546  0.77922  0.60984  1.0000
  H   H2132     1.0  0.97571  0.59405  0.71041  1.0000
  H   H2133     1.0  0.60888  0.98121  0.61504  1.0000
  H   H2134     1.0  0.75587  0.94442  0.55914  1.0000
  C   C2691     1.0  0.88219  0.59012  0.74305  1.0000
  C   C2692     1.0  0.97553  0.73400  0.59754  1.0000
  C   C2693     1.0  0.98107  0.60670  0.67449  1.0000
  H   H2135     1.0  0.93837  0.64152  0.54029  1.0000
  C   C2694     1.0  0.53735  0.98432  0.67892  1.0000
  C   C2695     1.0  0.98429  0.66859  0.55011  1.0000
  C   C2696     1.0  0.82846  0.55824  0.63768  1.0000
  C   C2697     1.0  0.77700  0.77267  0.51036  1.0000
  H   H2136     1.0  0.55568  0.98729  0.70228  1.0000
  C   C2698     1.0  0.97073  0.73706  0.54364  1.0000
  C   C2699     1.0  0.52238  0.93588  0.66075  1.0000
  H   H2137     1.0  0.50207  0.80537  0.59959  1.0000
  H   H2138     1.0  0.53663  0.96626  0.68136  1.0000
  C   C2700     1.0  0.62055  0.97121  0.60665  1.0000
  H   H2139     1.0  0.98171  0.68093  0.51087  1.0000
  C   C2701     1.0  0.64143  0.97936  0.60054  1.0000
  C   C2702     1.0  0.94839  0.53509  0.72134  1.0000
  H   H2140     1.0  0.79024  0.94808  0.61706  1.0000
  Fe  Fe182     1.0  0.73862  0.84222  0.50749  1.0000
  H   H2141     1.0  0.57049  0.97059  0.73978  1.0000
  C   C2703     1.0  0.78244  0.94766  0.60449  1.0000
  C   C2704     1.0  0.52589  0.87938  0.72453  1.0000
  C   C2705     1.0  0.79277  0.95738  0.58899  1.0000
  C   C2706     1.0  0.93691  0.64362  0.60099  1.0000
  H   H2142     1.0  0.79094  0.53693  0.62933  1.0000
  C   C2707     1.0  0.95048  0.49890  0.70796  1.0000
  C   C2708     1.0  0.96481  0.69746  0.62099  1.0000
  C   C2709     1.0  0.52991  0.95769  0.61785  1.0000
  C   C2710     1.0  0.82414  0.76979  0.50359  1.0000
  H   H2143     1.0  0.82677  0.52455  0.65026  1.0000
  H   H2144     1.0  0.58687  0.98788  0.64064  1.0000
  H   H2145     1.0  0.97482  0.67649  0.59927  1.0000
  C   C2711     1.0  0.55812  0.97111  0.59587  1.0000
  H   H2146     1.0  0.51765  0.94548  0.62206  1.0000
  C   C2712     1.0  0.96214  0.71948  0.62673  1.0000
  H   H2147     1.0  0.75892  0.77344  0.51322  1.0000
  C   C2713     1.0  0.49735  0.81176  0.65092  1.0000
  H   H2148     1.0  0.51237  0.76795  0.61428  1.0000
  H   H2149     1.0  0.98361  0.59062  0.50242  1.0000
  H   H2150     1.0  0.95704  0.76028  0.52337  1.0000
  C   C2714     1.0  0.88124  0.51577  0.74167  1.0000
  C   C2715     1.0  0.93906  0.51984  0.71093  1.0000
  H   H2151     1.0  0.92310  0.52437  0.70492  1.0000
  H   H2152     1.0  0.97606  0.54150  0.73684  1.0000
  H   H2153     1.0  0.56807  0.96916  0.58347  1.0000
  H   H2154     1.0  0.98489  0.58926  0.57767  1.0000
  H   H2155     1.0  0.84224  0.76904  0.50080  1.0000
  H   H2156     1.0  0.95608  0.72235  0.64031  1.0000
  H   H2157     1.0  0.50309  0.86232  0.63032  1.0000
  H   H2158     1.0  0.50439  0.89520  0.74474  1.0000
  C   C2716     1.0  0.96621  0.59453  0.73834  1.0000
  C   C2717     1.0  0.96990  0.75719  0.53296  1.0000
  H   H2159     1.0  0.64605  0.97528  0.66917  1.0000
  C   C2718     1.0  0.62251  0.85921  0.74466  1.0000
  H   H2160     1.0  0.92610  0.50825  0.62368  1.0000
  C   C2719     1.0  0.51944  0.88423  0.74211  1.0000
  H   H2161     1.0  0.78069  0.73601  0.51266  1.0000
  C   C2720     1.0  0.64791  0.98830  0.64185  1.0000
  C   C2721     1.0  0.54810  0.99209  0.62208  1.0000
  P   P92       1.0  0.98950  0.70655  0.56940  1.0000
  C   C2722     1.0  0.98946  0.69646  0.50673  1.0000
  H   H2162     1.0  0.76478  0.51044  0.61952  1.0000
  H   H2163     1.0  0.53120  0.98612  0.74568  1.0000
  H   H2164     1.0  0.49514  0.86827  0.56786  1.0000
  C   C2723     1.0  0.98605  0.73568  0.49612  1.0000
  Fe  Fe183     1.0  0.61357  0.86670  0.82526  1.0000
  S   S365      1.0  0.58140  0.88832  0.82682  1.0000
  S   S366      1.0  0.62634  0.85221  0.79868  1.0000
  Fe  Fe184     1.0  0.61821  0.86767  0.86641  1.0000
  S   S367      1.0  0.58654  0.89070  0.86995  1.0000
  S   S368      1.0  0.63876  0.85279  0.88988  1.0000
  Fe  Fe185     1.0  0.57256  0.86762  0.85160  1.0000
  S   S369      1.0  0.54011  0.85087  0.85658  1.0000
  Fe  Fe186     1.0  0.59893  0.90960  0.84466  1.0000
  S   S370      1.0  0.59400  0.94644  0.83441  1.0000
  S   S371      1.0  0.60332  0.84391  0.84898  1.0000
  S   S372      1.0  0.63204  0.88850  0.84225  1.0000
  H   H2165     1.0  0.55153  0.99226  0.81748  1.0000
  C   C2724     1.0  0.55441  0.79595  0.87025  1.0000
  S   S373      1.0  0.84285  0.60066  0.96413  1.0000
  C   C2725     1.0  0.53427  0.90486  0.78559  1.0000
  C   C2726     1.0  0.64287  0.79021  0.85794  1.0000
  S   S374      1.0  0.60417  0.79972  0.96241  1.0000
  Fe  Fe187     1.0  0.88811  0.59295  0.86197  1.0000
  S   S375      1.0  0.92077  0.57944  0.87318  1.0000
  S   S376      1.0  0.85495  0.59438  0.87946  1.0000
  Fe  Fe188     1.0  0.91030  0.59985  0.82365  1.0000
  S   S377      1.0  0.94453  0.58722  0.83282  1.0000
  S   S378      1.0  0.91202  0.61184  0.79411  1.0000
  Fe  Fe189     1.0  0.92626  0.56025  0.84846  1.0000
  S   S379      1.0  0.94353  0.52519  0.84807  1.0000
  Fe  Fe190     1.0  0.93646  0.60751  0.85658  1.0000
  S   S380      1.0  0.96062  0.62851  0.86934  1.0000
  S   S381      1.0  0.89231  0.57131  0.83799  1.0000
  S   S382      1.0  0.90339  0.62269  0.84666  1.0000
  C   C2727     1.0  0.84023  0.54295  0.87031  1.0000
  H   H2166     1.0  0.99204  0.65987  0.87673  1.0000
  H   H2167     1.0  0.49719  0.84096  0.84614  1.0000
  H   H2168     1.0  0.92124  0.52950  0.75179  1.0000
  H   H2169     1.0  0.93795  0.66459  0.78248  1.0000
  H   H2170     1.0  0.89590  0.52857  0.85643  1.0000
  C   C2728     1.0  0.55692  0.93727  0.77888  1.0000
  C   C2729     1.0  0.98476  0.58884  0.92226  1.0000
  C   C2730     1.0  0.88317  0.58753  0.77563  1.0000
  C   C2731     1.0  0.90049  0.60248  0.77478  1.0000
  C   C2732     1.0  0.90887  0.61079  0.75796  1.0000
  H   H2171     1.0  0.71949  0.68912  0.92878  1.0000
  H   H2172     1.0  0.87652  0.58099  0.78844  1.0000
  C   C2733     1.0  0.51575  0.81966  0.93678  1.0000
  H   H2173     1.0  0.60460  0.76670  0.90785  1.0000
  C   C2734     1.0  0.84575  0.59804  0.94065  1.0000
  C   C2735     1.0  0.86705  0.60080  0.93178  1.0000
  C   C2736     1.0  0.87029  0.59924  0.91318  1.0000
  C   C2737     1.0  0.85220  0.59489  0.90314  1.0000
  C   C2738     1.0  0.83103  0.59160  0.91207  1.0000
  C   C2739     1.0  0.82771  0.59341  0.93066  1.0000
  H   H2174     1.0  0.88113  0.60441  0.93933  1.0000
  H   H2175     1.0  0.88668  0.60178  0.90657  1.0000
  H   H2176     1.0  0.81708  0.58759  0.90456  1.0000
  H   H2177     1.0  0.81123  0.59121  0.93723  1.0000
  H   H2178     1.0  0.61556  0.68836  0.87419  1.0000
  H   H2179     1.0  0.65866  0.76034  0.94315  1.0000
  C   C2740     1.0  0.59630  0.96990  0.84735  1.0000
  H   H2180     1.0  0.64078  0.83906  0.96978  1.0000
  H   H2181     1.0  0.62982  0.77857  0.83417  1.0000
  C   C2741     1.0  0.60301  0.98656  0.87501  1.0000
  C   C2742     1.0  0.60123  0.96731  0.86526  1.0000
  H   H2182     1.0  0.77104  0.71395  0.94891  1.0000
  H   H2183     1.0  0.80600  0.54548  0.86225  1.0000
  H   H2184     1.0  0.60378  0.95052  0.87157  1.0000
  C   C2743     1.0  0.62886  0.83820  0.91004  1.0000
  C   C2744     1.0  0.64466  0.82763  0.92163  1.0000
  C   C2745     1.0  0.63756  0.81604  0.93775  1.0000
  C   C2746     1.0  0.61448  0.81474  0.94252  1.0000
  C   C2747     1.0  0.59875  0.82547  0.93097  1.0000
  C   C2748     1.0  0.60582  0.83706  0.91489  1.0000
  H   H2185     1.0  0.66253  0.82840  0.91809  1.0000
  H   H2186     1.0  0.64996  0.80795  0.94639  1.0000
  H   H2187     1.0  0.58091  0.82509  0.93456  1.0000
  H   H2188     1.0  0.59341  0.84526  0.90629  1.0000
  H   H2189     1.0  0.86016  0.57051  0.76071  1.0000
  C   C2749     1.0  0.51732  0.89230  0.85075  1.0000
  C   C2750     1.0  0.51687  0.86874  0.85078  1.0000
  S   S383      1.0  0.61516  0.74188  0.99233  1.0000
  C   C2751     1.0  0.64891  0.80772  0.82819  1.0000
  H   H2190     1.0  0.53261  0.89984  0.85376  1.0000
  H   H2191     1.0  0.80251  0.61512  0.87784  1.0000
  C   C2752     1.0  0.60579  0.88316  0.77421  1.0000
  C   C2753     1.0  0.61891  0.86284  0.77701  1.0000
  C   C2754     1.0  0.62702  0.85084  0.76212  1.0000
  P   P93       1.0  0.76616  0.66971  0.93378  1.0000
  H   H2192     1.0  0.59941  0.89266  0.78546  1.0000
  H   H2193     1.0  0.63714  0.83510  0.76408  1.0000
  H   H2194     1.0  0.59034  0.75330  0.85529  1.0000
  H   H2195     1.0  0.68670  0.76332  0.91741  1.0000
  C   C2755     1.0  0.81735  0.53871  0.87226  1.0000
  H   H2196     1.0  0.60876  0.97407  0.79640  1.0000
  H   H2197     1.0  0.55057  0.76808  0.85400  1.0000
  C   C2756     1.0  0.88399  0.49633  0.85145  1.0000
  H   H2198     1.0  0.51667  0.85817  0.91377  1.0000
  C   C2757     1.0  0.54595  0.91909  0.77317  1.0000
  H   H2199     1.0  0.65602  0.80807  0.87888  1.0000
  C   C2758     1.0  0.51829  0.84070  0.80184  1.0000
  H   H2200     1.0  0.88120  0.54831  0.93275  1.0000
  H   H2201     1.0  0.82039  0.64999  0.88380  1.0000
  H   H2202     1.0  0.66698  0.83808  0.82622  1.0000
  H   H2203     1.0  0.67185  0.84149  0.98977  1.0000
  C   C2759     1.0  0.83886  0.49762  0.96553  1.0000
  C   C2760     1.0  0.66076  0.82445  0.83502  1.0000
  H   H2204     1.0  0.67189  0.83772  0.85870  1.0000
  S   S384      1.0  0.78080  0.58117  0.98619  1.0000
  C   C2761     1.0  0.53356  0.90934  0.80368  1.0000
  C   C2762     1.0  0.91136  0.51470  0.77777  1.0000
  C   C2763     1.0  0.52077  0.79624  0.91145  1.0000
  C   C2764     1.0  0.54093  0.78634  0.91799  1.0000
  C   C2765     1.0  0.54843  0.79298  0.93394  1.0000
  C   C2766     1.0  0.53584  0.80963  0.94333  1.0000
  C   C2767     1.0  0.98067  0.50081  0.76929  1.0000
  C   C2768     1.0  0.65462  0.80719  0.86472  1.0000
  C   C2769     1.0  0.56202  0.77638  0.86168  1.0000
  C   C2770     1.0  0.56928  0.80712  0.87976  1.0000
  C   C2771     1.0  0.77609  0.67479  0.96889  1.0000
  H   H2205     1.0  0.61102  0.93231  0.79746  1.0000
  H   H2206     1.0  0.52564  0.89798  0.81359  1.0000
  H   H2207     1.0  0.64606  0.80848  0.81411  1.0000
  H   H2208     1.0  0.53717  0.80293  0.86911  1.0000
  C   C2772     1.0  0.65131  0.73599  0.85221  1.0000
  C   C2773     1.0  0.98232  0.62639  0.79064  1.0000
  H   H2209     1.0  0.74430  0.51144  0.90593  1.0000
  C   C2774     1.0  0.92969  0.55003  0.77243  1.0000
  H   H2210     1.0  0.83900  0.65290  0.96225  1.0000
  H   H2211     1.0  0.58140  0.83645  0.81309  1.0000
  C   C2775     1.0  0.92947  0.52858  0.89908  1.0000
  H   H2212     1.0  0.55076  0.77349  0.91071  1.0000
  H   H2213     1.0  0.56407  0.78536  0.93905  1.0000
  H   H2214     1.0  0.54178  0.81470  0.95570  1.0000
  C   C2776     1.0  0.98435  0.55927  0.86774  1.0000
  C   C2777     1.0  0.66361  0.82417  0.85327  1.0000
  H   H2215     1.0  0.51497  0.81179  0.82029  1.0000
  C   C2778     1.0  0.63410  0.74124  0.86522  1.0000
  C   C2779     1.0  0.64224  0.69666  0.85472  1.0000
  H   H2216     1.0  0.75612  0.51243  0.99459  1.0000
  H   H2217     1.0  0.66838  0.70987  0.83673  1.0000
  H   H2218     1.0  0.61780  0.76203  0.93818  1.0000
  H   H2219     1.0  0.81424  0.65335  0.93747  1.0000
  C   C2780     1.0  0.84691  0.52181  0.89826  1.0000
  C   C2781     1.0  0.80915  0.52607  0.88721  1.0000
  C   C2782     1.0  0.92947  0.55243  0.79072  1.0000
  C   C2783     1.0  0.92088  0.53572  0.80255  1.0000
  H   H2220     1.0  0.55534  0.80917  0.82755  1.0000
  C   C2784     1.0  0.76357  0.69868  0.92472  1.0000
  C   C2785     1.0  0.63979  0.79080  0.83961  1.0000
  C   C2786     1.0  0.79644  0.65866  0.90544  1.0000
  H   H2221     1.0  0.93550  0.56746  0.79575  1.0000
  H   H2222     1.0  0.60336  0.80810  0.88747  1.0000
  H   H2223     1.0  0.50611  0.83243  0.94429  1.0000
  H   H2224     1.0  0.60856  0.72749  0.88371  1.0000
  H   H2225     1.0  0.96757  0.64121  0.76662  1.0000
  H   H2226     1.0  0.60701  0.98448  0.88883  1.0000
  C   C2787     1.0  0.94264  0.60327  0.93822  1.0000
  C   C2788     1.0  0.95486  0.58421  0.94542  1.0000
  H   H2227     1.0  0.66310  0.93258  0.75536  1.0000
  C   C2789     1.0  0.63751  0.92986  0.77668  1.0000
  H   H2228     1.0  0.94196  0.62978  0.91730  1.0000
  C   C2790     1.0  0.92320  0.50532  0.84788  1.0000
  H   H2229     1.0  0.97924  0.61766  0.90366  1.0000
  C   C2791     1.0  0.50807  0.81309  0.92075  1.0000
  H   H2230     1.0  0.80452  0.67391  0.90787  1.0000
  H   H2231     1.0  0.75529  0.53576  0.92918  1.0000
  C   C2792     1.0  0.65152  0.94177  0.76445  1.0000
  C   C2793     1.0  0.78454  0.66785  0.95212  1.0000
  H   H2232     1.0  0.56260  0.85406  0.76255  1.0000
  C   C2794     1.0  0.85134  0.51278  0.93615  1.0000
  C   C2795     1.0  0.82157  0.65960  0.96396  1.0000
  C   C2796     1.0  0.89449  0.54231  0.92343  1.0000
  H   H2233     1.0  0.78244  0.52038  0.95125  1.0000
  H   H2234     1.0  0.66157  0.97427  0.75433  1.0000
  C   C2797     1.0  0.89171  0.52420  0.91280  1.0000
  H   H2235     1.0  0.96441  0.64115  0.83239  1.0000
  H   H2236     1.0  0.54745  0.91571  0.75920  1.0000
  H   H2237     1.0  0.86521  0.51406  0.79095  1.0000
  C   C2798     1.0  0.85496  0.53468  0.88330  1.0000
  H   H2238     1.0  0.82003  0.52120  0.98241  1.0000
  C   C2799     1.0  0.90059  0.51173  0.85228  1.0000
  H   H2239     1.0  0.92631  0.60882  0.94429  1.0000
  H   H2240     1.0  0.94801  0.57507  0.95718  1.0000
  H   H2241     1.0  0.96779  0.55958  0.86251  1.0000
  C   C2800     1.0  0.79043  0.67466  0.98290  1.0000
  C   C2801     1.0  0.63699  0.84207  0.98370  1.0000
  H   H2242     1.0  0.94275  0.52374  0.88922  1.0000
  C   C2802     1.0  0.82857  0.51878  0.96948  1.0000
  H   H2243     1.0  0.49876  0.82250  0.87638  1.0000
  H   H2244     1.0  0.97260  0.57894  0.88955  1.0000
  H   H2245     1.0  0.96883  0.51276  0.76283  1.0000
  C   C2803     1.0  0.75628  0.50478  0.91551  1.0000
  C   C2804     1.0  0.96695  0.64065  0.78099  1.0000
  H   H2246     1.0  0.50091  0.77627  0.98814  1.0000
  H   H2247     1.0  0.98502  0.56219  0.94325  1.0000
  C   C2805     1.0  0.82389  0.51759  0.90015  1.0000
  C   C2806     1.0  0.62196  0.94159  0.78800  1.0000
  H   H2248     1.0  0.76670  0.75307  0.93627  1.0000
  H   H2249     1.0  0.56722  0.86693  0.79232  1.0000
  C   C2807     1.0  0.91210  0.51676  0.79616  1.0000
  H   H2250     1.0  0.81736  0.50777  0.91165  1.0000
  C   C2808     1.0  0.59953  0.77900  0.87227  1.0000
  C   C2809     1.0  0.53292  0.85648  0.79383  1.0000
  H   H2251     1.0  0.66187  0.74889  0.84625  1.0000
  C   C2810     1.0  0.55598  0.94163  0.79689  1.0000
  C   C2811     1.0  0.54405  0.92784  0.80925  1.0000
  C   C2812     1.0  0.65522  0.71379  0.84689  1.0000
  H   H2252     1.0  0.84655  0.55321  0.85893  1.0000
  C   C2813     1.0  0.75852  0.74353  0.91048  1.0000
  C   C2814     1.0  0.60165  0.89174  0.75675  1.0000
  H   H2253     1.0  0.56518  0.95513  0.80144  1.0000
  H   H2254     1.0  0.54402  0.93074  0.82332  1.0000
  H   H2255     1.0  0.56353  0.82273  0.88591  1.0000
  C   C2815     1.0  0.62546  0.70167  0.86798  1.0000
  C   C2816     1.0  0.59179  0.79878  0.88066  1.0000
  H   H2256     1.0  0.64530  0.67947  0.85058  1.0000
  C   C2817     1.0  0.62148  0.72386  0.87329  1.0000
  C   C2818     1.0  0.98943  0.54972  0.80754  1.0000
  H   H2257     1.0  0.75665  0.76083  0.90498  1.0000
  C   C2819     1.0  0.55570  0.85477  0.79803  1.0000
  H   H2258     1.0  0.56694  0.94744  0.76945  1.0000
  C   C2820     1.0  0.58457  0.76798  0.86256  1.0000
  H   H2259     1.0  0.67384  0.76775  0.88677  1.0000
  H   H2260     1.0  0.93603  0.56319  0.76328  1.0000
  H   H2261     1.0  0.75082  0.72899  0.88629  1.0000
  H   H2262     1.0  0.99343  0.59885  0.84880  1.0000
  C   C2821     1.0  0.63585  0.97732  0.77593  1.0000
  C   C2822     1.0  0.69770  0.66772  0.94468  1.0000
  C   C2823     1.0  0.69624  0.64852  0.95626  1.0000
  C   C2824     1.0  0.71588  0.63563  0.96075  1.0000
  C   C2825     1.0  0.73704  0.64209  0.95391  1.0000
  H   H2263     1.0  0.51515  0.79049  0.89927  1.0000
  H   H2264     1.0  0.97460  0.54255  0.81420  1.0000
  C   C2826     1.0  0.96510  0.64088  0.81805  1.0000
  C   C2827     1.0  0.80732  0.65980  0.94988  1.0000
  H   H2265     1.0  0.82432  0.66690  0.99127  1.0000
  H   H2266     1.0  0.91627  0.56764  0.92986  1.0000
  C   C2828     1.0  0.93218  0.54636  0.90992  1.0000
  C   C2829     1.0  0.76246  0.51848  0.92858  1.0000
  H   H2267     1.0  0.64138  0.98425  0.81170  1.0000
  C   C2830     1.0  0.77632  0.61905  0.89883  1.0000
  C   C2831     1.0  0.81325  0.66739  0.98035  1.0000
  C   C2832     1.0  0.62084  0.96526  0.78744  1.0000
  H   H2268     1.0  0.70265  0.90923  0.98825  1.0000
  H   H2269     1.0  0.93621  0.66461  0.81538  1.0000
  C   C2833     1.0  0.84031  0.53376  0.94008  1.0000
  C   C2834     1.0  0.76750  0.63219  0.91274  1.0000
  H   H2270     1.0  0.76873  0.60355  0.89634  1.0000
  H   H2271     1.0  0.50514  0.95686  0.76928  1.0000
  C   C2835     1.0  0.73867  0.66142  0.94232  1.0000
  C   C2836     1.0  0.56380  0.83749  0.80987  1.0000
  H   H2272     1.0  0.94758  0.55521  0.90861  1.0000
  H   H2273     1.0  0.68245  0.67784  0.94139  1.0000
  H   H2274     1.0  0.67994  0.64381  0.96201  1.0000
  H   H2275     1.0  0.71480  0.62098  0.97001  1.0000
  H   H2276     1.0  0.75212  0.63221  0.95796  1.0000
  Fe  Fe191     1.0  0.81521  0.59492  0.98640  1.0000
  C   C2837     1.0  0.75769  0.70325  0.90704  1.0000
  H   H2277     1.0  0.97129  0.58081  0.79919  1.0000
  C   C2838     1.0  0.54915  0.82199  0.81788  1.0000
  C   C2839     1.0  0.53208  0.87458  0.75615  1.0000
  H   H2278     1.0  0.79139  0.52289  0.88878  1.0000
  C   C2840     1.0  0.79522  0.62562  0.88831  1.0000
  C   C2841     1.0  0.94931  0.65432  0.80844  1.0000
  H   H2279     1.0  0.59211  0.90780  0.75477  1.0000
  H   H2280     1.0  0.92213  0.62249  0.75712  1.0000
  H   H2281     1.0  0.82149  0.55335  0.95986  1.0000
  C   C2842     1.0  0.71881  0.67411  0.93762  1.0000
  H   H2282     1.0  0.75296  0.62669  0.92077  1.0000
  C   C2843     1.0  0.92088  0.53111  0.76597  1.0000
  C   C2844     1.0  0.80536  0.64532  0.89169  1.0000
  H   H2283     1.0  0.60100  0.84187  0.98162  1.0000
  C   C2845     1.0  0.66882  0.76398  0.91521  1.0000
  C   C2846     1.0  0.65308  0.76218  0.92969  1.0000
  C   C2847     1.0  0.62999  0.76313  0.92689  1.0000
  C   C2848     1.0  0.62257  0.76611  0.90964  1.0000
  C   C2849     1.0  0.63825  0.76828  0.89500  1.0000
  C   C2850     1.0  0.66146  0.76674  0.89790  1.0000
  P   P94       1.0  0.62903  0.76960  0.87259  1.0000
  C   C2851     1.0  0.50233  0.86628  0.90719  1.0000
  Fe  Fe192     1.0  0.61446  0.78017  0.98856  1.0000
  C   C2852     1.0  0.86268  0.49612  0.79248  1.0000
  C   C2853     1.0  0.91460  0.55334  0.92193  1.0000
  C   C2854     1.0  0.82928  0.53685  0.95675  1.0000
  P   P95       1.0  0.52262  0.87947  0.77896  1.0000
  C   C2855     1.0  0.76671  0.71683  0.93522  1.0000
  C   C2856     1.0  0.61450  0.84369  0.99037  1.0000
  C   C2857     1.0  0.97583  0.57692  0.93744  1.0000
  H   H2284     1.0  0.92077  0.53762  0.81671  1.0000
  H   H2285     1.0  0.63877  0.91152  0.77735  1.0000
  H   H2286     1.0  0.84060  0.54788  0.93029  1.0000
  C   C2858     1.0  0.77753  0.65212  0.91616  1.0000
  C   C2859     1.0  0.87397  0.58156  0.75986  1.0000
  C   C2860     1.0  0.52641  0.82356  0.81384  1.0000
  H   H2287     1.0  0.75488  0.68957  0.89873  1.0000
  C   C2861     1.0  0.95034  0.65432  0.78991  1.0000
  H   H2288     1.0  0.87246  0.53875  0.88171  1.0000
  C   C2862     1.0  0.95144  0.61513  0.92309  1.0000
  C   C2863     1.0  0.49725  0.85905  0.84676  1.0000
  C   C2864     1.0  0.55200  0.86115  0.75220  1.0000
  H   H2289     1.0  0.86646  0.50139  0.85479  1.0000
  C   C2865     1.0  0.90931  0.51758  0.90045  1.0000
  H   H2290     1.0  0.96113  0.59693  0.76657  1.0000
  C   C2866     1.0  0.98154  0.62695  0.80921  1.0000
  C   C2867     1.0  0.76421  0.73915  0.92810  1.0000
  C   C2868     1.0  0.75524  0.72559  0.89996  1.0000
  C   C2869     1.0  0.97252  0.60813  0.91529  1.0000
  H   H2291     1.0  0.75841  0.68036  0.97116  1.0000
  H   H2292     1.0  0.90576  0.50387  0.80562  1.0000
  C   C2870     1.0  0.98759  0.57143  0.79919  1.0000
  P   P96       1.0  0.86588  0.50957  0.91454  1.0000
  C   C2871     1.0  0.98991  0.62907  0.86344  1.0000
  H   H2293     1.0  0.51873  0.89745  0.90162  1.0000
  C   C2872     1.0  0.77777  0.50984  0.94100  1.0000
  H   H2294     1.0  0.50055  0.84174  0.79919  1.0000
  C   C2873     1.0  0.98723  0.57023  0.88322  1.0000
  C   C2874     1.0  0.50357  0.88866  0.90034  1.0000
  C   C2875     1.0  0.97327  0.59797  0.75524  1.0000
  H   H2295     1.0  0.90736  0.50418  0.89164  1.0000
  C   C2876     1.0  0.65068  0.96543  0.76402  1.0000
  H   H2296     1.0  0.99360  0.61661  0.81689  1.0000
  H   H2297     1.0  0.87917  0.52966  0.75045  1.0000
  H   H2298     1.0  0.78372  0.67977  0.99583  1.0000
  C   C2877     1.0  0.59312  0.99178  0.83931  1.0000
  H   H2299     1.0  0.58991  0.99394  0.82536  1.0000
  H   H2300     1.0  0.53898  0.99499  0.78662  1.0000
  H   H2301     1.0  0.96107  0.50145  0.79433  1.0000
  H   H2302     1.0  0.50072  0.97211  0.79910  1.0000
  H   H2303     1.0  0.49757  0.92421  0.84805  1.0000
  C   C2878     1.0  0.49756  0.90603  0.84750  1.0000
  H   H2304     1.0  0.83396  0.50086  0.81110  1.0000
  C   C2879     1.0  0.65450  0.84360  0.99504  1.0000
  C   C2880     1.0  0.49509  0.97262  0.77112  1.0000
