data_image0
_chemical_formula_structural       FeS2FeS2FeSFeS3FeS2FeS2FeSFeS3C5H5C2HCHCHC6H4CHCHCH3C2H5C7PHC2HC3H4CH5C2H2C2PHC3H2CPHCH4CHC3HC2HC2HCH3CHC2H3C6HCH2C2H5CHC2HCH2C3H3CH3C2H3CHC6HC9PC4HC5H8CH3CH2CHC5HCH3C7PC5PC7HC3HC2HC3H2C3H2CHCH2C4H3C2H4CHC6H2CH4C12FeS2FeS2FeSFeS3FeCSPCH3S2FeS2FeS2FeSFeS3HC2H2C2H9C6H4C4HC6H5C4H2C2H4SC3HC6PC5HFeC11H7C2H2CH6CHC4PHC6HCHCHC2H3C3H7C5HC2H3C4H3C2H4CH2CHC4HCH2CH2C5HCH3CHC4H5PCHC4HCHC2HC2PH2C2HC9H2CH4C2PHC7HCHCH3CH3CH4C6H2CHC3H3C2HC3HC3HSH2CH3CHC2H2C5H3CH3C2HFeH2FeC2H2CFeS2FeS2FeSFeS3FeCSFeSC2H2S2FeS2FeS2FeSFeS3HFeC2H3C10H4CHCHC3H3CH3C6H4C4HC5H3C6PC18H19C3HC3PC18H19C4PC3HC5H3CH2CH4C2H5CH2CH2C2HC2HC9H5CH2C2HC2H2C2SCHC4HC3HCHC2H2C2HC2HCHCHCH2C3H2CHC3HC4HCH2C3HCHCH4C2HPH4C4P2H2CH2C2H2C3H8C3H4CFeS2FeS2FeSFeS3CFeS2FeS2FeSFeS3C6HC2HC2HCPCH4C6H5C7HC4H3CHC5H2C6PC3H2C3HC5HCHCH5CHC3H4C3HCHC2HCHPC8H2C3HCHCHCH3CH2CHC4H3CPC3PC9H3C3HC2HC2H5C2H2CHC3HCHCH2CH4PC2HCH2CPH2C2HCH3CHCH2CHCHC2H4C6HC5H3C4HCHCH3C2H7C2H2CH3CH4CH3C5HC3HC3HCH2FeS2FeS2FeSFeS3FeSHFeS2FeSFeS3C6H4C3H2C2H2C2H2C3HC5H3C3HC2HCHC5HCH2C2HC7HCHC3H2CH5CHC2HCHPHC4HC2H2C2HC7HCPHC2HCHCHC4H3C3HCH9CHCHPHC3HC2SHCH3C4H4CH9C3HC6H2C3PHCHC4H2CHC2HCHC2H2CHC3HCH3C2HC2HC3HC2H6C2H2CHCHC4HCHPHC2HC2H2CHPC2H4FeS2FeS2FeSFeS5FeSFeSFeS2FeSFeSFeS3C6H4C6H8CHC4H3C2HCHSCH2C5H3C17HFeC3H2CPC2H12CHPCHC4H3CH2CHCH3CH3C5H3PC4H2CHC5HCH2CH2C3HCHSCHCH2C2HCH2CHC2H3C3H3CPCHCHCH2CHC5HC4H3CHCHCH6CHCH2C2HC3HCHC3H2CHPCHC13H4C3H11C3PC10HC3H8C6PC18H8C6H3CHCH2CHC2HC4HCHCFeCHCH3CHSHC2H2CHC2PCH2SH2FeS2FeS2FeSFeS3FeSFeS3FeS2FeSFeSFeS3C6H4C6H5CH5C4HCH2C2HC4HCH3C5H4C4HCHC6H3PSCH6CHCHC6HPC7H2C10HC3H4CH4CHPC3H8CSH2C5HFeH3CHC3HC4HCH2C6HCH4CH2C3HC6H5CHPHCHSHCFeH7CHC8PC4HC13HCH4CH13C5HC9H3C11PH5CH3C2H2CH2C2HCHC2PHC4H2SC5HCHCHC4H4C2H2C2HCH2C2FeSHFeSFeSFeS3FeS2FeS2FeSFeS3CH3CHC6H7CH2C6H6C6PC3HC14H5C2HCH4CH6CH2CHC3HCH3CH2C2HC2H5CH2C2HCHC7PH2C3HSHPH2C3PH2SHC5HCHC2HCH3C5HC2HCHC2HC8HCHCPHC2H2CHCHC3H5CHCHCH7C2HC9H4C3HPHCHC2H3C2HC3HCHC2HCHC6HCHC2HC4H3C2HCHC4SC2H2C7HPHCHC4HCH3C3HCH2CH3CFeS2CH2S2FeSCFeSCFe2S2FeS2FeS2FeCFeS3FeS2FeS2FeSFeCS2C6H4CFeH2CPH3C2HC6H4CSC6H4CHCH6C4HCH5C4H2C7HSCHCH4CH2CPHC2HC6H2C3HCH3CH3CHCH2C2HCHCHC6PC18H20C2HC4SC3HC2H4CHC2H2C4H2CHC5H3C2SHC2HC7PC16H10C4H2CH2CHC2HSH5C5FeHC2H4C3HC2H3CHCHC4HCH2PHCHSH3C3H5SHC5SH2CH3CHCHSHCSCFeCFeSCS2CFeS2FeSCFeSFeS3C3H2C3HC2HCHCH2C6H4CHCH2C3H3CHCH2CHC2H2C3H2FeCPHC2HCSCH2CHC2SC3HC2HC4H2CHC3HC3HC6H2C3PH2CHCHC4H4C5H3CHC2H2SCH2C4HC2HCHCHCH6C4HC2H4SH2C2HCHCHCH2CHC3HCHC4HSHFeCHCSHCSHFeSCHSHCFeS2FeSHFeSFeS3C4HC3H2CH2C7H5CHCHCHCHCH4C3H4CHCHC5H2CPHC2HFeCHCHC2H4C3HC2HC3HCH4CH2FeC2H2SHCH2SHPCH2C2HC7HCH2C6PHCHC3HCH3CHCHCHSH3C5HC2HCHC2H2CH2C2FeC2SC2H2C5HC6H4CH5FeSHC6HCH2FeS2C6HS2FeSCFeSCFeHFeSHSFeS2FeS2FeSFeS3FeHFeS2FeHFeS4C8H3CHC4HCHC7H4CHP2HC7H5FeHC3HCHC3SCHC2H3CH4SC3H2C2HC3H2CHC3H2CH3C2H2CHC3HC3H3C3H2SC2H2CHCH3SCHC2HC2FeCSCSH2C3H5CHCHC3H2C8H6C6PC16H2CH2CH11CH2CHC6PC9H2C2HC2HC2H4C3H2CH3CHCH2C2SH5CH4CH5C5HCH3SFeS2FeS2FeS3FeS2FeS2FeSFeHS2FeS2FeS2FeSFeS3C6H5C2SCHCH2CHC3HC2HC6HCH4C6H4C6H4CHCH2C5H2CH2C6SCSH5C4H5C2H5C2HCHCH2C3HC2H2CHFeCHCH4C3H2FeHC2SHC2HC2HCHPC2HCH2SHCH3C4H3C7HSHPH2CH4C2HFeCH3FeH6C2HC5H2CHCHC5HCHCH5CH3C6PC6HC10H6CHCH10C7PC17HC8HC3H2PHCPC3H4FeCSCHC7HCHC3H2C2HPCH3CFeS3CHCSHCFeS2FeSHFeSFeS3C2HC5H3CH3CHC3HCHC3H4CHC6H4C2H4C5H4CH2CH2CSC2H2C3HCH2C2HC2H4CFeHPCHC3HPFeH2C2HC3SH3CSCH6CHC2HC7H3PH2CH2CHC2HC4H2SH3SH2C2H5C6HC4H3C5HFeCHC3H2C2HCHPCHCHC2H3CSC2H2CHC2H2CH2C4HC5H3CHFeSHSFeS2FeS2FeSFeS3HCS2H2C2FeCH2C8H2CH2CHC3H4C6H4CSHCHCHCH2C5H2SH3C2PCHFeC6PC7HSC3HC2HC2H15CH2C5HC3H5C6PC18H7CH4CH8C6H3C2HC4HCFeHC2HC2HCH2SC3H2CHC2HCHC3HC2HC2HC2HCH4CH5CH3CHC2HCHCFeS2CSCFeSHSFeS3FeS2FeSHFeSFeS3CFeS2FeS2FeSFeS3C6H4C5H8CH2CHC5H2C6H4C6H4C2H2PHCHCHC2HC2HSC4HC7HCHCH3C4HC9PC18H21CFeC7PC18H19C3HC3HC3HCHC3H4C2H8CFeS2HFeC3HCFeH2C4HC5PCHCSC3H11CHCH2C3HC2HCSC3HPC3H2C3HC3H2C2HCHC3HCFeH7CHCHC2H2CH2CSHCH2SH3C2H2PH2C2HCFeS2FeS2FeSFeHS4C2HFeS2FeS2FeSFeS3C2HCHSH6C6HCHC2H3C6H4C6H4C5H3CH2CHPCPC5H2C6HC2H6C6PC17H12CH5C2HC10HCH3C2H2PH4C9H2C2HC2HC2HC4H6CH4CH2C8H2C2H5CHCHC5HPCHC5H3C3HCH6C7HC2HC4H3C2H3CH4CH2CFeCH2C2H2CH6C2H2CHCH2CFeS2FeSHFeSFeS3FeS2FeS2FeSFeS3FeS2FeS2FeCFeS3H2C4H10C7H4C4HC2HC2H2C6H4CH4C4PH2C3H2C2HCH3CPHCHC4H2C2H2C10HCH6CH4CHC3PC2HC2HC8HCH8CH3SHC2HCH2C2HC3HC7PC18H12CH7C6PCHC2H2C7H2CH6CH3C2H4C2HSHPCH3CHCHPC4HC4HC6H2CHCH2C3SCH3CHC2HC8HC2HCH2C2HC4HCHCSCH2CH6CH3C4PC5H2CHFeS2FeS2FeCFeS3FeS2FeS2FeHFeCS2FeS2FeS2FeSFeS3CHC3H2C2SHCH2C3H2C6H5C2HCHC3H3CHC2H3C6H4C6PC2H2C3HSH2C8HC2H4C2HCHC2H2C4HCHCHSPH2C2HC3HC2HC3H2C2HC2HCHC5H6C2H3CHCSH2CH3CH2CH4CHC3H6CHCHPHC2HCHC3HC5H3CHCH2C6PH3C2H3CH2CHCH2SCHC4HPC3HCHC6HCHC6H2CHC2HCHCH2C3SCHC3HCPC2HCHCH2C3HC4H2C4H2CH2CHC2FeS2FeS2FeSFeS3FeS2FeS2FeSFeS3C2HC2H3PHC3HCH3C6H4C2HCSCHCHC6H3CHCHC4HCH3C6PC13HCH2CH11CH3PC4H2C2HCHC2H2C4HC2PH2CHC3H2C2H2CH2C3PCHFeHCH2CH3C5HC6H2C2H2C3HC4H3CHC2PHC2H3C3H3CHCHC2H6CH3C5H2C2HC2H2C2H2C2H2CHSCHCH2CHCH2C2H3C4HC4H3CHC2HCH5C2HCSC3H2C2HCH2CPCHCH4CH2C2HC4H3CHC2HC4H6C6FeS2FeS2FeSFeS3CHSCFeSHFeSHFeSFeS3H2C2HCHC3HC2H3C6H4C6H2CH2C4HCH2CHPC3HC2H3CHSH4CH3CH2CH2SHC3H3C5HCHCH2CHC4H6C2HCHC5H2CHC2H3C3H2C2HCHCH3PHC3H2C3H5CHC3HC2HC2HC8H2C2HCSCHC4HC3FeS2FeSFeSFeS3FeS2FeS2FeHFeS3FeSHFeS2FeSFeS3C2H2C2H2CH2C3HPHCH2CH2C6H4C2HC6H5C2H2C3H3C3H3C2HSHC2H3CH2C2HCHCHCH2CHC2HCH2CHC2H5C2HPHC7HCH2PCH2CHC3H2C6HCHCHC3H2C6H2C4H2CH4C3H3CH4CSHCHC4HCSHC3H2C9HC5H3C6PC4HC10HC2H4C5HCH4CHC3HPH4CH2C2H4CH2C2FeS2FeSFeSFeS3FeS2FeS2FeHFeCS2FeS2FeSCFeSFeS3C2HCHCHCHC2HSCH2CHCH3C2H4CHC7H4C2HC7H4C5H2C2H2CHCHC2HCHPHCHCHCSHC3H2C6HC5PC18H20C2H2C9HPCH6CHC2H2C3H3C2HCH2C4HC2HSPC7HPSHCH2CHCH3CHC2HCH3C5H2C6HCHCH3C5H2C3HSH2CHC3HCH3C2H6C2HC3HCH4C4HCHCH2C3H3CH3C2H3C2HC2HFeS2FeS2FeSFeS3C4HC3FeS2FeS2FeHFeCS2CHC2HC2H4C6H5C2H2C7H5CH2C5H2CHC3HCH3C3HC2HSC4HC4HCH2C3HCH6CH2CHCH2CH4C6PC18H20C4H3C3SCHCPC3HCH2C5H3CPCHC2H2CH2CSH6CHC
_chemical_formula_sum              "Fe256 S512 C3840 H3072 P128"
_cell_length_a       55.6783
_cell_length_b       55.9232
_cell_length_c       95.0731
_cell_angle_alpha    82.0772
_cell_angle_beta     82.1602
_cell_angle_gamma    80.8861

_space_group_name_H-M_alt    "P 1"
_space_group_IT_number       1

loop_
  _space_group_symop_operation_xyz
  'x, y, z'

loop_
  _atom_site_type_symbol
  _atom_site_label
  _atom_site_symmetry_multiplicity
  _atom_site_fract_x
  _atom_site_fract_y
  _atom_site_fract_z
  _atom_site_occupancy
  Fe  Fe1       1.0  0.24663  0.38271  0.15703  1.0000
  S   S1        1.0  0.20625  0.38611  0.16402  1.0000
  S   S2        1.0  0.26918  0.41452  0.15215  1.0000
  Fe  Fe2       1.0  0.25138  0.32664  0.15709  1.0000
  S   S3        1.0  0.21090  0.32693  0.16403  1.0000
  S   S4        1.0  0.27091  0.28779  0.15484  1.0000
  Fe  Fe3       1.0  0.20563  0.36023  0.14776  1.0000
  S   S5        1.0  0.17489  0.36740  0.13320  1.0000
  Fe  Fe4       1.0  0.21526  0.35239  0.17954  1.0000
  S   S6        1.0  0.20438  0.34986  0.20376  1.0000
  S   S7        1.0  0.24568  0.35850  0.13986  1.0000
  S   S8        1.0  0.25601  0.35045  0.17343  1.0000
  Fe  Fe5       1.0  0.10630  0.35001  0.04390  1.0000
  S   S9        1.0  0.14607  0.33450  0.03943  1.0000
  S   S10       1.0  0.08136  0.32184  0.05235  1.0000
  Fe  Fe6       1.0  0.11682  0.40167  0.03572  1.0000
  S   S11       1.0  0.15716  0.38996  0.03119  1.0000
  S   S12       1.0  0.09925  0.44091  0.03227  1.0000
  Fe  Fe7       1.0  0.14623  0.36171  0.01962  1.0000
  S   S13       1.0  0.16735  0.35718  0.99765  1.0000
  Fe  Fe8       1.0  0.15311  0.36420  0.05146  1.0000
  S   S14       1.0  0.18288  0.35660  0.06650  1.0000
  S   S15       1.0  0.10594  0.37468  0.02322  1.0000
  S   S16       1.0  0.11334  0.37824  0.05696  1.0000
  C   C1        1.0  0.12009  0.46154  0.03238  1.0000
  C   C2        1.0  0.14503  0.45529  0.02807  1.0000
  C   C3        1.0  0.16183  0.47046  0.02995  1.0000
  C   C4        1.0  0.26305  0.48360  0.09164  1.0000
  C   C5        1.0  0.30488  0.18322  0.15605  1.0000
  H   H1        1.0  0.20833  0.27634  0.10571  1.0000
  H   H2        1.0  0.15146  0.43888  0.02316  1.0000
  H   H3        1.0  0.18117  0.46527  0.02679  1.0000
  H   H4        1.0  0.06496  0.37763  0.00490  1.0000
  H   H5        1.0  0.05497  0.42517  0.97662  1.0000
  C   C6        1.0  0.26888  0.44532  0.15550  1.0000
  C   C7        1.0  0.29092  0.45500  0.15187  1.0000
  H   H6        1.0  0.17805  0.30464  0.06656  1.0000
  C   C8        1.0  0.24806  0.46053  0.16103  1.0000
  H   H7        1.0  0.30712  0.44364  0.14761  1.0000
  C   C9        1.0  0.08472  0.43801  0.09575  1.0000
  H   H8        1.0  0.23090  0.45337  0.16397  1.0000
  C   C10       1.0  0.17773  0.36474  0.11457  1.0000
  C   C11       1.0  0.15670  0.37066  0.10738  1.0000
  C   C12       1.0  0.15782  0.36802  0.09274  1.0000
  C   C13       1.0  0.18017  0.35986  0.08504  1.0000
  C   C14       1.0  0.20123  0.35407  0.09221  1.0000
  C   C15       1.0  0.20005  0.35644  0.10689  1.0000
  H   H9        1.0  0.13939  0.37713  0.11322  1.0000
  H   H10       1.0  0.14143  0.37231  0.08741  1.0000
  H   H11       1.0  0.21858  0.34763  0.08638  1.0000
  H   H12       1.0  0.21637  0.35176  0.11227  1.0000
  C   C16       1.0  0.30253  0.27636  0.15504  1.0000
  H   H13       1.0  0.23359  0.25988  0.17959  1.0000
  C   C17       1.0  0.10570  0.29032  0.13959  1.0000
  H   H14       1.0  0.24911  0.30987  0.20571  1.0000
  C   C18       1.0  0.12967  0.35396  0.98199  1.0000
  H   H15       1.0  0.22046  0.43654  0.14212  1.0000
  H   H16       1.0  0.21109  0.49162  0.10643  1.0000
  H   H17       1.0  0.14863  0.32700  0.12557  1.0000
  C   C19       1.0  0.17057  0.31702  0.20953  1.0000
  C   C20       1.0  0.00373  0.47144  0.12346  1.0000
  H   H18       1.0  0.25244  0.30473  0.09685  1.0000
  H   H19       1.0  0.17241  0.31614  0.19813  1.0000
  H   H20       1.0  0.09282  0.27986  0.13663  1.0000
  H   H21       1.0  0.28082  0.48046  0.12483  1.0000
  H   H22       1.0  0.03536  0.28042  0.97131  1.0000
  C   C21       1.0  0.31301  0.21052  0.20464  1.0000
  C   C22       1.0  0.15421  0.35681  0.98171  1.0000
  C   C23       1.0  0.00599  0.44856  0.11867  1.0000
  C   C24       1.0  0.27989  0.17496  0.20183  1.0000
  C   C25       1.0  0.25313  0.14947  0.19470  1.0000
  C   C26       1.0  0.12059  0.30332  0.12911  1.0000
  C   C27       1.0  0.27354  0.13473  0.18867  1.0000
  P   P1        1.0  0.28373  0.20013  0.21098  1.0000
  H   H23       1.0  0.10514  0.35152  0.12073  1.0000
  C   C28       1.0  0.28208  0.28584  0.21043  1.0000
  C   C29       1.0  0.12382  0.30410  0.15829  1.0000
  H   H24       1.0  0.07131  0.43805  0.10511  1.0000
  C   C30       1.0  0.03362  0.34346  0.04860  1.0000
  C   C31       1.0  0.04933  0.32702  0.05692  1.0000
  C   C32       1.0  0.03932  0.31219  0.06860  1.0000
  H   H25       1.0  0.04116  0.35477  0.03946  1.0000
  H   H26       1.0  0.05129  0.29925  0.07497  1.0000
  H   H27       1.0  0.15138  0.32759  0.15113  1.0000
  H   H28       1.0  0.12512  0.30444  0.16954  1.0000
  C   C33       1.0  0.17660  0.49221  0.98819  1.0000
  H   H29       1.0  0.23485  0.46249  0.98223  1.0000
  H   H30       1.0  0.05153  0.39178  0.04929  1.0000
  H   H31       1.0  0.14143  0.24411  0.97087  1.0000
  H   H32       1.0  0.06085  0.41605  0.01578  1.0000
  H   H33       1.0  0.14394  0.29199  0.21457  1.0000
  C   C34       1.0  0.10457  0.23687  0.10218  1.0000
  C   C35       1.0  0.20390  0.49173  0.07723  1.0000
  H   H34       1.0  0.06971  0.22550  0.10110  1.0000
  H   H35       1.0  0.00528  0.43601  0.97243  1.0000
  C   C36       1.0  0.01355  0.37497  0.97943  1.0000
  C   C37       1.0  0.21646  0.46602  0.12504  1.0000
  P   P2        1.0  0.02908  0.34424  0.00335  1.0000
  H   H36       1.0  0.06940  0.33715  0.02124  1.0000
  C   C38       1.0  0.29245  0.47917  0.15370  1.0000
  C   C39       1.0  0.13701  0.31676  0.13343  1.0000
  C   C40       1.0  0.00815  0.29267  0.03597  1.0000
  H   H37       1.0  0.11440  0.42090  0.10782  1.0000
  H   H38       1.0  0.24027  0.18063  0.20598  1.0000
  C   C41       1.0  0.30989  0.25099  0.15595  1.0000
  P   P3        1.0  0.31136  0.21532  0.11455  1.0000
  H   H39       1.0  0.16736  0.28274  0.11913  1.0000
  C   C42       1.0  0.29896  0.20459  0.13246  1.0000
  H   H40       1.0  0.11800  0.35327  0.99204  1.0000
  H   H41       1.0  0.10651  0.47911  0.11487  1.0000
  H   H42       1.0  0.00656  0.39137  0.05245  1.0000
  H   H43       1.0  0.01641  0.28118  0.04468  1.0000
  C   C43       1.0  0.14551  0.44572  0.99106  1.0000
  H   H44       1.0  0.02041  0.43439  0.02661  1.0000
  C   C44       1.0  0.11183  0.48394  0.03764  1.0000
  C   C45       1.0  0.32043  0.29170  0.15389  1.0000
  C   C46       1.0  0.26440  0.20251  0.15098  1.0000
  H   H45       1.0  0.07455  0.45265  0.99513  1.0000
  C   C47       1.0  0.07574  0.32822  0.01175  1.0000
  C   C48       1.0  0.25454  0.23307  0.19339  1.0000
  H   H46       1.0  0.00959  0.31413  0.98590  1.0000
  C   C49       1.0  0.10623  0.47124  0.98976  1.0000
  C   C50       1.0  0.09930  0.31507  0.01053  1.0000
  H   H47       1.0  0.29620  0.23899  0.15690  1.0000
  C   C51       1.0  0.27653  0.47457  0.11520  1.0000
  H   H48       1.0  0.26149  0.22033  0.12971  1.0000
  H   H49       1.0  0.21385  0.28714  0.07934  1.0000
  H   H50       1.0  0.06153  0.39137  0.08913  1.0000
  C   C52       1.0  0.04495  0.40706  0.01582  1.0000
  H   H51       1.0  0.06884  0.42052  0.06071  1.0000
  C   C53       1.0  0.27995  0.18925  0.16054  1.0000
  C   C54       1.0  0.07794  0.44738  0.08213  1.0000
  H   H52       1.0  0.22446  0.47828  0.13034  1.0000
  H   H53       1.0  0.05752  0.31663  0.98088  1.0000
  H   H54       1.0  0.11096  0.31441  0.01888  1.0000
  C   C55       1.0  0.09596  0.44714  0.07033  1.0000
  C   C56       1.0  0.12015  0.43706  0.07189  1.0000
  C   C57       1.0  0.12679  0.42763  0.08540  1.0000
  C   C58       1.0  0.10911  0.42819  0.09735  1.0000
  C   C59       1.0  0.15376  0.49208  0.03609  1.0000
  C   C60       1.0  0.02683  0.37281  0.01071  1.0000
  H   H55       1.0  0.13645  0.25301  0.10368  1.0000
  C   C61       1.0  0.19657  0.47672  0.98215  1.0000
  H   H56       1.0  0.08005  0.38903  0.11170  1.0000
  H   H57       1.0  0.02005  0.38952  0.98358  1.0000
  C   C62       1.0  0.23588  0.25233  0.19055  1.0000
  C   C63       1.0  0.03395  0.43626  0.07134  1.0000
  H   H58       1.0  0.33097  0.11131  0.20949  1.0000
  H   H59       1.0  0.09103  0.45420  0.05982  1.0000
  H   H60       1.0  0.13358  0.43630  0.06252  1.0000
  H   H61       1.0  0.14562  0.41984  0.08659  1.0000
  H   H62       1.0  0.31506  0.31125  0.15314  1.0000
  C   C64       1.0  0.27381  0.21001  0.13695  1.0000
  H   H63       1.0  0.27118  0.11914  0.18365  1.0000
  C   C65       1.0  0.28527  0.26141  0.11818  1.0000
  C   C66       1.0  0.02213  0.41743  0.02198  1.0000
  H   H64       1.0  0.23488  0.14529  0.19438  1.0000
  C   C67       1.0  0.15624  0.47824  0.08951  1.0000
  H   H65       1.0  0.31867  0.16379  0.19587  1.0000
  H   H66       1.0  0.31297  0.12875  0.18447  1.0000
  C   C68       1.0  0.13862  0.31711  0.14794  1.0000
  C   C69       1.0  0.09271  0.30372  0.98788  1.0000
  C   C70       1.0  0.00966  0.48406  0.99737  1.0000
  H   H67       1.0  0.04101  0.30725  0.02785  1.0000
  H   H68       1.0  0.00680  0.48386  0.06282  1.0000
  H   H69       1.0  0.27082  0.42237  0.10213  1.0000
  C   C71       1.0  0.00796  0.34426  0.05174  1.0000
  H   H70       1.0  0.12641  0.29333  0.99742  1.0000
  H   H71       1.0  0.31817  0.13952  0.07922  1.0000
  H   H72       1.0  0.22707  0.46955  0.06219  1.0000
  C   C72       1.0  0.28627  0.24859  0.09476  1.0000
  C   C73       1.0  0.10736  0.29072  0.15412  1.0000
  H   H73       1.0  0.02072  0.42661  0.10184  1.0000
  H   H74       1.0  0.10191  0.34754  0.96985  1.0000
  H   H75       1.0  0.06670  0.29834  0.11133  1.0000
  C   C74       1.0  0.27164  0.27049  0.09052  1.0000
  H   H76       1.0  0.06811  0.35539  0.07575  1.0000
  C   C75       1.0  0.06041  0.32928  0.00102  1.0000
  C   C76       1.0  0.07902  0.24013  0.10305  1.0000
  C   C77       1.0  0.29705  0.14012  0.18913  1.0000
  C   C78       1.0  0.21957  0.47450  0.98694  1.0000
  C   C79       1.0  0.25875  0.29838  0.21395  1.0000
  C   C80       1.0  0.21416  0.44252  0.13173  1.0000
  H   H77       1.0  0.28629  0.17182  0.11711  1.0000
  C   C81       1.0  0.10807  0.42773  0.99640  1.0000
  C   C82       1.0  0.26368  0.45865  0.09100  1.0000
  C   C83       1.0  0.00015  0.27132  0.96903  1.0000
  C   C84       1.0  0.18933  0.42521  0.05498  1.0000
  C   C85       1.0  0.20832  0.40629  0.05760  1.0000
  C   C86       1.0  0.22078  0.40521  0.06950  1.0000
  C   C87       1.0  0.21438  0.42318  0.07874  1.0000
  C   C88       1.0  0.19495  0.44210  0.07632  1.0000
  C   C89       1.0  0.18287  0.44325  0.06417  1.0000
  P   P4        1.0  0.18873  0.46712  0.08705  1.0000
  C   C90       1.0  0.00780  0.33264  0.98062  1.0000
  C   C91       1.0  0.19886  0.45752  0.10453  1.0000
  C   C92       1.0  0.19584  0.43416  0.11157  1.0000
  C   C93       1.0  0.20375  0.42666  0.12503  1.0000
  H   H78       1.0  0.25837  0.45248  0.08172  1.0000
  C   C94       1.0  0.04933  0.42032  0.06265  1.0000
  C   C95       1.0  0.25868  0.22424  0.20756  1.0000
  C   C96       1.0  0.10788  0.30297  0.99854  1.0000
  C   C97       1.0  0.01868  0.44459  0.10526  1.0000
  C   C98       1.0  0.06900  0.31661  0.98916  1.0000
  H   H79       1.0  0.09899  0.41181  0.99946  1.0000
  H   H80       1.0  0.17972  0.42588  0.04576  1.0000
  H   H81       1.0  0.21309  0.39219  0.05053  1.0000
  H   H82       1.0  0.23528  0.39028  0.07160  1.0000
  H   H83       1.0  0.22485  0.42232  0.08761  1.0000
  H   H84       1.0  0.16881  0.45829  0.06158  1.0000
  H   H85       1.0  0.18743  0.42165  0.10670  1.0000
  H   H86       1.0  0.20178  0.40850  0.13031  1.0000
  C   C99       1.0  0.20890  0.47350  0.11148  1.0000
  H   H87       1.0  0.09324  0.31752  0.08454  1.0000
  H   H88       1.0  0.11507  0.21970  0.09956  1.0000
  H   H89       1.0  0.13721  0.31267  0.07980  1.0000
  C   C100      1.0  0.24956  0.48515  0.16275  1.0000
  H   H90       1.0  0.26625  0.22561  0.18450  1.0000
  H   H91       1.0  0.29204  0.23545  0.08719  1.0000
  C   C101      1.0  0.00671  0.44950  0.97930  1.0000
  H   H92       1.0  0.29873  0.24352  0.19162  1.0000
  C   C102      1.0  0.27714  0.44967  0.11453  1.0000
  C   C103      1.0  0.27071  0.44169  0.10246  1.0000
  C   C104      1.0  0.25627  0.16953  0.20123  1.0000
  C   C105      1.0  0.30024  0.16014  0.19566  1.0000
  C   C106      1.0  0.22050  0.26221  0.20182  1.0000
  H   H93       1.0  0.09588  0.28065  0.16218  1.0000
  C   C107      1.0  0.07748  0.28127  0.10878  1.0000
  H   H94       1.0  0.28214  0.43654  0.12354  1.0000
  H   H95       1.0  0.26642  0.27410  0.07978  1.0000
  H   H96       1.0  0.24510  0.20728  0.15450  1.0000
  C   C108      1.0  0.26378  0.28777  0.10011  1.0000
  C   C109      1.0  0.19268  0.28405  0.10010  1.0000
  C   C110      1.0  0.19580  0.28998  0.08528  1.0000
  C   C111      1.0  0.17560  0.29983  0.07806  1.0000
  C   C112      1.0  0.15238  0.30459  0.08567  1.0000
  C   C113      1.0  0.14908  0.29908  0.10061  1.0000
  C   C114      1.0  0.16937  0.28815  0.10771  1.0000
  P   P5        1.0  0.11865  0.30312  0.11027  1.0000
  C   C115      1.0  0.10133  0.33151  0.10334  1.0000
  C   C116      1.0  0.10318  0.27827  0.10770  1.0000
  C   C117      1.0  0.11664  0.25584  0.10450  1.0000
  C   C118      1.0  0.14194  0.47278  0.10259  1.0000
  C   C119      1.0  0.09731  0.35195  0.11089  1.0000
  P   P6        1.0  0.04630  0.45834  0.07948  1.0000
  C   C120      1.0  0.02871  0.46370  0.09641  1.0000
  C   C121      1.0  0.09064  0.33298  0.09061  1.0000
  C   C122      1.0  0.07620  0.35445  0.08560  1.0000
  C   C123      1.0  0.07248  0.37471  0.09313  1.0000
  C   C124      1.0  0.08297  0.37342  0.10580  1.0000
  C   C125      1.0  0.03955  0.40389  0.05604  1.0000
  C   C126      1.0  0.01128  0.32383  0.01546  1.0000
  H   H97       1.0  0.27956  0.04285  0.21747  1.0000
  C   C127      1.0  0.06548  0.26230  0.10638  1.0000
  C   C128      1.0  0.13359  0.42523  0.99504  1.0000
  C   C129      1.0  0.01628  0.35105  0.98648  1.0000
  H   H98       1.0  0.29060  0.28776  0.19944  1.0000
  C   C130      1.0  0.31434  0.19074  0.14204  1.0000
  C   C131      1.0  0.13192  0.46890  0.98834  1.0000
  H   H99       1.0  0.14420  0.40738  0.99712  1.0000
  C   C132      1.0  0.04726  0.38503  0.00995  1.0000
  C   C133      1.0  0.09435  0.45073  0.99385  1.0000
  C   C134      1.0  0.27062  0.28321  0.11394  1.0000
  H   H100      1.0  0.29016  0.13875  0.10190  1.0000
  H   H101      1.0  0.09952  0.29464  0.97852  1.0000
  C   C135      1.0  0.31468  0.23224  0.19536  1.0000
  C   C136      1.0  0.00859  0.43557  0.07314  1.0000
  C   C137      1.0  0.31576  0.15455  0.08564  1.0000
  H   H102      1.0  0.16528  0.44324  0.99006  1.0000
  H   H103      1.0  0.14966  0.46075  0.11126  1.0000
  C   C138      1.0  0.02208  0.30777  0.02633  1.0000
  H   H104      1.0  0.20615  0.27727  0.19962  1.0000
  C   C139      1.0  0.22380  0.25287  0.21595  1.0000
  H   H105      1.0  0.31197  0.00429  0.20630  1.0000
  H   H106      1.0  0.24066  0.48622  0.00145  1.0000
  C   C140      1.0  0.18400  0.33204  0.21495  1.0000
  C   C141      1.0  0.11734  0.48322  0.10472  1.0000
  C   C142      1.0  0.29320  0.24386  0.10866  1.0000
  C   C143      1.0  0.04334  0.48649  0.06750  1.0000
  H   H107      1.0  0.27269  0.18379  0.17142  1.0000
  H   H108      1.0  0.31225  0.26087  0.21826  1.0000
  H   H109      1.0  0.04567  0.26489  0.10697  1.0000
  C   C144      1.0  0.30015  0.15406  0.09847  1.0000
  C   C145      1.0  0.22147  0.48762  0.06537  1.0000
  H   H110      1.0  0.29024  0.25824  0.12898  1.0000
  H   H111      1.0  0.00646  0.30218  0.08113  1.0000
  H   H112      1.0  0.31705  0.17302  0.16347  1.0000
  H   H113      1.0  0.09333  0.39631  0.97614  1.0000
  C   C146      1.0  0.00392  0.38380  0.01653  1.0000
  H   H114      1.0  0.26462  0.29655  0.12145  1.0000
  C   C147      1.0  0.01392  0.31373  0.07204  1.0000
  C   C148      1.0  0.02338  0.48480  0.98386  1.0000
  C   C149      1.0  0.02175  0.46769  0.97463  1.0000
  C   C150      1.0  0.29802  0.17289  0.10706  1.0000
  C   C151      1.0  0.31160  0.19235  0.10284  1.0000
  C   C152      1.0  0.02662  0.48654  0.10136  1.0000
  H   H115      1.0  0.30978  0.48606  0.15080  1.0000
  H   H116      1.0  0.09538  0.48886  0.98760  1.0000
  C   C153      1.0  0.01434  0.40348  0.05787  1.0000
  H   H117      1.0  0.19441  0.46644  0.97365  1.0000
  H   H118      1.0  0.10169  0.22804  0.97662  1.0000
  H   H119      1.0  0.09249  0.48918  0.04052  1.0000
  H   H120      1.0  0.32095  0.01879  0.18067  1.0000
  C   C154      1.0  0.32210  0.01958  0.20318  1.0000
  C   C155      1.0  0.26992  0.49171  0.10365  1.0000
  C   C156      1.0  0.22286  0.48786  0.99773  1.0000
  C   C157      1.0  0.12056  0.35086  0.96934  1.0000
  C   C158      1.0  0.32665  0.19308  0.08970  1.0000
  C   C159      1.0  0.00155  0.40594  0.02219  1.0000
  C   C160      1.0  0.32701  0.02785  0.18864  1.0000
  C   C161      1.0  0.32889  0.17410  0.08122  1.0000
  C   C162      1.0  0.32992  0.03118  0.21360  1.0000
  C   C163      1.0  0.99893  0.41918  0.06642  1.0000
  C   C164      1.0  0.01417  0.49036  0.11485  1.0000
  C   C165      1.0  0.10330  0.24400  0.96886  1.0000
  Fe  Fe9       1.0  0.09394  0.26116  0.29532  1.0000
  S   S17       1.0  0.09597  0.29887  0.28394  1.0000
  S   S18       1.0  0.05606  0.25308  0.30606  1.0000
  Fe  Fe10      1.0  0.15082  0.24887  0.29387  1.0000
  S   S19       1.0  0.15529  0.28626  0.28260  1.0000
  S   S20       1.0  0.18846  0.22891  0.29919  1.0000
  Fe  Fe11      1.0  0.12439  0.30051  0.29839  1.0000
  S   S21       1.0  0.12585  0.33458  0.30880  1.0000
  Fe  Fe12      1.0  0.12689  0.28101  0.26930  1.0000
  S   S22       1.0  0.13052  0.28756  0.24493  1.0000
  S   S23       1.0  0.12133  0.26374  0.31048  1.0000
  S   S24       1.0  0.12333  0.24269  0.27978  1.0000
  Fe  Fe13      1.0  0.28145  0.10501  0.29008  1.0000
  C   C166      1.0  0.18952  0.36143  0.35449  1.0000
  S   S25       1.0  0.24105  0.12098  0.29026  1.0000
  P   P7        1.0  0.21363  0.46741  0.45067  1.0000
  C   C167      1.0  0.26969  0.13290  0.32685  1.0000
  H   H121      1.0  0.27951  0.19857  0.30757  1.0000
  H   H122      1.0  0.02075  0.43090  0.46623  1.0000
  H   H123      1.0  0.30703  0.21445  0.23382  1.0000
  S   S26       1.0  0.29703  0.07369  0.30570  1.0000
  S   S27       1.0  0.29872  0.08773  0.27031  1.0000
  Fe  Fe14      1.0  0.08963  0.41833  0.39163  1.0000
  S   S28       1.0  0.08511  0.38081  0.40219  1.0000
  S   S29       1.0  0.05504  0.44168  0.38564  1.0000
  Fe  Fe15      1.0  0.14367  0.41040  0.39422  1.0000
  S   S30       1.0  0.14320  0.37194  0.40499  1.0000
  S   S31       1.0  0.18018  0.42410  0.38970  1.0000
  Fe  Fe16      1.0  0.11935  0.36873  0.38804  1.0000
  S   S32       1.0  0.12151  0.33529  0.37630  1.0000
  Fe  Fe17      1.0  0.10891  0.38783  0.41799  1.0000
  S   S33       1.0  0.09324  0.38528  0.44149  1.0000
  S   S34       1.0  0.12235  0.40602  0.37648  1.0000
  S   S35       1.0  0.11116  0.42648  0.40819  1.0000
  H   H124      1.0  0.03979  0.36422  0.37365  1.0000
  C   C168      1.0  0.18389  0.45281  0.39415  1.0000
  C   C169      1.0  0.20771  0.45842  0.39317  1.0000
  H   H125      1.0  0.21489  0.37761  0.38172  1.0000
  H   H126      1.0  0.07474  0.37635  0.31022  1.0000
  C   C170      1.0  0.99977  0.30965  0.34425  1.0000
  C   C171      1.0  0.16400  0.47022  0.39823  1.0000
  H   H127      1.0  0.22313  0.44513  0.38999  1.0000
  H   H128      1.0  0.13363  0.43003  0.45500  1.0000
  H   H129      1.0  0.33090  0.06718  0.24062  1.0000
  H   H130      1.0  0.14551  0.46614  0.39888  1.0000
  H   H131      1.0  0.32518  0.11126  0.23591  1.0000
  H   H132      1.0  0.18322  0.31484  0.35370  1.0000
  H   H133      1.0  0.22180  0.41680  0.44455  1.0000
  H   H134      1.0  0.19140  0.34487  0.23407  1.0000
  H   H135      1.0  0.04487  0.35315  0.45140  1.0000
  C   C172      1.0  0.12078  0.33609  0.35758  1.0000
  C   C173      1.0  0.11956  0.31435  0.35201  1.0000
  C   C174      1.0  0.12057  0.31376  0.33716  1.0000
  C   C175      1.0  0.12288  0.33491  0.32766  1.0000
  C   C176      1.0  0.12331  0.35684  0.33325  1.0000
  C   C177      1.0  0.12220  0.35747  0.34812  1.0000
  H   H136      1.0  0.11829  0.29773  0.35922  1.0000
  H   H137      1.0  0.12020  0.29680  0.33303  1.0000
  H   H138      1.0  0.12470  0.37343  0.32606  1.0000
  H   H139      1.0  0.12289  0.37440  0.35223  1.0000
  C   C178      1.0  0.15158  0.30459  0.23371  1.0000
  C   C179      1.0  0.99988  0.40396  0.28098  1.0000
  C   C180      1.0  0.16512  0.31953  0.23914  1.0000
  C   C181      1.0  0.18055  0.41289  0.31310  1.0000
  H   H140      1.0  0.16294  0.32083  0.25050  1.0000
  C   C182      1.0  0.20297  0.19925  0.29579  1.0000
  C   C183      1.0  0.22823  0.19299  0.29683  1.0000
  C   C184      1.0  0.24031  0.16925  0.29502  1.0000
  C   C185      1.0  0.22717  0.15148  0.29210  1.0000
  C   C186      1.0  0.20204  0.15792  0.29076  1.0000
  C   C187      1.0  0.18999  0.18167  0.29255  1.0000
  H   H141      1.0  0.23846  0.20661  0.29908  1.0000
  H   H142      1.0  0.25963  0.16456  0.29607  1.0000
  H   H143      1.0  0.19172  0.14435  0.28849  1.0000
  H   H144      1.0  0.17058  0.18621  0.29169  1.0000
  H   H145      1.0  0.25872  0.16292  0.23014  1.0000
  C   C188      1.0  0.17505  0.36535  0.30959  1.0000
  C   C189      1.0  0.08900  0.47735  0.42956  1.0000
  C   C190      1.0  0.10736  0.37184  0.45683  1.0000
  C   C191      1.0  0.12831  0.35436  0.45608  1.0000
  H   H146      1.0  0.23028  0.48543  0.39508  1.0000
  H   H147      1.0  0.13670  0.34907  0.44581  1.0000
  C   C192      1.0  0.04605  0.39912  0.37808  1.0000
  C   C193      1.0  0.03579  0.42073  0.38371  1.0000
  H   H148      1.0  0.29106  0.21551  0.34973  1.0000
  H   H149      1.0  0.29940  0.31546  0.29600  1.0000
  H   H150      1.0  0.06541  0.39599  0.37436  1.0000
  H   H151      1.0  0.22823  0.06968  0.25159  1.0000
  S   S36       1.0  0.32657  0.01704  0.28419  1.0000
  C   C194      1.0  0.02898  0.25101  0.29850  1.0000
  C   C195      1.0  0.02943  0.24675  0.28429  1.0000
  C   C196      1.0  0.17358  0.27271  0.33340  1.0000
  H   H152      1.0  0.04671  0.24466  0.27751  1.0000
  C   C197      1.0  0.22057  0.21278  0.26092  1.0000
  C   C198      1.0  0.19613  0.21934  0.25840  1.0000
  C   C199      1.0  0.18669  0.24390  0.25535  1.0000
  C   C200      1.0  0.20152  0.26198  0.25508  1.0000
  C   C201      1.0  0.22586  0.25558  0.25803  1.0000
  C   C202      1.0  0.23546  0.23080  0.26064  1.0000
  P   P8        1.0  0.24542  0.27871  0.25710  1.0000
  C   C203      1.0  0.26600  0.26999  0.27063  1.0000
  C   C204      1.0  0.26006  0.28160  0.23889  1.0000
  C   C205      1.0  0.00994  0.45596  0.44792  1.0000
  C   C206      1.0  0.17359  0.46064  0.43740  1.0000
  C   C207      1.0  0.26429  0.45683  0.45162  1.0000
  H   H153      1.0  0.00401  0.47659  0.42732  1.0000
  Fe  Fe18      1.0  0.31601  0.05788  0.28590  1.0000
  C   C208      1.0  0.25780  0.25780  0.28394  1.0000
  C   C209      1.0  0.27324  0.25182  0.29471  1.0000
  C   C210      1.0  0.29701  0.25781  0.29227  1.0000
  C   C211      1.0  0.30509  0.27048  0.27919  1.0000
  C   C212      1.0  0.28950  0.27694  0.26849  1.0000
  C   C213      1.0  0.22811  0.30718  0.26185  1.0000
  C   C214      1.0  0.20993  0.30707  0.27360  1.0000
  C   C215      1.0  0.19612  0.32893  0.27732  1.0000
  C   C216      1.0  0.20089  0.35112  0.26959  1.0000
  C   C217      1.0  0.21970  0.35148  0.25824  1.0000
  C   C218      1.0  0.23344  0.32963  0.25446  1.0000
  H   H154      1.0  0.22774  0.19372  0.26345  1.0000
  H   H155      1.0  0.01163  0.25851  0.34667  1.0000
  H   H156      1.0  0.16518  0.25627  0.33430  1.0000
  H   H157      1.0  0.19390  0.28087  0.25260  1.0000
  H   H158      1.0  0.25434  0.22536  0.26261  1.0000
  H   H159      1.0  0.29251  0.25607  0.24315  1.0000
  H   H160      1.0  0.30335  0.44873  0.45214  1.0000
  C   C219      1.0  0.01660  0.29701  0.37806  1.0000
  C   C220      1.0  0.00774  0.35529  0.44610  1.0000
  H   H161      1.0  0.23937  0.25305  0.28607  1.0000
  H   H162      1.0  0.26668  0.24259  0.30495  1.0000
  C   C221      1.0  0.28621  0.03976  0.25282  1.0000
  H   H163      1.0  0.29574  0.28747  0.25861  1.0000
  H   H164      1.0  0.20621  0.28998  0.27975  1.0000
  H   H165      1.0  0.18133  0.32862  0.28601  1.0000
  H   H166      1.0  0.18991  0.36799  0.27232  1.0000
  H   H167      1.0  0.07917  0.44104  0.46091  1.0000
  H   H168      1.0  0.24801  0.33042  0.24570  1.0000
  C   C222      1.0  0.18383  0.30605  0.34420  1.0000
  H   H169      1.0  0.32421  0.07903  0.36962  1.0000
  C   C223      1.0  0.06501  0.34012  0.31315  1.0000
  C   C224      1.0  0.05512  0.32193  0.32274  1.0000
  C   C225      1.0  0.04604  0.32640  0.33679  1.0000
  C   C226      1.0  0.04633  0.34946  0.34092  1.0000
  P   P9        1.0  0.03081  0.30406  0.34867  1.0000
  H   H170      1.0  0.18342  0.27374  0.31067  1.0000
  C   C227      1.0  0.04537  0.27381  0.34553  1.0000
  C   C228      1.0  0.03142  0.25508  0.34525  1.0000
  C   C229      1.0  0.04306  0.23167  0.34289  1.0000
  C   C230      1.0  0.06862  0.22671  0.34112  1.0000
  C   C231      1.0  0.08257  0.24507  0.34188  1.0000
  C   C232      1.0  0.07100  0.26855  0.34408  1.0000
  H   H171      1.0  0.17237  0.34722  0.30820  1.0000
  C   C233      1.0  0.28287  0.18989  0.22995  1.0000
  H   H172      1.0  0.25840  0.05411  0.26876  1.0000
  C   C234      1.0  0.05790  0.31302  0.38527  1.0000
  H   H173      1.0  0.17163  0.36164  0.35115  1.0000
  C   C235      1.0  0.03394  0.30554  0.36718  1.0000
  C   C236      1.0  0.01664  0.41958  0.27466  1.0000
  H   H174      1.0  0.20598  0.39643  0.32789  1.0000
  H   H175      1.0  0.12392  0.45093  0.35574  1.0000
  H   H176      1.0  0.15939  0.46181  0.36548  1.0000
  C   C237      1.0  0.05494  0.31298  0.37090  1.0000
  C   C238      1.0  0.00922  0.44088  0.29569  1.0000
  C   C239      1.0  0.01950  0.29722  0.39242  1.0000
  H   H177      1.0  0.05471  0.30439  0.31918  1.0000
  H   H178      1.0  0.16061  0.39102  0.45772  1.0000
  H   H179      1.0  0.15978  0.41240  0.42330  1.0000
  H   H180      1.0  0.03231  0.21752  0.34205  1.0000
  H   H181      1.0  0.07763  0.20876  0.33889  1.0000
  H   H182      1.0  0.10238  0.24124  0.34047  1.0000
  H   H183      1.0  0.08201  0.28267  0.34453  1.0000
  C   C240      1.0  0.02101  0.43390  0.45475  1.0000
  C   C241      1.0  0.10177  0.48578  0.35789  1.0000
  C   C242      1.0  0.16964  0.42271  0.42885  1.0000
  C   C243      1.0  0.26687  0.34199  0.29749  1.0000
  C   C244      1.0  0.08007  0.45903  0.43945  1.0000
  H   H184      1.0  0.19883  0.39322  0.43229  1.0000
  C   C245      1.0  0.00630  0.25326  0.30718  1.0000
  C   C246      1.0  0.16809  0.49323  0.40120  1.0000
  H   H185      1.0  0.22337  0.36867  0.25219  1.0000
  H   H186      1.0  0.06913  0.31873  0.36277  1.0000
  H   H187      1.0  0.23294  0.36536  0.30153  1.0000
  C   C247      1.0  0.29422  0.27072  0.22103  1.0000
  C   C248      1.0  0.21388  0.37044  0.37180  1.0000
  C   C249      1.0  0.24609  0.06038  0.24787  1.0000
  C   C250      1.0  0.00646  0.38499  0.38224  1.0000
  H   H188      1.0  0.27380  0.01484  0.28496  1.0000
  H   H189      1.0  0.06432  0.35083  0.42696  1.0000
  H   H190      1.0  0.17451  0.37687  0.37392  1.0000
  C   C251      1.0  0.22696  0.13547  0.34620  1.0000
  C   C252      1.0  0.29643  0.20008  0.23844  1.0000
  H   H191      1.0  0.24549  0.22755  0.22986  1.0000
  H   H192      1.0  0.25293  0.36247  0.36675  1.0000
  H   H193      1.0  0.00819  0.24056  0.26806  1.0000
  H   H194      1.0  0.27199  0.35238  0.28732  1.0000
  C   C253      1.0  0.20461  0.42540  0.44083  1.0000
  H   H195      1.0  0.21037  0.13649  0.35364  1.0000
  H   H196      1.0  0.16559  0.27686  0.35582  1.0000
  C   C254      1.0  0.10139  0.47031  0.45767  1.0000
  H   H197      1.0  0.31252  0.44468  0.42622  1.0000
  C   C255      1.0  0.28390  0.17235  0.25907  1.0000
  C   C256      1.0  0.03334  0.35325  0.44312  1.0000
  C   C257      1.0  0.00014  0.31163  0.28789  1.0000
  C   C258      1.0  0.03147  0.38123  0.37748  1.0000
  H   H198      1.0  0.24829  0.30414  0.33358  1.0000
  C   C259      1.0  0.17387  0.28428  0.34549  1.0000
  H   H199      1.0  0.20264  0.31099  0.30838  1.0000
  H   H200      1.0  0.16777  0.24895  0.25329  1.0000
  C   C260      1.0  0.18122  0.33316  0.22980  1.0000
  H   H201      1.0  0.23583  0.46053  0.42163  1.0000
  H   H202      1.0  0.21780  0.10654  0.33596  1.0000
  C   C261      1.0  0.06603  0.36276  0.31751  1.0000
  C   C262      1.0  0.26307  0.05160  0.25756  1.0000
  C   C263      1.0  0.27466  0.45225  0.42239  1.0000
  C   C264      1.0  0.25255  0.11718  0.32672  1.0000
  C   C265      1.0  0.25218  0.05716  0.23343  1.0000
  H   H203      1.0  0.01264  0.46541  0.36812  1.0000
  C   C266      1.0  0.03037  0.35329  0.41792  1.0000
  H   H204      1.0  0.28612  0.13153  0.31932  1.0000
  H   H205      1.0  0.03448  0.44997  0.27714  1.0000
  H   H206      1.0  0.00578  0.25579  0.31827  1.0000
  C   C267      1.0  0.30577  0.17375  0.31930  1.0000
  H   H207      1.0  0.03401  0.31909  0.29354  1.0000
  C   C268      1.0  0.19444  0.30390  0.31879  1.0000
  C   C269      1.0  0.24473  0.34937  0.30564  1.0000
  C   C270      1.0  0.26991  0.16247  0.25083  1.0000
  C   C271      1.0  0.28311  0.26832  0.23518  1.0000
  H   H208      1.0  0.07273  0.33642  0.30246  1.0000
  H   H209      1.0  0.21532  0.23434  0.32571  1.0000
  H   H210      1.0  0.18263  0.43132  0.31452  1.0000
  H   H211      1.0  0.03901  0.35329  0.40698  1.0000
  H   H212      1.0  0.03870  0.35349  0.35154  1.0000
  P   P10       1.0  0.20832  0.34355  0.32877  1.0000
  C   C272      1.0  0.19413  0.31612  0.33079  1.0000
  H   H213      1.0  0.02612  0.41727  0.26408  1.0000
  C   C273      1.0  0.23382  0.35317  0.35042  1.0000
  C   C274      1.0  0.01065  0.42468  0.38842  1.0000
  C   C275      1.0  0.25345  0.31491  0.32357  1.0000
  C   C276      1.0  0.19369  0.39303  0.32072  1.0000
  H   H214      1.0  0.28467  0.16518  0.27021  1.0000
  C   C277      1.0  0.29716  0.19114  0.25288  1.0000
  H   H215      1.0  0.30908  0.25282  0.30056  1.0000
  C   C278      1.0  0.01458  0.32545  0.29341  1.0000
  C   C279      1.0  0.18385  0.28256  0.32006  1.0000
  H   H216      1.0  0.28748  0.29139  0.31915  1.0000
  C   C280      1.0  0.29256  0.03653  0.23834  1.0000
  C   C281      1.0  0.04456  0.35207  0.42911  1.0000
  P   P11       1.0  0.32249  0.02099  0.23242  1.0000
  H   H217      1.0  0.23896  0.06389  0.22594  1.0000
  H   H218      1.0  0.07402  0.31915  0.38802  1.0000
  C   C282      1.0  0.27530  0.04522  0.22867  1.0000
  C   C283      1.0  0.24765  0.29607  0.22808  1.0000
  H   H219      1.0  0.05769  0.38487  0.33489  1.0000
  C   C284      1.0  0.24506  0.46009  0.44310  1.0000
  C   C285      1.0  0.19105  0.37011  0.36739  1.0000
  C   C286      1.0  0.05664  0.36746  0.33140  1.0000
  C   C287      1.0  0.08596  0.45565  0.45350  1.0000
  C   C288      1.0  0.03411  0.41884  0.43184  1.0000
  C   C289      1.0  0.03292  0.41541  0.44674  1.0000
  C   C290      1.0  0.28229  0.32114  0.30236  1.0000
  C   C291      1.0  0.04012  0.30525  0.39603  1.0000
  C   C292      1.0  0.21088  0.35274  0.34594  1.0000
  H   H220      1.0  0.06899  0.44709  0.43613  1.0000
  H   H221      1.0  0.30851  0.19833  0.25917  1.0000
  C   C293      1.0  0.16461  0.40897  0.30377  1.0000
  H   H222      1.0  0.15426  0.42433  0.29797  1.0000
  H   H223      1.0  0.04374  0.40465  0.42561  1.0000
  H   H224      1.0  0.16662  0.47965  0.43812  1.0000
  H   H225      1.0  0.04241  0.30538  0.40715  1.0000
  C   C294      1.0  0.24397  0.15132  0.34632  1.0000
  C   C295      1.0  0.26525  0.15044  0.33646  1.0000
  P   P12       1.0  0.28613  0.17219  0.33613  1.0000
  H   H226      1.0  0.08429  0.48008  0.41869  1.0000
  C   C296      1.0  0.26768  0.20174  0.33721  1.0000
  C   C297      1.0  0.27469  0.21938  0.34439  1.0000
  C   C298      1.0  0.26034  0.24228  0.34484  1.0000
  C   C299      1.0  0.23898  0.24773  0.33811  1.0000
  C   C300      1.0  0.23189  0.23028  0.33095  1.0000
  C   C301      1.0  0.24606  0.20737  0.33058  1.0000
  C   C302      1.0  0.15547  0.40142  0.46673  1.0000
  H   H227      1.0  0.04174  0.39858  0.45206  1.0000
  C   C303      1.0  0.11104  0.48813  0.44749  1.0000
  H   H228      1.0  0.00043  0.36847  0.32445  1.0000
  C   C304      1.0  0.29777  0.18860  0.30719  1.0000
  H   H229      1.0  0.01289  0.45514  0.30141  1.0000
  H   H230      1.0  0.25979  0.14776  0.25569  1.0000
  H   H231      1.0  0.31152  0.12267  0.38051  1.0000
  C   C305      1.0  0.19087  0.36906  0.31909  1.0000
  H   H232      1.0  0.25554  0.10418  0.31900  1.0000
  H   H233      1.0  0.29916  0.03310  0.26046  1.0000
  H   H234      1.0  0.24037  0.16452  0.35396  1.0000
  C   C306      1.0  0.31320  0.19026  0.29430  1.0000
  H   H235      1.0  0.00946  0.29435  0.32419  1.0000
  H   H236      1.0  0.22775  0.26536  0.33855  1.0000
  H   H237      1.0  0.14922  0.38198  0.29499  1.0000
  H   H238      1.0  0.24010  0.19406  0.32504  1.0000
  C   C307      1.0  0.23115  0.11855  0.33630  1.0000
  C   C308      1.0  0.16190  0.38519  0.30201  1.0000
  C   C309      1.0  0.23789  0.33589  0.31877  1.0000
  C   C310      1.0  0.27559  0.30761  0.31541  1.0000
  C   C311      1.0  0.29968  0.14495  0.36160  1.0000
  C   C312      1.0  0.23526  0.36193  0.36335  1.0000
  H   H239      1.0  0.25062  0.34725  0.34391  1.0000
  H   H240      1.0  0.01592  0.35843  0.30210  1.0000
  C   C313      1.0  0.29373  0.44894  0.43093  1.0000
  H   H241      1.0  0.18442  0.20542  0.25895  1.0000
  C   C314      1.0  0.16055  0.44696  0.43069  1.0000
  C   C315      1.0  0.30492  0.16364  0.35064  1.0000
  C   C316      1.0  0.02364  0.44092  0.42493  1.0000
  H   H242      1.0  0.32138  0.08449  0.34343  1.0000
  H   H243      1.0  0.30678  0.20155  0.28499  1.0000
  H   H244      1.0  0.14362  0.45526  0.42655  1.0000
  C   C317      1.0  0.12301  0.46887  0.35901  1.0000
  C   C318      1.0  0.26937  0.17116  0.23632  1.0000
  H   H245      1.0  0.03916  0.48545  0.40477  1.0000
  C   C319      1.0  0.19574  0.44992  0.44256  1.0000
  C   C320      1.0  0.14300  0.47500  0.36446  1.0000
  C   C321      1.0  0.00495  0.35479  0.42080  1.0000
  H   H246      1.0  0.00839  0.29493  0.28359  1.0000
  C   C322      1.0  0.02134  0.43801  0.28202  1.0000
  C   C323      1.0  0.28854  0.45124  0.44554  1.0000
  C   C324      1.0  0.25042  0.45779  0.42843  1.0000
  H   H247      1.0  0.01826  0.26871  0.43355  1.0000
  S   S37       1.0  0.31182  0.12675  0.29029  1.0000
  H   H248      1.0  0.32278  0.02962  0.42970  1.0000
  H   H249      1.0  0.22932  0.30556  0.23048  1.0000
  C   C325      1.0  0.19169  0.41194  0.43390  1.0000
  H   H250      1.0  0.28410  0.13555  0.36179  1.0000
  H   H251      1.0  0.26566  0.25572  0.35056  1.0000
  H   H252      1.0  0.27860  0.45065  0.41104  1.0000
  C   C326      1.0  0.21176  0.48123  0.39608  1.0000
  H   H253      1.0  0.00262  0.44136  0.39283  1.0000
  C   C327      1.0  0.14012  0.42373  0.46524  1.0000
  C   C328      1.0  0.00750  0.24454  0.27894  1.0000
  H   H254      1.0  0.26068  0.45862  0.46293  1.0000
  H   H255      1.0  0.02502  0.44367  0.41337  1.0000
  C   C329      1.0  0.00412  0.34756  0.29843  1.0000
  C   C330      1.0  0.01177  0.45951  0.43291  1.0000
  C   C331      1.0  0.13808  0.34326  0.46872  1.0000
  C   C332      1.0  0.10449  0.49187  0.43358  1.0000
  C   C333      1.0  0.31518  0.13754  0.37228  1.0000
  H   H256      1.0  0.21171  0.26058  0.22462  1.0000
  H   H257      1.0  0.15410  0.32953  0.46809  1.0000
  H   H258      1.0  0.08644  0.48046  0.35383  1.0000
  C   C334      1.0  0.28369  0.99659  0.28489  1.0000
  H   H259      1.0  0.32339  0.27547  0.27737  1.0000
  H   H260      1.0  0.01132  0.22665  0.43137  1.0000
  H   H261      1.0  0.31865  0.99504  0.35821  1.0000
  C   C335      1.0  0.32592  0.17472  0.35059  1.0000
  C   C336      1.0  0.32917  0.15994  0.31814  1.0000
  H   H262      1.0  0.00568  0.29125  0.40070  1.0000
  Fe  Fe19      1.0  0.32908  0.09448  0.30426  1.0000
  H   H263      1.0  0.00085  0.29018  0.37550  1.0000
  H   H264      1.0  0.33065  0.18878  0.34210  1.0000
  Fe  Fe20      1.0  0.33012  0.10775  0.27155  1.0000
  C   C337      1.0  0.00075  0.26545  0.43099  1.0000
  C   C338      1.0  0.24298  0.23413  0.21885  1.0000
  H   H265      1.0  0.99842  0.37481  0.34973  1.0000
  H   H266      1.0  0.02089  0.49313  0.33471  1.0000
  C   C339      1.0  0.15444  0.30339  0.21887  1.0000
  Fe  Fe21      1.0  0.08737  0.37735  0.53820  1.0000
  S   S38       1.0  0.10145  0.33784  0.53693  1.0000
  S   S39       1.0  0.04791  0.39430  0.53980  1.0000
  Fe  Fe22      1.0  0.13837  0.39174  0.53479  1.0000
  S   S40       1.0  0.15644  0.35302  0.53370  1.0000
  S   S41       1.0  0.16068  0.42298  0.52949  1.0000
  Fe  Fe23      1.0  0.12849  0.35127  0.51895  1.0000
  S   S42       1.0  0.14011  0.33568  0.49783  1.0000
  Fe  Fe24      1.0  0.12768  0.34347  0.55188  1.0000
  S   S43       1.0  0.13250  0.31383  0.57073  1.0000
  S   S44       1.0  0.11214  0.39030  0.51915  1.0000
  S   S45       1.0  0.11182  0.38245  0.55412  1.0000
  Fe  Fe25      1.0  0.28834  0.12359  0.67139  1.0000
  C   C340      1.0  0.21260  0.47201  0.49343  1.0000
  S   S46       1.0  0.26746  0.16175  0.66591  1.0000
  Fe  Fe26      1.0  0.29870  0.06746  0.67852  1.0000
  S   S47       1.0  0.28886  0.02876  0.68518  1.0000
  C   C341      1.0  0.06746  0.47879  0.49330  1.0000
  C   C342      1.0  0.04851  0.47448  0.50421  1.0000
  H   H267      1.0  0.26646  0.24114  0.59060  1.0000
  H   H268      1.0  0.31976  0.05489  0.50666  1.0000
  S   S48       1.0  0.28441  0.09838  0.69196  1.0000
  S   S49       1.0  0.29922  0.09253  0.65768  1.0000
  Fe  Fe27      1.0  0.09703  0.28767  0.67318  1.0000
  S   S50       1.0  0.12006  0.31786  0.67203  1.0000
  S   S51       1.0  0.05567  0.30099  0.67521  1.0000
  Fe  Fe28      1.0  0.14307  0.24969  0.66877  1.0000
  S   S52       1.0  0.16882  0.27741  0.66653  1.0000
  S   S53       1.0  0.15490  0.20872  0.66921  1.0000
  Fe  Fe29      1.0  0.14506  0.29169  0.68555  1.0000
  S   S54       1.0  0.16360  0.29352  0.70531  1.0000
  Fe  Fe30      1.0  0.14173  0.30124  0.65310  1.0000
  S   S55       1.0  0.15160  0.32770  0.63345  1.0000
  S   S56       1.0  0.12021  0.26280  0.68837  1.0000
  S   S57       1.0  0.11786  0.27224  0.65367  1.0000
  H   H269      1.0  0.19903  0.29487  0.62979  1.0000
  Fe  Fe31      1.0  0.32388  0.10127  0.69327  1.0000
  C   C343      1.0  0.20739  0.44910  0.49982  1.0000
  C   C344      1.0  0.27687  0.00762  0.66244  1.0000
  H   H270      1.0  0.29200  0.18507  0.56325  1.0000
  H   H271      1.0  0.01452  0.29349  0.62903  1.0000
  H   H272      1.0  0.15493  0.34703  0.69848  1.0000
  C   C345      1.0  0.02693  0.30216  0.58957  1.0000
  C   C346      1.0  0.28415  0.00422  0.67619  1.0000
  C   C347      1.0  0.27130  0.99978  0.58104  1.0000
  C   C348      1.0  0.28161  0.21263  0.57760  1.0000
  C   C349      1.0  0.23593  0.17399  0.66728  1.0000
  C   C350      1.0  0.22958  0.19948  0.66521  1.0000
  C   C351      1.0  0.20490  0.21026  0.66583  1.0000
  C   C352      1.0  0.18620  0.19568  0.66839  1.0000
  C   C353      1.0  0.19249  0.17016  0.67036  1.0000
  C   C354      1.0  0.21725  0.15933  0.66992  1.0000
  H   H273      1.0  0.24386  0.21099  0.66316  1.0000
  H   H274      1.0  0.20033  0.22984  0.66444  1.0000
  H   H275      1.0  0.17816  0.15871  0.67236  1.0000
  H   H276      1.0  0.22188  0.13969  0.67148  1.0000
  C   C355      1.0  0.15087  0.44765  0.53953  1.0000
  H   H277      1.0  0.20576  0.44480  0.51138  1.0000
  C   C356      1.0  0.00948  0.38521  0.48246  1.0000
  H   H278      1.0  0.08557  0.43423  0.56434  1.0000
  C   C357      1.0  0.21083  0.46015  0.46992  1.0000
  C   C358      1.0  0.13554  0.44476  0.55237  1.0000
  C   C359      1.0  0.00759  0.27745  0.62699  1.0000
  H   H279      1.0  0.09148  0.41967  0.48953  1.0000
  H   H280      1.0  0.21519  0.48553  0.50002  1.0000
  H   H281      1.0  0.13051  0.42706  0.55649  1.0000
  C   C360      1.0  0.12727  0.34986  0.48215  1.0000
  H   H282      1.0  0.03230  0.44729  0.51926  1.0000
  H   H283      1.0  0.09808  0.37275  0.49309  1.0000
  H   H284      1.0  0.30803  0.32180  0.69722  1.0000
  C   C361      1.0  0.13573  0.31883  0.58835  1.0000
  C   C362      1.0  0.13711  0.29878  0.59905  1.0000
  C   C363      1.0  0.14132  0.30157  0.61296  1.0000
  C   C364      1.0  0.14451  0.32429  0.61630  1.0000
  C   C365      1.0  0.14329  0.34434  0.60559  1.0000
  C   C366      1.0  0.13872  0.34169  0.59169  1.0000
  H   H285      1.0  0.13530  0.28093  0.59653  1.0000
  H   H286      1.0  0.14294  0.28613  0.62108  1.0000
  H   H287      1.0  0.14607  0.36196  0.60805  1.0000
  H   H288      1.0  0.13814  0.35718  0.58350  1.0000
  C   C367      1.0  0.07981  0.43524  0.49355  1.0000
  C   C368      1.0  0.03097  0.28457  0.67465  1.0000
  C   C369      1.0  0.03274  0.25941  0.67868  1.0000
  C   C370      1.0  0.16307  0.39183  0.48000  1.0000
  H   H289      1.0  0.04973  0.24935  0.68191  1.0000
  C   C371      1.0  0.01680  0.33666  0.53312  1.0000
  C   C372      1.0  0.03347  0.35073  0.53656  1.0000
  C   C373      1.0  0.02833  0.37619  0.53475  1.0000
  C   C374      1.0  0.27044  0.03437  0.61724  1.0000
  C   C375      1.0  0.10655  0.36760  0.48284  1.0000
  H   H290      1.0  0.02061  0.31696  0.53472  1.0000
  H   H291      1.0  0.04988  0.34179  0.54095  1.0000
  H   H292      1.0  0.20731  0.48846  0.56870  1.0000
  C   C376      1.0  0.07288  0.20122  0.67281  1.0000
  C   C377      1.0  0.05085  0.19179  0.67381  1.0000
  C   C378      1.0  0.03953  0.19208  0.66153  1.0000
  C   C379      1.0  0.05048  0.20136  0.64818  1.0000
  C   C380      1.0  0.07280  0.21052  0.64707  1.0000
  C   C381      1.0  0.08372  0.21077  0.65953  1.0000
  P   P13       1.0  0.08720  0.22276  0.62999  1.0000
  C   C382      1.0  0.11991  0.21504  0.63039  1.0000
  C   C383      1.0  0.07772  0.20979  0.61561  1.0000
  C   C384      1.0  0.09267  0.19066  0.60915  1.0000
  C   C385      1.0  0.08499  0.18108  0.59795  1.0000
  C   C386      1.0  0.06235  0.19043  0.59315  1.0000
  C   C387      1.0  0.04737  0.20943  0.59953  1.0000
  C   C388      1.0  0.05506  0.21915  0.61066  1.0000
  C   C389      1.0  0.13536  0.23292  0.62639  1.0000
  C   C390      1.0  0.16026  0.22752  0.62804  1.0000
  C   C391      1.0  0.17010  0.20400  0.63336  1.0000
  C   C392      1.0  0.15494  0.18592  0.63716  1.0000
  C   C393      1.0  0.12990  0.19144  0.63582  1.0000
  C   C394      1.0  0.07864  0.25546  0.62705  1.0000
  C   C395      1.0  0.08380  0.26800  0.61337  1.0000
  C   C396      1.0  0.07927  0.29347  0.61120  1.0000
  C   C397      1.0  0.06958  0.30659  0.62265  1.0000
  C   C398      1.0  0.06351  0.29424  0.63614  1.0000
  C   C399      1.0  0.06794  0.26876  0.63837  1.0000
  H   H293      1.0  0.08151  0.20140  0.68235  1.0000
  H   H294      1.0  0.04226  0.18472  0.68414  1.0000
  H   H295      1.0  0.02212  0.18531  0.66240  1.0000
  H   H296      1.0  0.04144  0.20129  0.63883  1.0000
  H   H297      1.0  0.10069  0.21823  0.65904  1.0000
  H   H298      1.0  0.11018  0.18300  0.61271  1.0000
  H   H299      1.0  0.09654  0.16624  0.59305  1.0000
  H   H300      1.0  0.05634  0.18286  0.58454  1.0000
  H   H301      1.0  0.02971  0.21655  0.59589  1.0000
  H   H302      1.0  0.04329  0.23388  0.61551  1.0000
  H   H303      1.0  0.12813  0.25121  0.62239  1.0000
  H   H304      1.0  0.17175  0.24179  0.62549  1.0000
  H   H305      1.0  0.18922  0.19999  0.63510  1.0000
  H   H306      1.0  0.16241  0.16799  0.64188  1.0000
  H   H307      1.0  0.11821  0.17752  0.63945  1.0000
  H   H308      1.0  0.09222  0.25817  0.60449  1.0000
  H   H309      1.0  0.08411  0.30309  0.60074  1.0000
  H   H310      1.0  0.05599  0.30445  0.64502  1.0000
  H   H311      1.0  0.06372  0.25971  0.64905  1.0000
  C   C400      1.0  0.02907  0.43946  0.58360  1.0000
  C   C401      1.0  0.09485  0.45755  0.52628  1.0000
  C   C402      1.0  0.07511  0.41093  0.58325  1.0000
  H   H312      1.0  0.02891  0.38530  0.66036  1.0000
  C   C403      1.0  0.25410  0.20072  0.56305  1.0000
  C   C404      1.0  0.23920  0.23204  0.57877  1.0000
  C   C405      1.0  0.23514  0.21771  0.56854  1.0000
  P   P14       1.0  0.21513  0.25491  0.58529  1.0000
  C   C406      1.0  0.18598  0.24553  0.58383  1.0000
  C   C407      1.0  0.21618  0.25627  0.60416  1.0000
  C   C408      1.0  0.22562  0.23548  0.61294  1.0000
  C   C409      1.0  0.22602  0.23632  0.62755  1.0000
  C   C410      1.0  0.21663  0.25776  0.63359  1.0000
  C   C411      1.0  0.20678  0.27834  0.62505  1.0000
  C   C412      1.0  0.20657  0.27766  0.61042  1.0000
  C   C413      1.0  0.17161  0.25671  0.57302  1.0000
  C   C414      1.0  0.14891  0.24952  0.57228  1.0000
  C   C415      1.0  0.14060  0.23075  0.58209  1.0000
  C   C416      1.0  0.15519  0.21890  0.59252  1.0000
  C   C417      1.0  0.17782  0.22617  0.59335  1.0000
  C   C418      1.0  0.21839  0.28417  0.57488  1.0000
  C   C419      1.0  0.23980  0.28767  0.56559  1.0000
  C   C420      1.0  0.24161  0.31008  0.55719  1.0000
  C   C421      1.0  0.22209  0.32914  0.55795  1.0000
  C   C422      1.0  0.20083  0.32585  0.56719  1.0000
  C   C423      1.0  0.19909  0.30354  0.57564  1.0000
  H   H313      1.0  0.11859  0.48154  0.51405  1.0000
  H   H314      1.0  0.21742  0.21975  0.56466  1.0000
  H   H315      1.0  0.23250  0.21848  0.60858  1.0000
  H   H316      1.0  0.23336  0.22024  0.63425  1.0000
  H   H317      1.0  0.21673  0.25839  0.64493  1.0000
  H   H318      1.0  0.06285  0.33972  0.56786  1.0000
  H   H319      1.0  0.19857  0.29386  0.60420  1.0000
  H   H320      1.0  0.17758  0.27117  0.56519  1.0000
  H   H321      1.0  0.13767  0.25889  0.56417  1.0000
  H   H322      1.0  0.12293  0.22536  0.58154  1.0000
  H   H323      1.0  0.14894  0.20418  0.60006  1.0000
  H   H324      1.0  0.18890  0.21668  0.60146  1.0000
  H   H325      1.0  0.25506  0.27317  0.56464  1.0000
  H   H326      1.0  0.25806  0.31262  0.54995  1.0000
  H   H327      1.0  0.22331  0.34639  0.55130  1.0000
  H   H328      1.0  0.18548  0.34043  0.56770  1.0000
  H   H329      1.0  0.18240  0.30118  0.58254  1.0000
  H   H330      1.0  0.06188  0.33379  0.49272  1.0000
  H   H331      1.0  0.30087  0.24203  0.71208  1.0000
  C   C424      1.0  0.09649  0.37832  0.47026  1.0000
  C   C425      1.0  0.28536  0.20668  0.68920  1.0000
  C   C426      1.0  0.28215  0.22326  0.69937  1.0000
  C   C427      1.0  0.20433  0.43160  0.49133  1.0000
  P   P15       1.0  0.25208  0.23921  0.70464  1.0000
  C   C428      1.0  0.24616  0.26623  0.69198  1.0000
  C   C429      1.0  0.22920  0.21946  0.70466  1.0000
  C   C430      1.0  0.20567  0.22914  0.70101  1.0000
  H   H332      1.0  0.00696  0.31680  0.66742  1.0000
  C   C431      1.0  0.22687  0.28477  0.69523  1.0000
  C   C432      1.0  0.22130  0.30488  0.68513  1.0000
  C   C433      1.0  0.23494  0.30669  0.67168  1.0000
  C   C434      1.0  0.25426  0.28841  0.66833  1.0000
  C   C435      1.0  0.25983  0.26823  0.67840  1.0000
  H   H333      1.0  0.26475  0.01648  0.61831  1.0000
  H   H334      1.0  0.31104  0.14081  0.60729  1.0000
  H   H335      1.0  0.29301  0.02990  0.59732  1.0000
  C   C436      1.0  0.30657  0.09592  0.54735  1.0000
  H   H336      1.0  0.01351  0.22805  0.68248  1.0000
  H   H337      1.0  0.15339  0.46957  0.49017  1.0000
  C   C437      1.0  0.00676  0.38752  0.52929  1.0000
  H   H338      1.0  0.20048  0.24848  0.69823  1.0000
  H   H339      1.0  0.07404  0.26160  0.57617  1.0000
  H   H340      1.0  0.26990  0.20280  0.68453  1.0000
  H   H341      1.0  0.03181  0.35044  0.67946  1.0000
  C   C438      1.0  0.30279  0.22867  0.70464  1.0000
  C   C439      1.0  0.00339  0.36073  0.62182  1.0000
  H   H342      1.0  0.21559  0.28333  0.70543  1.0000
  H   H343      1.0  0.20595  0.31876  0.68765  1.0000
  H   H344      1.0  0.23026  0.32209  0.66379  1.0000
  H   H345      1.0  0.26466  0.28966  0.65782  1.0000
  H   H346      1.0  0.27451  0.25409  0.67539  1.0000
  C   C440      1.0  0.29252  0.32633  0.70503  1.0000
  H   H347      1.0  0.31089  0.18178  0.67720  1.0000
  H   H348      1.0  0.09742  0.31768  0.70305  1.0000
  C   C441      1.0  0.01219  0.24738  0.67902  1.0000
  H   H349      1.0  0.25164  0.00492  0.58145  1.0000
  H   H350      1.0  0.06015  0.39102  0.60259  1.0000
  C   C442      1.0  0.13244  0.43687  0.47701  1.0000
  C   C443      1.0  0.03230  0.34514  0.47972  1.0000
  H   H351      1.0  0.16065  0.39675  0.50221  1.0000
  C   C444      1.0  0.07640  0.45487  0.53767  1.0000
  C   C445      1.0  0.14001  0.42691  0.49037  1.0000
  H   H352      1.0  0.27943  0.02590  0.56278  1.0000
  C   C446      1.0  0.03485  0.32379  0.58249  1.0000
  C   C447      1.0  0.26213  0.04966  0.62788  1.0000
  C   C448      1.0  0.00855  0.29739  0.67068  1.0000
  C   C449      1.0  0.04116  0.27972  0.58717  1.0000
  C   C450      1.0  0.00746  0.49095  0.54136  1.0000
  C   C451      1.0  0.14336  0.48735  0.48737  1.0000
  C   C452      1.0  0.15792  0.47061  0.53446  1.0000
  C   C453      1.0  0.21447  0.47749  0.47854  1.0000
  C   C454      1.0  0.00639  0.44857  0.55076  1.0000
  H   H353      1.0  0.11461  0.46249  0.56977  1.0000
  H   H354      1.0  0.13363  0.43603  0.49980  1.0000
  H   H355      1.0  0.09305  0.40002  0.58318  1.0000
  H   H356      1.0  0.02819  0.33462  0.61043  1.0000
  H   H357      1.0  0.00622  0.38354  0.59052  1.0000
  C   C455      1.0  0.13275  0.48797  0.55454  1.0000
  H   H358      1.0  0.20309  0.42330  0.47013  1.0000
  H   H359      1.0  0.27476  0.02575  0.65670  1.0000
  C   C456      1.0  0.14873  0.49083  0.54191  1.0000
  C   C457      1.0  0.31225  0.00510  0.57012  1.0000
  H   H360      1.0  0.00307  0.40713  0.52751  1.0000
  C   C458      1.0  0.18838  0.21373  0.70061  1.0000
  C   C459      1.0  0.23484  0.19409  0.70818  1.0000
  H   H361      1.0  0.05906  0.41259  0.50925  1.0000
  H   H362      1.0  0.10248  0.44228  0.52047  1.0000
  C   C460      1.0  0.05685  0.32299  0.57338  1.0000
  C   C461      1.0  0.06715  0.47432  0.54563  1.0000
  S   S58       1.0  0.32733  0.12793  0.67347  1.0000
  C   C462      1.0  0.30871  0.19484  0.68490  1.0000
  H   H363      1.0  0.06719  0.32633  0.62113  1.0000
  C   C463      1.0  0.17054  0.31809  0.71334  1.0000
  C   C464      1.0  0.04762  0.44456  0.57251  1.0000
  C   C465      1.0  0.01335  0.36369  0.47590  1.0000
  C   C466      1.0  0.03358  0.42028  0.59444  1.0000
  H   H364      1.0  0.03509  0.26282  0.59214  1.0000
  C   C467      1.0  0.28692  0.01166  0.57057  1.0000
  C   C468      1.0  0.21755  0.17873  0.70762  1.0000
  C   C469      1.0  0.31648  0.09084  0.56035  1.0000
  H   H365      1.0  0.32437  0.01424  0.56197  1.0000
  C   C470      1.0  0.16432  0.34253  0.70795  1.0000
  H   H366      1.0  0.08790  0.29998  0.56398  1.0000
  C   C471      1.0  0.12664  0.46482  0.55990  1.0000
  C   C472      1.0  0.26270  0.22968  0.58308  1.0000
  H   H367      1.0  0.26650  0.33018  0.68970  1.0000
  H   H368      1.0  0.05343  0.31291  0.70747  1.0000
  C   C473      1.0  0.04590  0.45065  0.51019  1.0000
  C   C474      1.0  0.08393  0.45919  0.48827  1.0000
  H   H369      1.0  0.03523  0.32813  0.47507  1.0000
  C   C475      1.0  0.04326  0.36954  0.49633  1.0000
  C   C476      1.0  0.02451  0.38810  0.49258  1.0000
  H   H370      1.0  0.17056  0.22129  0.69730  1.0000
  C   C477      1.0  0.15526  0.40454  0.49181  1.0000
  H   H371      1.0  0.20075  0.41373  0.49638  1.0000
  C   C478      1.0  0.07074  0.43028  0.57248  1.0000
  H   H372      1.0  0.24989  0.04369  0.63713  1.0000
  C   C479      1.0  0.06117  0.43106  0.50463  1.0000
  H   H373      1.0  0.05450  0.37148  0.50444  1.0000
  H   H374      1.0  0.02125  0.40442  0.49784  1.0000
  C   C480      1.0  0.01626  0.47028  0.55036  1.0000
  C   C481      1.0  0.01250  0.38082  0.66708  1.0000
  C   C482      1.0  0.01417  0.36124  0.67790  1.0000
  H   H375      1.0  0.01463  0.46358  0.48537  1.0000
  H   H376      1.0  0.17417  0.37407  0.48127  1.0000
  C   C483      1.0  0.32933  0.09932  0.59289  1.0000
  H   H377      1.0  0.02383  0.34122  0.58379  1.0000
  C   C484      1.0  0.26899  0.33106  0.70071  1.0000
  C   C485      1.0  0.29428  0.06492  0.60412  1.0000
  C   C486      1.0  0.27730  0.19813  0.56761  1.0000
  H   H378      1.0  0.01127  0.45064  0.58394  1.0000
  C   C487      1.0  0.28586  0.08018  0.61486  1.0000
  C   C488      1.0  0.26984  0.07253  0.62669  1.0000
  C   C489      1.0  0.32617  0.21679  0.70030  1.0000
  C   C490      1.0  0.04729  0.34815  0.48981  1.0000
  H   H379      1.0  0.16563  0.38009  0.71055  1.0000
  C   C491      1.0  0.30294  0.08074  0.57270  1.0000
  H   H380      1.0  0.01336  0.43203  0.55717  1.0000
  H   H381      1.0  0.32481  0.12231  0.63350  1.0000
  C   C492      1.0  0.28287  0.09132  0.54659  1.0000
  C   C493      1.0  0.26907  0.08167  0.55886  1.0000
  C   C494      1.0  0.27903  0.07639  0.57188  1.0000
  H   H382      1.0  0.16983  0.47294  0.52455  1.0000
  C   C495      1.0  0.10378  0.47978  0.52255  1.0000
  H   H383      1.0  0.18118  0.17663  0.70293  1.0000
  C   C496      1.0  0.17036  0.36123  0.71483  1.0000
  H   H384      1.0  0.06945  0.43759  0.54029  1.0000
  H   H385      1.0  0.25089  0.18973  0.55514  1.0000
  H   H386      1.0  0.29188  0.09781  0.61429  1.0000
  H   H387      1.0  0.26369  0.08422  0.63506  1.0000
  C   C497      1.0  0.07097  0.30057  0.57115  1.0000
  C   C498      1.0  0.19435  0.18855  0.70382  1.0000
  H   H388      1.0  0.23040  0.34134  0.70722  1.0000
  P   P16       1.0  0.11047  0.46450  0.47553  1.0000
  H   H389      1.0  0.30909  0.12903  0.57619  1.0000
  H   H390      1.0  0.27521  0.09537  0.53650  1.0000
  H   H391      1.0  0.25060  0.07834  0.55828  1.0000
  H   H392      1.0  0.26798  0.06902  0.58123  1.0000
  C   C499      1.0  0.00919  0.34113  0.61366  1.0000
  C   C500      1.0  0.05655  0.40589  0.59421  1.0000
  C   C501      1.0  0.06315  0.27894  0.57804  1.0000
  C   C502      1.0  0.28641  0.04200  0.60540  1.0000
  P   P17       1.0  0.04217  0.47118  0.55967  1.0000
  P   P18       1.0  0.31642  0.07357  0.58932  1.0000
  H   H393      1.0  0.08016  0.39165  0.47094  1.0000
  H   H394      1.0  0.32488  0.01122  0.63347  1.0000
  C   C503      1.0  0.32226  0.12740  0.58372  1.0000
  H   H395      1.0  0.01932  0.41669  0.60307  1.0000
  H   H396      1.0  0.29967  0.21083  0.58102  1.0000
  C   C504      1.0  0.24864  0.33726  0.71055  1.0000
  C   C505      1.0  0.12262  0.49044  0.47998  1.0000
  H   H397      1.0  0.01789  0.36926  0.62471  1.0000
  H   H398      1.0  0.31736  0.10348  0.53788  1.0000
  C   C506      1.0  0.20580  0.43710  0.47645  1.0000
  C   C507      1.0  0.08906  0.31296  0.71385  1.0000
  C   C508      1.0  0.32910  0.19977  0.69050  1.0000
  H   H399      1.0  0.03615  0.48957  0.50829  1.0000
  H   H400      1.0  0.00632  0.37225  0.56613  1.0000
  H   H401      1.0  0.01333  0.25882  0.64787  1.0000
  H   H402      1.0  0.16361  0.49211  0.57874  1.0000
  H   H403      1.0  0.32761  0.16931  0.57749  1.0000
  H   H404      1.0  0.31989  0.99715  0.61063  1.0000
  H   H405      1.0  0.07542  0.49091  0.57446  1.0000
  H   H406      1.0  0.25281  0.18598  0.71096  1.0000
  C   C509      1.0  0.00681  0.25784  0.63778  1.0000
  C   C510      1.0  0.32926  0.13019  0.60764  1.0000
  C   C511      1.0  0.06428  0.31032  0.71637  1.0000
  H   H407      1.0  0.22238  0.15912  0.70973  1.0000
  H   H408      1.0  0.99846  0.44233  0.50846  1.0000
  H   H409      1.0  0.30794  0.17031  0.71615  1.0000
  H   H410      1.0  0.24873  0.28484  0.71829  1.0000
  C   C512      1.0  0.99883  0.27653  0.61394  1.0000
  Fe  Fe32      1.0  0.20808  0.37419  0.75603  1.0000
  S   S59       1.0  0.24841  0.37558  0.75581  1.0000
  S   S60       1.0  0.18984  0.37985  0.73547  1.0000
  Fe  Fe33      1.0  0.20012  0.36410  0.78875  1.0000
  S   S61       1.0  0.23979  0.36351  0.79077  1.0000
  S   S62       1.0  0.17057  0.35679  0.80713  1.0000
  Fe  Fe34      1.0  0.23703  0.39732  0.77462  1.0000
  S   S63       1.0  0.25420  0.42842  0.78085  1.0000
  Fe  Fe35      1.0  0.24787  0.34202  0.77193  1.0000
  S   S64       1.0  0.27143  0.30541  0.76852  1.0000
  S   S65       1.0  0.19673  0.39869  0.77355  1.0000
  S   S66       1.0  0.20800  0.33990  0.77116  1.0000
  C   C513      1.0  0.08305  0.25541  0.96199  1.0000
  Fe  Fe36      1.0  0.09406  0.36411  0.89304  1.0000
  S   S67       1.0  0.13056  0.34423  0.89855  1.0000
  S   S68       1.0  0.06948  0.34598  0.88204  1.0000
  Fe  Fe37      1.0  0.10408  0.41166  0.90169  1.0000
  S   S69       1.0  0.14157  0.39590  0.90759  1.0000
  S   S70       1.0  0.08580  0.44972  0.90487  1.0000
  Fe  Fe38      1.0  0.14540  0.37785  0.88728  1.0000
  S   S71       1.0  0.17890  0.37721  0.87056  1.0000
  Fe  Fe39      1.0  0.12345  0.36386  0.91832  1.0000
  S   S72       1.0  0.12425  0.34412  0.94101  1.0000
  S   S73       1.0  0.10933  0.39651  0.88072  1.0000
  S   S74       1.0  0.08561  0.38087  0.91347  1.0000
  C   C514      1.0  0.10727  0.47015  0.90161  1.0000
  C   C515      1.0  0.18785  0.46294  0.80379  1.0000
  C   C516      1.0  0.03040  0.41023  0.87111  1.0000
  C   C517      1.0  0.31426  0.37763  0.75010  1.0000
  C   C518      1.0  0.06595  0.44643  0.95657  1.0000
  C   C519      1.0  0.13022  0.46357  0.89410  1.0000
  H   H411      1.0  0.18502  0.49171  0.74184  1.0000
  C   C520      1.0  0.20965  0.30186  0.81212  1.0000
  C   C521      1.0  0.32818  0.36845  0.76130  1.0000
  H   H412      1.0  0.13463  0.44602  0.89009  1.0000
  C   C522      1.0  0.24747  0.46041  0.77552  1.0000
  C   C523      1.0  0.23607  0.46970  0.76328  1.0000
  H   H413      1.0  0.13497  0.37840  0.74366  1.0000
  C   C524      1.0  0.24754  0.34428  0.86528  1.0000
  P   P19       1.0  0.27928  0.30448  0.83283  1.0000
  C   C525      1.0  0.27233  0.31602  0.84998  1.0000
  H   H414      1.0  0.23060  0.45730  0.75694  1.0000
  H   H415      1.0  0.29188  0.30861  0.88301  1.0000
  H   H416      1.0  0.27710  0.33328  0.74034  1.0000
  H   H417      1.0  0.15406  0.47991  0.72868  1.0000
  C   C526      1.0  0.17319  0.36262  0.82468  1.0000
  C   C527      1.0  0.19427  0.37016  0.82808  1.0000
  C   C528      1.0  0.19580  0.37436  0.84218  1.0000
  C   C529      1.0  0.17631  0.37126  0.85301  1.0000
  C   C530      1.0  0.15522  0.36374  0.84961  1.0000
  C   C531      1.0  0.15373  0.35936  0.83553  1.0000
  H   H418      1.0  0.20938  0.37279  0.81985  1.0000
  H   H419      1.0  0.21203  0.38031  0.84467  1.0000
  H   H420      1.0  0.14007  0.36121  0.85785  1.0000
  H   H421      1.0  0.13736  0.35350  0.83303  1.0000
  H   H422      1.0  0.28816  0.37953  0.79964  1.0000
  C   C532      1.0  0.29566  0.27380  0.83370  1.0000
  C   C533      1.0  0.22340  0.43220  0.84578  1.0000
  C   C534      1.0  0.28227  0.18964  0.78383  1.0000
  C   C535      1.0  0.30047  0.29252  0.77387  1.0000
  C   C536      1.0  0.31323  0.30408  0.78202  1.0000
  C   C537      1.0  0.32106  0.24934  0.73739  1.0000
  C   C538      1.0  0.30138  0.21960  0.79295  1.0000
  H   H423      1.0  0.30543  0.32174  0.78525  1.0000
  C   C539      1.0  0.08427  0.24397  0.78397  1.0000
  C   C540      1.0  0.25352  0.30153  0.81018  1.0000
  C   C541      1.0  0.18838  0.33127  0.73265  1.0000
  C   C542      1.0  0.18241  0.35573  0.72722  1.0000
  H   H424      1.0  0.27259  0.39081  0.83607  1.0000
  H   H425      1.0  0.17156  0.35623  0.94572  1.0000
  H   H426      1.0  0.19744  0.32667  0.74222  1.0000
  C   C543      1.0  0.31379  0.36349  0.73912  1.0000
  H   H427      1.0  0.08276  0.46297  0.93634  1.0000
  C   C544      1.0  0.02436  0.35386  0.89815  1.0000
  C   C545      1.0  0.04219  0.33716  0.89146  1.0000
  C   C546      1.0  0.03725  0.31352  0.89101  1.0000
  C   C547      1.0  0.25195  0.30291  0.82492  1.0000
  C   C548      1.0  0.23608  0.43887  0.82031  1.0000
  H   H428      1.0  0.02781  0.37233  0.89825  1.0000
  H   H429      1.0  0.05055  0.30081  0.88540  1.0000
  C   C549      1.0  0.21473  0.14564  0.77925  1.0000
  C   C550      1.0  0.21346  0.12753  0.79091  1.0000
  C   C551      1.0  0.23386  0.11948  0.79830  1.0000
  C   C552      1.0  0.25559  0.12943  0.79399  1.0000
  C   C553      1.0  0.25712  0.14744  0.78218  1.0000
  C   C554      1.0  0.23642  0.15566  0.77493  1.0000
  P   P20       1.0  0.28494  0.16080  0.77669  1.0000
  C   C555      1.0  0.29065  0.16515  0.75740  1.0000
  C   C556      1.0  0.31087  0.26956  0.76985  1.0000
  C   C557      1.0  0.01413  0.27871  0.93956  1.0000
  H   H430      1.0  0.32836  0.37939  0.76983  1.0000
  H   H431      1.0  0.32410  0.19662  0.73046  1.0000
  C   C558      1.0  0.00674  0.42222  0.87441  1.0000
  C   C559      1.0  0.12804  0.27305  0.95527  1.0000
  C   C560      1.0  0.12453  0.45254  0.85776  1.0000
  H   H432      1.0  0.31961  0.01185  0.95007  1.0000
  C   C561      1.0  0.30559  0.18230  0.75052  1.0000
  C   C562      1.0  0.28225  0.14974  0.74920  1.0000
  C   C563      1.0  0.14754  0.47976  0.89167  1.0000
  C   C564      1.0  0.28101  0.31595  0.87436  1.0000
  C   C565      1.0  0.12853  0.47681  0.85443  1.0000
  H   H433      1.0  0.04887  0.44683  0.92961  1.0000
  C   C566      1.0  0.32300  0.00755  0.89521  1.0000
  H   H434      1.0  0.29888  0.21943  0.85515  1.0000
  C   C567      1.0  0.06121  0.36099  0.94989  1.0000
  H   H435      1.0  0.19890  0.15188  0.77353  1.0000
  H   H436      1.0  0.19667  0.11971  0.79424  1.0000
  H   H437      1.0  0.23286  0.10545  0.80736  1.0000
  H   H438      1.0  0.27113  0.12290  0.79988  1.0000
  H   H439      1.0  0.13856  0.41514  0.85474  1.0000
  C   C568      1.0  0.31299  0.26662  0.82234  1.0000
  H   H440      1.0  0.32210  0.12421  0.76340  1.0000
  C   C569      1.0  0.16759  0.46382  0.84086  1.0000
  C   C570      1.0  0.24943  0.26934  0.72643  1.0000
  C   C571      1.0  0.10629  0.43196  0.94494  1.0000
  H   H441      1.0  0.07112  0.37034  0.95595  1.0000
  H   H442      1.0  0.02228  0.43831  0.91301  1.0000
  H   H443      1.0  0.23442  0.44902  0.80988  1.0000
  H   H444      1.0  0.31772  0.22560  0.79545  1.0000
  C   C572      1.0  0.25362  0.22585  0.73387  1.0000
  C   C573      1.0  0.03083  0.28051  0.94904  1.0000
  C   C574      1.0  0.14046  0.48391  0.95473  1.0000
  H   H445      1.0  0.02395  0.34828  0.86287  1.0000
  C   C575      1.0  0.14976  0.48245  0.84576  1.0000
  H   H446      1.0  0.18363  0.45607  0.78259  1.0000
  C   C576      1.0  0.30332  0.19807  0.78672  1.0000
  C   C577      1.0  0.22912  0.30264  0.83329  1.0000
  H   H447      1.0  0.19765  0.25364  0.75531  1.0000
  C   C578      1.0  0.25155  0.25394  0.75141  1.0000
  H   H448      1.0  0.01978  0.37294  0.92580  1.0000
  P   P21       1.0  0.11232  0.29480  0.75353  1.0000
  C   C579      1.0  0.09552  0.28044  0.76916  1.0000
  C   C580      1.0  0.12253  0.32169  0.75805  1.0000
  C   C581      1.0  0.12961  0.32166  0.77171  1.0000
  C   C582      1.0  0.13840  0.34191  0.77520  1.0000
  C   C583      1.0  0.14021  0.36237  0.76511  1.0000
  C   C584      1.0  0.13303  0.36268  0.75157  1.0000
  C   C585      1.0  0.12435  0.34242  0.74800  1.0000
  C   C586      1.0  0.07951  0.29483  0.77844  1.0000
  H   H449      1.0  0.03391  0.39048  0.87219  1.0000
  H   H450      1.0  0.99960  0.39890  0.96163  1.0000
  C   C587      1.0  0.09768  0.25492  0.77195  1.0000
  C   C588      1.0  0.09294  0.30237  0.73922  1.0000
  C   C589      1.0  0.28664  0.30684  0.86112  1.0000
  H   H451      1.0  0.27208  0.13527  0.75427  1.0000
  C   C590      1.0  0.18020  0.24047  0.73962  1.0000
  H   H452      1.0  0.27608  0.26122  0.85397  1.0000
  C   C591      1.0  0.06787  0.30006  0.74171  1.0000
  H   H453      1.0  0.23369  0.30038  0.79242  1.0000
  C   C592      1.0  0.15971  0.35590  0.95574  1.0000
  H   H454      1.0  0.12875  0.30585  0.77964  1.0000
  H   H455      1.0  0.14413  0.34170  0.78568  1.0000
  H   H456      1.0  0.14752  0.37787  0.76771  1.0000
  C   C593      1.0  0.32328  0.36044  0.80471  1.0000
  H   H457      1.0  0.11957  0.34307  0.73731  1.0000
  H   H458      1.0  0.07727  0.31456  0.77635  1.0000
  C   C594      1.0  0.01420  0.44651  0.92258  1.0000
  H   H459      1.0  0.10957  0.24343  0.76483  1.0000
  C   C595      1.0  0.25479  0.47690  0.78349  1.0000
  C   C596      1.0  0.10786  0.28439  0.94839  1.0000
  C   C597      1.0  0.29670  0.32606  0.82167  1.0000
  C   C598      1.0  0.08474  0.44854  0.94516  1.0000
  H   H460      1.0  0.05927  0.29479  0.75234  1.0000
  H   H461      1.0  0.17609  0.42487  0.83980  1.0000
  H   H462      1.0  0.31669  0.27923  0.81291  1.0000
  C   C599      1.0  0.02934  0.45160  0.93206  1.0000
  P   P22       1.0  0.05984  0.29071  0.94226  1.0000
  C   C600      1.0  0.07006  0.28282  0.92446  1.0000
  C   C601      1.0  0.05421  0.32346  0.94194  1.0000
  C   C602      1.0  0.06591  0.33556  0.95042  1.0000
  P   P23       1.0  0.03870  0.46879  0.95693  1.0000
  C   C603      1.0  0.04462  0.37446  0.94102  1.0000
  C   C604      1.0  0.03254  0.36249  0.93275  1.0000
  C   C605      1.0  0.03726  0.33708  0.93325  1.0000
  C   C606      1.0  0.08298  0.29845  0.91446  1.0000
  C   C607      1.0  0.09310  0.29115  0.90117  1.0000
  C   C608      1.0  0.09021  0.26838  0.89772  1.0000
  C   C609      1.0  0.07743  0.25268  0.90764  1.0000
  C   C610      1.0  0.06763  0.25974  0.92104  1.0000
  C   C611      1.0  0.08501  0.27623  0.95201  1.0000
  H   H463      1.0  0.26700  0.41438  0.81225  1.0000
  H   H464      1.0  0.23980  0.23655  0.79485  1.0000
  H   H465      1.0  0.24481  0.40264  0.85754  1.0000
  C   C612      1.0  0.23244  0.30093  0.80384  1.0000
  C   C613      1.0  0.25384  0.23010  0.74801  1.0000
  C   C614      1.0  0.27854  0.23357  0.79576  1.0000
  H   H466      1.0  0.04905  0.48617  0.84136  1.0000
  C   C615      1.0  0.01521  0.30615  0.89780  1.0000
  C   C616      1.0  0.16303  0.43957  0.84381  1.0000
  H   H467      1.0  0.04153  0.39419  0.94032  1.0000
  C   C617      1.0  0.06858  0.25841  0.79324  1.0000
  C   C618      1.0  0.31075  0.14036  0.78318  1.0000
  H   H468      1.0  0.08554  0.31619  0.91690  1.0000
  H   H469      1.0  0.10283  0.30341  0.89342  1.0000
  H   H470      1.0  0.09778  0.26303  0.88732  1.0000
  H   H471      1.0  0.07527  0.23499  0.90498  1.0000
  H   H472      1.0  0.05838  0.24713  0.92877  1.0000
  C   C619      1.0  0.06618  0.28382  0.79047  1.0000
  C   C620      1.0  0.25928  0.20367  0.78682  1.0000
  H   H473      1.0  0.16170  0.28267  0.76277  1.0000
  H   H474      1.0  0.12051  0.43343  0.93597  1.0000
  C   C621      1.0  0.29017  0.25644  0.84537  1.0000
  H   H475      1.0  0.24754  0.29199  0.74333  1.0000
  C   C622      1.0  0.04974  0.42369  0.86683  1.0000
  C   C623      1.0  0.10948  0.41341  0.95621  1.0000
  C   C624      1.0  0.25750  0.22566  0.79263  1.0000
  H   H476      1.0  0.27094  0.30133  0.80353  1.0000
  C   C625      1.0  0.25803  0.40607  0.83505  1.0000
  H   H477      1.0  0.06813  0.41426  0.86461  1.0000
  C   C626      1.0  0.31628  0.14033  0.79718  1.0000
  H   H478      1.0  0.23610  0.34318  0.73242  1.0000
  H   H479      1.0  0.31473  0.02233  0.90134  1.0000
  C   C627      1.0  0.19003  0.48054  0.81257  1.0000
  H   H480      1.0  0.15810  0.23132  0.72477  1.0000
  H   H481      1.0  0.12650  0.40099  0.95615  1.0000
  H   H482      1.0  0.03442  0.30189  0.73223  1.0000
  H   H483      1.0  0.30673  0.23789  0.73959  1.0000
  P   P24       1.0  0.19602  0.47111  0.83089  1.0000
  C   C628      1.0  0.01924  0.46282  0.94431  1.0000
  C   C629      1.0  0.21990  0.44525  0.83232  1.0000
  H   H484      1.0  0.08598  0.22427  0.78608  1.0000
  C   C630      1.0  0.28448  0.34692  0.81432  1.0000
  H   H485      1.0  0.31349  0.19342  0.75663  1.0000
  H   H486      1.0  0.00876  0.46825  0.82433  1.0000
  C   C631      1.0  0.32231  0.32333  0.82117  1.0000
  P   P25       1.0  0.32602  0.32171  0.72509  1.0000
  H   H487      1.0  0.19317  0.30254  0.80710  1.0000
  H   H488      1.0  0.19623  0.22810  0.73610  1.0000
  C   C632      1.0  0.13820  0.25869  0.73741  1.0000
  C   C633      1.0  0.24244  0.41274  0.84713  1.0000
  H   H489      1.0  0.07925  0.32558  0.95708  1.0000
  C   C634      1.0  0.15875  0.24228  0.73321  1.0000
  H   H490      1.0  0.27724  0.25059  0.80027  1.0000
  H   H491      1.0  0.29631  0.28187  0.73248  1.0000
  H   H492      1.0  0.18810  0.36036  0.96816  1.0000
  C   C635      1.0  0.14597  0.48473  0.93989  1.0000
  H   H493      1.0  0.18972  0.44374  0.80790  1.0000
  C   C636      1.0  0.32587  0.24298  0.82307  1.0000
  H   H494      1.0  0.24264  0.34344  0.84338  1.0000
  H   H495      1.0  0.19026  0.30369  0.83322  1.0000
  C   C637      1.0  0.28811  0.15199  0.73435  1.0000
  H   H496      1.0  0.10838  0.44809  0.86475  1.0000
  C   C638      1.0  0.24907  0.27352  0.74065  1.0000
  H   H497      1.0  0.22736  0.30285  0.84475  1.0000
  C   C639      1.0  0.31153  0.18434  0.73567  1.0000
  C   C640      1.0  0.13548  0.35178  0.95615  1.0000
  H   H498      1.0  0.26396  0.46998  0.79285  1.0000
  H   H499      1.0  0.30486  0.15202  0.80438  1.0000
  H   H500      1.0  0.13664  0.47466  0.93389  1.0000
  H   H501      1.0  0.05819  0.24991  0.80256  1.0000
  C   C641      1.0  0.16051  0.27145  0.75457  1.0000
  C   C642      1.0  0.18099  0.25486  0.75041  1.0000
  C   C643      1.0  0.04548  0.44915  0.86582  1.0000
  C   C644      1.0  0.27515  0.33296  0.72919  1.0000
  C   C645      1.0  0.20802  0.30258  0.82685  1.0000
  C   C646      1.0  0.14160  0.43399  0.85225  1.0000
  H   H502      1.0  0.05394  0.29501  0.79763  1.0000
  C   C647      1.0  0.09079  0.41090  0.96749  1.0000
  C   C648      1.0  0.02155  0.46143  0.86847  1.0000
  C   C649      1.0  0.10328  0.30902  0.72521  1.0000
  C   C650      1.0  0.25487  0.41921  0.82166  1.0000
  C   C651      1.0  0.32691  0.33978  0.73940  1.0000
  H   H503      1.0  0.01181  0.28769  0.89759  1.0000
  H   H504      1.0  0.11016  0.29943  0.94009  1.0000
  H   H505      1.0  0.14543  0.27998  0.95253  1.0000
  C   C652      1.0  0.25178  0.33820  0.72478  1.0000
  C   C653      1.0  0.31518  0.27437  0.73340  1.0000
  C   C654      1.0  0.10160  0.49301  0.90666  1.0000
  C   C655      1.0  0.00198  0.38042  0.96697  1.0000
  H   H506      1.0  0.33099  0.20772  0.83552  1.0000
  C   C656      1.0  0.13906  0.27383  0.74791  1.0000
  H   H507      1.0  0.26467  0.35013  0.81532  1.0000
  C   C657      1.0  0.18275  0.31264  0.72563  1.0000
  H   H508      1.0  0.21136  0.43700  0.85524  1.0000
  H   H509      1.0  0.18796  0.29384  0.72973  1.0000
  H   H510      1.0  0.30219  0.29275  0.85962  1.0000
  C   C658      1.0  0.30260  0.16937  0.72759  1.0000
  C   C659      1.0  0.30290  0.23269  0.84602  1.0000
  H   H511      1.0  0.23708  0.16974  0.76589  1.0000
  H   H512      1.0  0.23220  0.35861  0.86695  1.0000
  H   H513      1.0  0.12250  0.31070  0.72304  1.0000
  H   H514      1.0  0.25577  0.20722  0.73146  1.0000
  H   H515      1.0  0.25206  0.25736  0.76232  1.0000
  H   H516      1.0  0.25608  0.21488  0.75631  1.0000
  H   H517      1.0  0.06102  0.45901  0.86334  1.0000
  C   C660      1.0  0.29773  0.36382  0.80565  1.0000
  C   C661      1.0  0.25124  0.24544  0.72293  1.0000
  H   H518      1.0  0.30077  0.26016  0.76397  1.0000
  H   H519      1.0  0.01872  0.28253  0.92810  1.0000
  C   C662      1.0  0.26131  0.33448  0.87648  1.0000
  H   H520      1.0  0.25670  0.34134  0.88678  1.0000
  H   H521      1.0  0.12705  0.47270  0.96012  1.0000
  H   H522      1.0  0.28250  0.13942  0.72811  1.0000
  C   C663      1.0  0.25330  0.33540  0.85200  1.0000
  H   H523      1.0  0.16529  0.47456  0.88587  1.0000
  H   H524      1.0  0.24270  0.19776  0.78473  1.0000
  H   H525      1.0  0.30298  0.37104  0.73049  1.0000
  H   H526      1.0  0.03005  0.36179  0.83682  1.0000
  C   C664      1.0  0.06904  0.42731  0.96770  1.0000
  H   H527      1.0  0.02793  0.32799  0.92674  1.0000
  H   H528      1.0  0.06625  0.24750  0.96426  1.0000
  H   H529      1.0  0.12186  0.25975  0.73223  1.0000
  C   C665      1.0  0.29579  0.32759  0.71930  1.0000
  C   C666      1.0  0.05364  0.30403  0.73031  1.0000
  C   C667      1.0  0.32091  0.22603  0.83494  1.0000
  C   C668      1.0  0.00230  0.44771  0.87316  1.0000
  C   C669      1.0  0.18414  0.46989  0.78946  1.0000
  H   H530      1.0  0.32128  0.18786  0.78434  1.0000
  C   C670      1.0  0.02338  0.27755  0.96382  1.0000
  C   C671      1.0  0.32587  0.12478  0.77420  1.0000
  C   C672      1.0  0.12574  0.25292  0.96557  1.0000
  H   H531      1.0  0.30364  0.39567  0.74999  1.0000
  C   C673      1.0  0.00948  0.36015  0.85771  1.0000
  C   C674      1.0  0.01288  0.36779  0.84304  1.0000
  C   C675      1.0  0.16907  0.35815  0.96849  1.0000
  H   H532      1.0  0.08210  0.48872  0.96209  1.0000
  C   C676      1.0  0.00172  0.34680  0.90438  1.0000
  H   H533      1.0  0.11540  0.49115  0.85882  1.0000
  H   H534      1.0  0.18940  0.48589  0.85996  1.0000
  Fe  Fe40      1.0  0.25231  0.56169  0.16417  1.0000
  S   S75       1.0  0.21201  0.56625  0.17135  1.0000
  S   S76       1.0  0.27612  0.52521  0.16052  1.0000
  Fe  Fe41      1.0  0.25460  0.61709  0.16285  1.0000
  S   S77       1.0  0.21382  0.62474  0.16931  1.0000
  S   S78       1.0  0.27155  0.65254  0.16025  1.0000
  Fe  Fe42      1.0  0.21973  0.59234  0.18574  1.0000
  S   S79       1.0  0.20433  0.59099  0.20927  1.0000
  Fe  Fe43      1.0  0.21004  0.59832  0.15411  1.0000
  S   S80       1.0  0.17864  0.60312  0.14029  1.0000
  S   S81       1.0  0.26045  0.58541  0.17990  1.0000
  S   S82       1.0  0.25022  0.59302  0.14628  1.0000
  Fe  Fe44      1.0  0.15941  0.54744  0.04420  1.0000
  S   S83       1.0  0.18050  0.57893  0.03743  1.0000
  H   H535      1.0  0.09548  0.54318  0.01722  1.0000
  Fe  Fe45      1.0  0.11451  0.57899  0.05617  1.0000
  S   S84       1.0  0.13133  0.61351  0.05020  1.0000
  S   S85       1.0  0.07748  0.57492  0.06825  1.0000
  Fe  Fe46      1.0  0.14556  0.59809  0.02935  1.0000
  S   S86       1.0  0.14219  0.62015  0.00757  1.0000
  Fe  Fe47      1.0  0.16478  0.59136  0.05889  1.0000
  S   S87       1.0  0.18987  0.60504  0.07229  1.0000
  S   S88       1.0  0.12561  0.56572  0.03477  1.0000
  S   S89       1.0  0.14682  0.55791  0.06621  1.0000
  C   C677      1.0  0.18222  0.60338  0.12139  1.0000
  C   C678      1.0  0.16266  0.59877  0.11468  1.0000
  C   C679      1.0  0.16485  0.59865  0.09971  1.0000
  C   C680      1.0  0.18629  0.60421  0.09123  1.0000
  C   C681      1.0  0.20550  0.60963  0.09791  1.0000
  C   C682      1.0  0.20372  0.60870  0.11291  1.0000
  H   H536      1.0  0.14590  0.59475  0.12114  1.0000
  H   H537      1.0  0.14991  0.59447  0.09474  1.0000
  H   H538      1.0  0.22191  0.61453  0.09145  1.0000
  H   H539      1.0  0.21880  0.61257  0.11790  1.0000
  C   C683      1.0  0.27784  0.77680  0.21665  1.0000
  C   C684      1.0  0.19768  0.64087  0.21062  1.0000
  C   C685      1.0  0.20654  0.53510  0.07222  1.0000
  H   H540      1.0  0.21442  0.53018  0.15050  1.0000
  H   H541      1.0  0.20557  0.64272  0.19955  1.0000
  C   C686      1.0  0.25649  0.56504  0.08552  1.0000
  C   C687      1.0  0.08513  0.63029  0.97866  1.0000
  H   H542      1.0  0.20042  0.55359  0.07466  1.0000
  H   H543      1.0  0.28721  0.69703  0.16466  1.0000
  C   C688      1.0  0.16506  0.58252  0.99201  1.0000
  C   C689      1.0  0.15286  0.60645  0.99170  1.0000
  H   H544      1.0  0.16829  0.57190  0.00215  1.0000
  H   H545      1.0  0.14022  0.63872  0.97808  1.0000
  C   C690      1.0  0.29232  0.59252  0.20603  1.0000
  C   C691      1.0  0.28936  0.55073  0.12116  1.0000
  C   C692      1.0  0.05430  0.54070  0.98947  1.0000
  H   H546      1.0  0.05709  0.62431  0.07407  1.0000
  C   C693      1.0  0.03725  0.60509  0.03614  1.0000
  C   C694      1.0  0.05711  0.59640  0.04400  1.0000
  C   C695      1.0  0.05305  0.58510  0.05801  1.0000
  C   C696      1.0  0.02921  0.58183  0.06397  1.0000
  C   C697      1.0  0.01357  0.65709  0.06715  1.0000
  H   H547      1.0  0.04035  0.61437  0.02543  1.0000
  H   H548      1.0  0.07551  0.59879  0.03931  1.0000
  H   H549      1.0  0.02601  0.57300  0.07478  1.0000
  C   C698      1.0  0.18955  0.66173  0.21766  1.0000
  C   C699      1.0  0.02650  0.65831  0.19550  1.0000
  C   C700      1.0  0.02682  0.57915  0.98813  1.0000
  H   H550      1.0  0.15603  0.49889  0.06850  1.0000
  C   C701      1.0  0.32593  0.68953  0.16668  1.0000
  C   C702      1.0  0.23902  0.53124  0.11562  1.0000
  H   H551      1.0  0.02327  0.65142  0.99334  1.0000
  C   C703      1.0  0.30757  0.60974  0.20004  1.0000
  H   H552      1.0  0.20568  0.51386  0.01209  1.0000
  C   C704      1.0  0.31221  0.77986  0.19806  1.0000
  C   C705      1.0  0.23143  0.50714  0.05706  1.0000
  C   C706      1.0  0.10168  0.56510  0.99694  1.0000
  C   C707      1.0  0.04324  0.53404  0.00325  1.0000
  C   C708      1.0  0.06205  0.50119  0.06502  1.0000
  H   H553      1.0  0.03366  0.69123  0.00809  1.0000
  C   C709      1.0  0.04661  0.62111  0.97294  1.0000
  H   H554      1.0  0.32288  0.60495  0.19211  1.0000
  H   H555      1.0  0.09224  0.58179  0.00085  1.0000
  C   C710      1.0  0.29897  0.77249  0.18837  1.0000
  C   C711      1.0  0.26458  0.76949  0.20681  1.0000
  H   H556      1.0  0.27230  0.56312  0.12140  1.0000
  C   C712      1.0  0.23765  0.52781  0.13057  1.0000
  C   C713      1.0  0.02192  0.49430  0.06085  1.0000
  C   C714      1.0  0.13966  0.71356  0.20706  1.0000
  C   C715      1.0  0.30552  0.68262  0.21661  1.0000
  C   C716      1.0  0.25323  0.68202  0.19452  1.0000
  C   C717      1.0  0.03522  0.67470  0.20272  1.0000
  C   C718      1.0  0.03870  0.53015  0.04887  1.0000
  H   H557      1.0  0.00707  0.65710  0.19668  1.0000
  C   C719      1.0  0.01964  0.51605  0.05160  1.0000
  H   H558      1.0  0.15077  0.66236  0.13153  1.0000
  C   C720      1.0  0.04628  0.56322  0.98198  1.0000
  C   C721      1.0  0.27187  0.65859  0.12104  1.0000
  C   C722      1.0  0.01691  0.75510  0.06287  1.0000
  H   H559      1.0  0.09749  0.63070  0.98649  1.0000
  H   H560      1.0  0.04632  0.76005  0.04598  1.0000
  C   C723      1.0  0.30009  0.72213  0.13576  1.0000
  H   H561      1.0  0.17736  0.65416  0.15090  1.0000
  H   H562      1.0  0.31814  0.49879  0.10770  1.0000
  H   H563      1.0  0.04992  0.51689  0.00923  1.0000
  H   H564      1.0  0.28658  0.71041  0.13535  1.0000
  H   H565      1.0  0.06964  0.52884  0.98473  1.0000
  C   C724      1.0  0.05985  0.52275  0.05561  1.0000
  H   H566      1.0  0.12220  0.51559  0.04455  1.0000
  C   C725      1.0  0.19486  0.54272  0.11759  1.0000
  C   C726      1.0  0.25514  0.68846  0.20804  1.0000
  H   H567      1.0  0.15461  0.71320  0.21333  1.0000
  C   C727      1.0  0.27518  0.76723  0.19275  1.0000
  H   H568      1.0  0.15948  0.65557  0.17608  1.0000
  P   P26       1.0  0.26800  0.52388  0.10495  1.0000
  H   H569      1.0  0.08036  0.63336  0.17839  1.0000
  C   C728      1.0  0.01339  0.60179  0.04210  1.0000
  C   C729      1.0  0.23966  0.70875  0.21294  1.0000
  C   C730      1.0  0.12524  0.73564  0.20311  1.0000
  C   C731      1.0  0.32975  0.53893  0.12880  1.0000
  H   H570      1.0  0.08684  0.71515  0.18409  1.0000
  C   C732      1.0  0.26987  0.54162  0.08756  1.0000
  C   C733      1.0  0.00917  0.64986  0.08193  1.0000
  H   H571      1.0  0.15332  0.58034  0.19748  1.0000
  H   H572      1.0  0.29963  0.53938  0.05382  1.0000
  C   C734      1.0  0.11687  0.52207  0.00137  1.0000
  C   C735      1.0  0.22220  0.72208  0.20454  1.0000
  H   H573      1.0  0.25397  0.52157  0.13575  1.0000
  C   C736      1.0  0.14897  0.62000  0.97842  1.0000
  C   C737      1.0  0.09038  0.62734  0.08225  1.0000
  C   C738      1.0  0.10728  0.64264  0.08359  1.0000
  C   C739      1.0  0.10323  0.66729  0.07822  1.0000
  C   C740      1.0  0.08232  0.67666  0.07147  1.0000
  C   C741      1.0  0.06516  0.66143  0.07014  1.0000
  C   C742      1.0  0.06952  0.63664  0.07546  1.0000
  H   H574      1.0  0.31440  0.64660  0.19879  1.0000
  C   C743      1.0  0.01566  0.57226  0.00194  1.0000
  P   P27       1.0  0.01826  0.60899  0.97873  1.0000
  H   H575      1.0  0.23358  0.49666  0.16709  1.0000
  C   C744      1.0  0.13483  0.69188  0.20296  1.0000
  C   C745      1.0  0.03065  0.70490  0.06127  1.0000
  H   H576      1.0  0.08748  0.67541  0.16219  1.0000
  C   C746      1.0  0.19376  0.53998  0.13248  1.0000
  H   H577      1.0  0.11123  0.58225  0.97559  1.0000
  C   C747      1.0  0.04894  0.66865  0.04142  1.0000
  H   H578      1.0  0.05770  0.61597  0.99424  1.0000
  C   C748      1.0  0.04374  0.68040  0.01629  1.0000
  C   C749      1.0  0.06499  0.66467  0.01241  1.0000
  C   C750      1.0  0.07816  0.65085  0.02296  1.0000
  C   C751      1.0  0.07026  0.65288  0.03740  1.0000
  H   H579      1.0  0.09378  0.60807  0.08608  1.0000
  H   H580      1.0  0.12376  0.63528  0.08852  1.0000
  H   H581      1.0  0.11662  0.67899  0.07903  1.0000
  C   C752      1.0  0.02384  0.54976  0.00943  1.0000
  C   C753      1.0  0.28293  0.63979  0.21425  1.0000
  C   C754      1.0  0.17344  0.57242  0.97913  1.0000
  H   H582      1.0  0.05860  0.71602  0.04453  1.0000
  C   C755      1.0  0.14150  0.59573  0.21724  1.0000
  H   H583      1.0  0.24433  0.50395  0.04768  1.0000
  H   H584      1.0  0.26504  0.76122  0.18526  1.0000
  H   H585      1.0  0.02158  0.65290  0.08911  1.0000
  H   H586      1.0  0.03463  0.50141  0.09484  1.0000
  H   H587      1.0  0.07138  0.66328  0.00123  1.0000
  H   H588      1.0  0.09463  0.63860  0.01998  1.0000
  H   H589      1.0  0.08086  0.64200  0.04534  1.0000
  H   H590      1.0  0.07455  0.53381  0.05358  1.0000
  H   H591      1.0  0.10585  0.67359  0.13717  1.0000
  C   C756      1.0  0.03564  0.68232  0.03074  1.0000
  H   H592      1.0  0.25674  0.49652  0.08291  1.0000
  C   C757      1.0  0.30300  0.68308  0.16510  1.0000
  H   H593      1.0  0.01154  0.77447  0.06347  1.0000
  P   P28       1.0  0.03956  0.67266  0.06003  1.0000
  H   H594      1.0  0.19141  0.67954  0.21192  1.0000
  C   C758      1.0  0.12558  0.54406  0.97787  1.0000
  C   C759      1.0  0.11993  0.63693  0.21513  1.0000
  C   C760      1.0  0.10367  0.54338  0.00619  1.0000
  H   H595      1.0  0.17641  0.54408  0.13899  1.0000
  C   C761      1.0  0.11743  0.66976  0.14572  1.0000
  C   C762      1.0  0.29413  0.74089  0.14452  1.0000
  S   S90       1.0  0.17545  0.50953  0.03954  1.0000
  H   H596      1.0  0.24501  0.57282  0.09435  1.0000
  C   C763      1.0  0.07663  0.66229  0.19184  1.0000
  H   H597      1.0  0.17827  0.54853  0.11255  1.0000
  H   H598      1.0  0.26491  0.66647  0.19046  1.0000
  H   H599      1.0  0.32771  0.70831  0.16734  1.0000
  C   C764      1.0  0.00947  0.58980  0.05595  1.0000
  C   C765      1.0  0.30036  0.65886  0.16387  1.0000
  C   C766      1.0  0.31121  0.75631  0.14534  1.0000
  C   C767      1.0  0.22030  0.71544  0.19112  1.0000
  H   H600      1.0  0.16528  0.51774  0.00397  1.0000
  H   H601      1.0  0.23449  0.69010  0.17573  1.0000
  H   H602      1.0  0.05559  0.56845  0.97149  1.0000
  H   H603      1.0  0.14645  0.67504  0.20595  1.0000
  C   C768      1.0  0.11233  0.56535  0.98273  1.0000
  H   H604      1.0  0.32026  0.74479  0.09999  1.0000
  H   H605      1.0  0.07848  0.49599  0.07019  1.0000
  H   H606      1.0  0.03609  0.63041  0.18137  1.0000
  H   H607      1.0  0.32981  0.87314  0.13361  1.0000
  H   H608      1.0  0.23100  0.54613  0.05380  1.0000
  H   H609      1.0  0.21796  0.54109  0.09776  1.0000
  H   H610      1.0  0.06668  0.68895  0.20695  1.0000
  H   H611      1.0  0.30738  0.77053  0.17756  1.0000
  H   H612      1.0  0.03484  0.49897  0.98061  1.0000
  C   C769      1.0  0.26099  0.66604  0.10846  1.0000
  C   C770      1.0  0.29259  0.53011  0.11383  1.0000
  C   C771      1.0  0.19655  0.51567  0.08058  1.0000
  H   H613      1.0  0.08524  0.59408  0.21554  1.0000
  C   C772      1.0  0.28741  0.54644  0.06265  1.0000
  C   C773      1.0  0.30180  0.78176  0.21215  1.0000
  C   C774      1.0  0.12818  0.52231  0.98722  1.0000
  C   C775      1.0  0.27299  0.56919  0.06052  1.0000
  C   C776      1.0  0.12202  0.66468  0.17107  1.0000
  C   C777      1.0  0.04333  0.72200  0.05221  1.0000
  H   H614      1.0  0.31922  0.62224  0.16368  1.0000
  H   H615      1.0  0.00290  0.52211  0.04669  1.0000
  C   C778      1.0  0.30781  0.70548  0.20875  1.0000
  C   C779      1.0  0.30275  0.63336  0.20397  1.0000
  C   C780      1.0  0.06024  0.67654  0.20102  1.0000
  P   P29       1.0  0.10899  0.66429  0.18955  1.0000
  H   H616      1.0  0.12898  0.75238  0.20636  1.0000
  C   C781      1.0  0.20318  0.50344  0.00372  1.0000
  H   H617      1.0  0.00101  0.58434  0.00713  1.0000
  C   C782      1.0  0.31501  0.51451  0.11353  1.0000
  C   C783      1.0  0.10684  0.49916  0.09384  1.0000
  C   C784      1.0  0.10140  0.71446  0.19069  1.0000
  C   C785      1.0  0.14273  0.66371  0.14250  1.0000
  H   H618      1.0  0.01050  0.49755  0.00438  1.0000
  H   H619      1.0  0.18323  0.55407  0.97945  1.0000
  C   C786      1.0  0.23589  0.69547  0.18610  1.0000
  H   H620      1.0  0.29235  0.71651  0.20421  1.0000
  C   C787      1.0  0.14752  0.65962  0.16770  1.0000
  C   C788      1.0  0.04284  0.64336  0.18681  1.0000
  H   H621      1.0  0.27378  0.57969  0.05004  1.0000
  C   C789      1.0  0.06786  0.64519  0.18508  1.0000
  H   H622      1.0  0.09526  0.75330  0.19159  1.0000
  C   C790      1.0  0.11531  0.69210  0.19502  1.0000
  C   C791      1.0  0.21741  0.53858  0.10921  1.0000
  H   H623      1.0  0.27628  0.74336  0.15070  1.0000
  H   H624      1.0  0.26393  0.64583  0.12935  1.0000
  C   C792      1.0  0.30782  0.55499  0.12871  1.0000
  H   H625      1.0  0.20665  0.72558  0.18464  1.0000
  C   C793      1.0  0.14538  0.49405  0.07860  1.0000
  C   C794      1.0  0.10708  0.67049  0.15995  1.0000
  C   C795      1.0  0.18011  0.50555  0.99905  1.0000
  H   H626      1.0  0.13537  0.61634  0.18246  1.0000
  C   C796      1.0  0.15776  0.65900  0.15346  1.0000
  H   H627      1.0  0.24464  0.65889  0.10694  1.0000
  H   H628      1.0  0.01530  0.54478  0.02014  1.0000
  H   H629      1.0  0.29979  0.70494  0.09160  1.0000
  C   C797      1.0  0.13370  0.61671  0.19391  1.0000
  C   C798      1.0  0.12246  0.63761  0.20021  1.0000
  H   H630      1.0  0.24623  0.76522  0.20992  1.0000
  C   C799      1.0  0.21517  0.53241  0.13896  1.0000
  C   C800      1.0  0.29222  0.69203  0.09991  1.0000
  H   H631      1.0  0.18258  0.51944  0.08941  1.0000
  C   C801      1.0  0.28607  0.53279  0.07616  1.0000
  C   C802      1.0  0.14345  0.59598  0.20241  1.0000
  C   C803      1.0  0.25763  0.57853  0.07198  1.0000
  H   H632      1.0  0.11293  0.51728  0.07241  1.0000
  C   C804      1.0  0.22389  0.53089  0.06046  1.0000
  C   C805      1.0  0.06262  0.62193  0.98302  1.0000
  H   H633      1.0  0.02253  0.68596  0.20966  1.0000
  H   H634      1.0  0.03691  0.54708  0.04177  1.0000
  H   H635      1.0  0.24646  0.59621  0.07035  1.0000
  H   H636      1.0  0.29754  0.51531  0.07768  1.0000
  H   H637      1.0  0.07993  0.69565  0.06710  1.0000
  H   H638      1.0  0.20992  0.73732  0.20855  1.0000
  C   C806      1.0  0.27185  0.59908  0.21569  1.0000
  C   C807      1.0  0.10620  0.73612  0.19485  1.0000
  H   H639      1.0  0.30478  0.57032  0.13489  1.0000
  H   H640      1.0  0.01916  0.69463  0.03359  1.0000
  C   C808      1.0  0.27117  0.68274  0.09790  1.0000
  H   H641      1.0  0.26271  0.68851  0.08814  1.0000
  C   C809      1.0  0.12864  0.49901  0.03974  1.0000
  H   H642      1.0  0.11900  0.50557  0.00879  1.0000
  C   C810      1.0  0.19556  0.61769  0.21791  1.0000
  C   C811      1.0  0.29295  0.66774  0.12305  1.0000
  C   C812      1.0  0.03647  0.74698  0.05302  1.0000
  C   C813      1.0  0.30326  0.68456  0.11253  1.0000
  H   H643      1.0  0.29585  0.57430  0.20282  1.0000
  C   C814      1.0  0.27193  0.49457  0.15908  1.0000
  H   H644      1.0  0.30118  0.66179  0.13286  1.0000
  P   P30       1.0  0.14710  0.49512  0.98167  1.0000
  H   H645      1.0  0.30660  0.77098  0.15200  1.0000
  C   C815      1.0  0.12087  0.50453  0.08078  1.0000
  C   C816      1.0  0.00424  0.73823  0.07195  1.0000
  H   H646      1.0  0.32866  0.96017  0.07377  1.0000
  C   C817      1.0  0.01107  0.71323  0.07119  1.0000
  C   C818      1.0  0.32086  0.64093  0.16468  1.0000
  H   H647      1.0  0.01252  0.50808  0.11857  1.0000
  H   H648      1.0  0.32906  0.92590  0.05967  1.0000
  C   C819      1.0  0.00464  0.64764  0.99556  1.0000
  H   H649      1.0  0.08794  0.50760  0.09553  1.0000
  P   P31       1.0  0.33058  0.69599  0.11539  1.0000
  C   C820      1.0  0.32325  0.71868  0.12775  1.0000
  C   C821      1.0  0.33048  0.71407  0.20645  1.0000
  H   H650      1.0  0.33084  0.78356  0.19478  1.0000
  H   H651      1.0  0.00094  0.70056  0.07832  1.0000
  H   H652      1.0  0.99976  0.65822  0.04675  1.0000
  H   H653      1.0  0.01463  0.68931  0.29824  1.0000
  Fe  Fe48      1.0  0.14916  0.72984  0.28255  1.0000
  S   S91       1.0  0.17599  0.69617  0.27928  1.0000
  S   S92       1.0  0.16062  0.76769  0.28167  1.0000
  Fe  Fe49      1.0  0.10428  0.70256  0.28291  1.0000
  S   S93       1.0  0.12889  0.66735  0.27925  1.0000
  S   S94       1.0  0.06342  0.69945  0.28865  1.0000
  Fe  Fe50      1.0  0.15026  0.67667  0.29576  1.0000
  S   S95       1.0  0.16378  0.64653  0.31276  1.0000
  Fe  Fe51      1.0  0.15215  0.69004  0.26320  1.0000
  S   S96       1.0  0.16815  0.68669  0.24008  1.0000
  S   S97       1.0  0.12489  0.71075  0.30020  1.0000
  S   S98       1.0  0.12606  0.72475  0.26572  1.0000
  S   S99       1.0  0.27557  0.86353  0.27041  1.0000
  S   S100      1.0  0.28532  0.85981  0.30385  1.0000
  Fe  Fe52      1.0  0.27929  0.83377  0.28882  1.0000
  S   S101      1.0  0.25926  0.80016  0.29535  1.0000
  Fe  Fe53      1.0  0.28562  0.88863  0.28471  1.0000
  S   S102      1.0  0.26673  0.92788  0.28562  1.0000
  Fe  Fe54      1.0  0.11169  0.56604  0.40994  1.0000
  S   S103      1.0  0.11052  0.60431  0.41459  1.0000
  S   S104      1.0  0.07891  0.54711  0.41117  1.0000
  Fe  Fe55      1.0  0.16626  0.55653  0.40705  1.0000
  S   S105      1.0  0.16990  0.59437  0.41164  1.0000
  Fe  Fe56      1.0  0.13896  0.58879  0.42932  1.0000
  S   S106      1.0  0.12726  0.59924  0.45195  1.0000
  Fe  Fe57      1.0  0.14112  0.60649  0.39652  1.0000
  S   S107      1.0  0.13876  0.64122  0.38066  1.0000
  S   S108      1.0  0.13784  0.55020  0.42566  1.0000
  S   S109      1.0  0.13984  0.56907  0.39082  1.0000
  C   C822      1.0  0.15610  0.64543  0.33160  1.0000
  C   C823      1.0  0.16447  0.62423  0.34037  1.0000
  C   C824      1.0  0.15895  0.62248  0.35537  1.0000
  C   C825      1.0  0.14536  0.64217  0.36180  1.0000
  C   C826      1.0  0.13705  0.66347  0.35304  1.0000
  C   C827      1.0  0.14217  0.66503  0.33801  1.0000
  H   H654      1.0  0.17528  0.60898  0.33554  1.0000
  H   H655      1.0  0.16549  0.60601  0.36196  1.0000
  H   H656      1.0  0.12656  0.67878  0.35794  1.0000
  H   H657      1.0  0.13550  0.68138  0.33140  1.0000
  C   C828      1.0  0.18932  0.77596  0.28408  1.0000
  C   C829      1.0  0.19219  0.80082  0.28210  1.0000
  C   C830      1.0  0.21396  0.80848  0.28478  1.0000
  C   C831      1.0  0.23312  0.79135  0.28960  1.0000
  C   C832      1.0  0.23048  0.76643  0.29129  1.0000
  C   C833      1.0  0.20880  0.75874  0.28847  1.0000
  H   H658      1.0  0.17727  0.81431  0.27872  1.0000
  H   H659      1.0  0.21556  0.82770  0.28358  1.0000
  H   H660      1.0  0.24512  0.75302  0.29507  1.0000
  H   H661      1.0  0.20692  0.73957  0.29005  1.0000
  H   H662      1.0  0.28726  0.90743  0.32538  1.0000
  H   H663      1.0  0.05031  0.73077  0.26234  1.0000
  H   H664      1.0  0.16952  0.63468  0.25050  1.0000
  H   H665      1.0  0.24063  0.87949  0.24472  1.0000
  C   C834      1.0  0.27212  0.82865  0.23137  1.0000
  H   H666      1.0  0.30188  0.83230  0.40794  1.0000
  C   C835      1.0  0.26713  0.62260  0.21978  1.0000
  C   C836      1.0  0.01021  0.57682  0.40445  1.0000
  C   C837      1.0  0.08358  0.65842  0.24855  1.0000
  C   C838      1.0  0.03362  0.64191  0.29304  1.0000
  H   H667      1.0  0.17886  0.59169  0.45826  1.0000
  H   H668      1.0  0.06076  0.55780  0.25663  1.0000
  H   H669      1.0  0.22430  0.80616  0.25262  1.0000
  C   C839      1.0  0.17533  0.53602  0.45161  1.0000
  C   C840      1.0  0.05470  0.69144  0.23872  1.0000
  H   H670      1.0  0.02492  0.58648  0.43140  1.0000
  C   C841      1.0  0.28349  0.95266  0.28514  1.0000
  H   H671      1.0  0.25930  0.58607  0.21978  1.0000
  S   S110      1.0  0.19840  0.52754  0.40282  1.0000
  C   C842      1.0  0.19516  0.74255  0.24656  1.0000
  H   H672      1.0  0.01022  0.74312  0.25257  1.0000
  H   H673      1.0  0.21528  0.79228  0.22661  1.0000
  C   C843      1.0  0.03577  0.60836  0.39694  1.0000
  C   C844      1.0  0.05631  0.59190  0.40063  1.0000
  C   C845      1.0  0.05367  0.56795  0.40641  1.0000
  C   C846      1.0  0.03058  0.56053  0.40848  1.0000
  C   C847      1.0  0.26356  0.67013  0.23771  1.0000
  H   H674      1.0  0.03783  0.62677  0.39240  1.0000
  H   H675      1.0  0.07419  0.59760  0.39862  1.0000
  H   H676      1.0  0.02845  0.54217  0.41322  1.0000
  C   C848      1.0  0.02874  0.75287  0.33984  1.0000
  C   C849      1.0  0.04745  0.52328  0.45052  1.0000
  C   C850      1.0  0.26621  0.85306  0.23385  1.0000
  C   C851      1.0  0.01393  0.70072  0.28814  1.0000
  C   C852      1.0  0.03549  0.70884  0.28089  1.0000
  C   C853      1.0  0.03400  0.72414  0.26798  1.0000
  C   C854      1.0  0.30564  0.83212  0.43029  1.0000
  C   C855      1.0  0.22872  0.66503  0.25576  1.0000
  C   C856      1.0  0.06886  0.61958  0.32603  1.0000
  C   C857      1.0  0.09006  0.62821  0.31895  1.0000
  C   C858      1.0  0.09393  0.65193  0.31998  1.0000
  C   C859      1.0  0.07668  0.66708  0.32806  1.0000
  C   C860      1.0  0.05509  0.65873  0.33500  1.0000
  C   C861      1.0  0.05148  0.63471  0.33410  1.0000
  C   C862      1.0  0.03306  0.50673  0.33381  1.0000
  C   C863      1.0  0.04065  0.67565  0.36352  1.0000
  C   C864      1.0  0.03236  0.70962  0.33757  1.0000
  H   H677      1.0  0.03143  0.77686  0.32005  1.0000
  Fe  Fe58      1.0  0.31624  0.85379  0.26494  1.0000
  C   C865      1.0  0.03528  0.71515  0.32266  1.0000
  C   C866      1.0  0.06525  0.67028  0.36616  1.0000
  C   C867      1.0  0.05301  0.67243  0.39146  1.0000
  H   H678      1.0  0.31472  0.93368  0.46449  1.0000
  H   H679      1.0  0.12847  0.61606  0.23508  1.0000
  C   C868      1.0  0.33152  0.95627  0.35886  1.0000
  P   P32       1.0  0.03275  0.67827  0.34549  1.0000
  C   C869      1.0  0.32458  0.86382  0.35088  1.0000
  C   C870      1.0  0.30919  0.99281  0.28470  1.0000
  H   H680      1.0  0.07630  0.55566  0.33057  1.0000
  H   H681      1.0  0.23455  0.50641  0.43053  1.0000
  H   H682      1.0  0.06600  0.60109  0.32543  1.0000
  H   H683      1.0  0.10370  0.61651  0.31279  1.0000
  H   H684      1.0  0.11040  0.65856  0.31451  1.0000
  H   H685      1.0  0.08023  0.68532  0.32879  1.0000
  H   H686      1.0  0.06016  0.64911  0.27514  1.0000
  H   H687      1.0  0.12391  0.49898  0.45008  1.0000
  H   H688      1.0  0.29160  0.98922  0.25204  1.0000
  H   H689      1.0  0.03768  0.70074  0.31588  1.0000
  H   H690      1.0  0.07980  0.66724  0.35754  1.0000
  H   H691      1.0  0.01199  0.62470  0.22969  1.0000
  C   C871      1.0  0.31522  0.77918  0.36329  1.0000
  H   H692      1.0  0.15855  0.54458  0.45715  1.0000
  P   P33       1.0  0.31144  0.83401  0.45894  1.0000
  C   C872      1.0  0.22980  0.84362  0.24925  1.0000
  H   H693      1.0  0.08853  0.73014  0.33377  1.0000
  C   C873      1.0  0.00294  0.66939  0.34525  1.0000
  C   C874      1.0  0.10040  0.50903  0.36221  1.0000
  C   C875      1.0  0.10208  0.67324  0.24537  1.0000
  C   C876      1.0  0.17897  0.65970  0.23200  1.0000
  H   H694      1.0  0.17866  0.73413  0.24954  1.0000
  H   H695      1.0  0.11935  0.53210  0.37218  1.0000
  H   H696      1.0  0.29968  0.75834  0.30226  1.0000
  C   C877      1.0  0.32622  0.66853  0.22202  1.0000
  H   H697      1.0  0.06499  0.59372  0.43722  1.0000
  H   H698      1.0  0.25956  0.94304  0.31543  1.0000
  C   C878      1.0  0.30503  0.97798  0.24551  1.0000
  H   H699      1.0  0.17784  0.77263  0.23314  1.0000
  C   C879      1.0  0.21674  0.73197  0.25223  1.0000
  H   H700      1.0  0.30301  0.73720  0.23329  1.0000
  H   H701      1.0  0.07272  0.49625  0.38672  1.0000
  H   H702      1.0  0.19663  0.69394  0.35051  1.0000
  C   C880      1.0  0.07433  0.57343  0.23562  1.0000
  H   H703      1.0  0.06929  0.72483  0.23064  1.0000
  H   H704      1.0  0.21683  0.71550  0.25964  1.0000
  H   H705      1.0  0.19916  0.77509  0.31643  1.0000
  C   C881      1.0  0.24249  0.66832  0.26639  1.0000
  C   C882      1.0  0.26661  0.67305  0.26270  1.0000
  C   C883      1.0  0.27715  0.67394  0.24843  1.0000
  C   C884      1.0  0.05098  0.60175  0.45864  1.0000
  C   C885      1.0  0.30854  0.77898  0.33300  1.0000
  H   H706      1.0  0.23433  0.66744  0.27744  1.0000
  H   H707      1.0  0.27722  0.67589  0.27092  1.0000
  H   H708      1.0  0.29582  0.67762  0.24590  1.0000
  P   P34       1.0  0.26474  0.77969  0.23495  1.0000
  C   C886      1.0  0.09695  0.69711  0.23888  1.0000
  C   C887      1.0  0.32305  0.93748  0.23997  1.0000
  C   C888      1.0  0.18962  0.55027  0.44169  1.0000
  C   C889      1.0  0.23801  0.74289  0.24862  1.0000
  H   H709      1.0  0.21466  0.81349  0.31745  1.0000
  H   H710      1.0  0.30756  0.74321  0.37282  1.0000
  C   C890      1.0  0.24490  0.86062  0.24262  1.0000
  H   H711      1.0  0.14999  0.57997  0.22370  1.0000
  C   C891      1.0  0.03499  0.73928  0.31636  1.0000
  C   C892      1.0  0.04169  0.64523  0.27840  1.0000
  C   C893      1.0  0.31184  0.97650  0.37936  1.0000
  C   C894      1.0  0.19206  0.49880  0.39997  1.0000
  C   C895      1.0  0.00772  0.53301  0.38548  1.0000
  H   H712      1.0  0.11079  0.65264  0.22016  1.0000
  C   C896      1.0  0.00197  0.64255  0.23117  1.0000
  H   H713      1.0  0.18376  0.56964  0.43944  1.0000
  H   H714      1.0  0.05619  0.55080  0.30988  1.0000
  C   C897      1.0  0.30373  0.74497  0.24302  1.0000
  H   H715      1.0  0.02614  0.76750  0.34652  1.0000
  H   H716      1.0  0.12768  0.72032  0.34399  1.0000
  C   C898      1.0  0.01123  0.73109  0.26248  1.0000
  C   C899      1.0  0.29681  0.76964  0.32320  1.0000
  C   C900      1.0  0.05476  0.50686  0.38626  1.0000
  H   H717      1.0  0.30743  0.95328  0.39936  1.0000
  C   C901      1.0  0.03564  0.50058  0.39657  1.0000
  H   H718      1.0  0.00324  0.68453  0.37327  1.0000
  S   S111      1.0  0.31978  0.82301  0.28268  1.0000
  C   C902      1.0  0.03170  0.75816  0.32495  1.0000
  H   H719      1.0  0.08352  0.55614  0.23236  1.0000
  C   C903      1.0  0.32329  0.93269  0.38200  1.0000
  H   H720      1.0  0.26530  0.86537  0.45424  1.0000
  H   H721      1.0  0.25095  0.62717  0.22708  1.0000
  C   C904      1.0  0.31159  0.92931  0.33172  1.0000
  C   C905      1.0  0.25671  0.81151  0.23767  1.0000
  H   H722      1.0  0.18746  0.66929  0.37354  1.0000
  C   C906      1.0  0.27532  0.94581  0.32025  1.0000
  H   H723      1.0  0.30394  0.99305  0.38398  1.0000
  H   H724      1.0  0.28907  0.82331  0.22486  1.0000
  C   C907      1.0  0.21818  0.51428  0.43669  1.0000
  H   H725      1.0  0.15274  0.50675  0.40417  1.0000
  C   C908      1.0  0.12027  0.51474  0.36813  1.0000
  C   C909      1.0  0.30543  0.95266  0.24781  1.0000
  H   H726      1.0  0.11766  0.78587  0.30358  1.0000
  H   H727      1.0  0.32319  0.91357  0.33629  1.0000
  H   H728      1.0  0.06879  0.60440  0.46104  1.0000
  C   C910      1.0  0.00952  0.63791  0.29773  1.0000
  C   C911      1.0  0.00976  0.65771  0.23977  1.0000
  C   C912      1.0  0.32169  0.96892  0.28473  1.0000
  H   H729      1.0  0.15452  0.68483  0.39152  1.0000
  H   H730      1.0  0.22805  0.66397  0.23339  1.0000
  H   H731      1.0  0.12049  0.66620  0.24788  1.0000
  C   C913      1.0  0.31356  0.95410  0.38800  1.0000
  P   P35       1.0  0.03626  0.64743  0.24931  1.0000
  C   C914      1.0  0.03724  0.52168  0.32094  1.0000
  H   H732      1.0  0.30661  0.86992  0.35610  1.0000
  C   C915      1.0  0.06154  0.57439  0.24930  1.0000
  H   H733      1.0  0.04583  0.64358  0.30070  1.0000
  C   C916      1.0  0.06368  0.61714  0.23038  1.0000
  H   H734      1.0  0.11135  0.70855  0.23655  1.0000
  H   H735      1.0  0.31154  0.86228  0.33062  1.0000
  C   C917      1.0  0.32307  0.90552  0.45054  1.0000
  H   H736      1.0  0.18428  0.59771  0.23815  1.0000
  C   C918      1.0  0.04981  0.59672  0.25357  1.0000
  C   C919      1.0  0.00791  0.59880  0.46566  1.0000
  C   C920      1.0  0.07134  0.66858  0.38009  1.0000
  C   C921      1.0  0.07330  0.70620  0.23554  1.0000
  C   C922      1.0  0.05100  0.61828  0.24415  1.0000
  H   H737      1.0  0.02650  0.72502  0.35769  1.0000
  C   C923      1.0  0.32247  0.88103  0.44921  1.0000
  C   C924      1.0  0.01268  0.60081  0.39875  1.0000
  C   C925      1.0  0.03241  0.50605  0.44929  1.0000
  C   C926      1.0  0.06433  0.54194  0.33166  1.0000
  H   H738      1.0  0.30809  0.77302  0.27751  1.0000
  H   H739      1.0  0.24080  0.71404  0.22334  1.0000
  H   H740      1.0  0.22157  0.55043  0.42618  1.0000
  C   C927      1.0  0.30899  0.76541  0.30973  1.0000
  H   H741      1.0  0.00306  0.63606  0.30906  1.0000
  C   C928      1.0  0.30677  0.76487  0.26802  1.0000
  H   H742      1.0  0.08803  0.63993  0.25356  1.0000
  C   C929      1.0  0.20394  0.49975  0.44665  1.0000
  H   H743      1.0  0.13835  0.75040  0.36316  1.0000
  H   H744      1.0  0.21377  0.84930  0.25648  1.0000
  H   H745      1.0  0.03995  0.59707  0.26419  1.0000
  H   H746      1.0  0.20988  0.66170  0.25850  1.0000
  H   H747      1.0  0.01421  0.68065  0.39775  1.0000
  H   H748      1.0  0.09028  0.66400  0.38212  1.0000
  C   C930      1.0  0.31375  0.91483  0.46340  1.0000
  H   H749      1.0  0.30446  0.99152  0.32656  1.0000
  C   C931      1.0  0.23578  0.81913  0.24692  1.0000
  H   H750      1.0  0.13006  0.72544  0.38638  1.0000
  H   H751      1.0  0.03732  0.74317  0.30479  1.0000
  C   C932      1.0  0.28740  0.76570  0.24656  1.0000
  C   C933      1.0  0.02235  0.67999  0.37499  1.0000
  H   H752      1.0  0.29585  0.73191  0.34734  1.0000
  C   C934      1.0  0.04429  0.53502  0.46283  1.0000
  C   C935      1.0  0.21101  0.53945  0.43426  1.0000
  C   C936      1.0  0.32159  0.73441  0.25190  1.0000
  H   H753      1.0  0.15656  0.77692  0.31383  1.0000
  C   C937      1.0  0.28027  0.96943  0.32060  1.0000
  H   H754      1.0  0.02827  0.51970  0.31183  1.0000
  C   C938      1.0  0.02852  0.67819  0.38891  1.0000
  C   C939      1.0  0.01206  0.51347  0.39610  1.0000
  C   C940      1.0  0.18574  0.61561  0.23240  1.0000
  H   H755      1.0  0.28644  0.83863  0.43297  1.0000
  H   H756      1.0  0.27643  0.79130  0.26227  1.0000
  C   C941      1.0  0.02650  0.59107  0.44188  1.0000
  H   H757      1.0  0.27863  0.86597  0.22929  1.0000
  P   P36       1.0  0.29296  0.78371  0.35058  1.0000
  C   C942      1.0  0.27145  0.76207  0.35584  1.0000
  H   H758      1.0  0.06124  0.52790  0.44176  1.0000
  C   C943      1.0  0.30895  0.94897  0.28504  1.0000
  C   C944      1.0  0.27796  0.73782  0.35282  1.0000
  C   C945      1.0  0.26146  0.72098  0.35693  1.0000
  C   C946      1.0  0.23848  0.72813  0.36423  1.0000
  C   C947      1.0  0.23195  0.75214  0.36739  1.0000
  C   C948      1.0  0.24830  0.76911  0.36317  1.0000
  C   C949      1.0  0.27672  0.81440  0.35004  1.0000
  C   C950      1.0  0.26656  0.82575  0.33766  1.0000
  C   C951      1.0  0.25390  0.84949  0.33731  1.0000
  C   C952      1.0  0.25135  0.86208  0.34926  1.0000
  C   C953      1.0  0.26107  0.85076  0.36170  1.0000
  C   C954      1.0  0.27357  0.82697  0.36214  1.0000
  C   C955      1.0  0.23776  0.76467  0.23928  1.0000
  H   H759      1.0  0.25125  0.97970  0.28513  1.0000
  H   H760      1.0  0.25437  0.73443  0.25332  1.0000
  H   H761      1.0  0.27811  0.76596  0.32579  1.0000
  H   H762      1.0  0.05777  0.67050  0.40228  1.0000
  C   C956      1.0  0.04902  0.59541  0.44515  1.0000
  C   C957      1.0  0.00159  0.64004  0.27313  1.0000
  C   C958      1.0  0.05962  0.66742  0.24537  1.0000
  H   H763      1.0  0.22582  0.71500  0.36756  1.0000
  H   H764      1.0  0.21422  0.75757  0.37318  1.0000
  H   H765      1.0  0.24286  0.78762  0.36571  1.0000
  H   H766      1.0  0.26852  0.81643  0.32820  1.0000
  H   H767      1.0  0.24625  0.85826  0.32769  1.0000
  H   H768      1.0  0.24201  0.88066  0.34883  1.0000
  H   H769      1.0  0.25935  0.86060  0.37092  1.0000
  H   H770      1.0  0.28102  0.81859  0.37188  1.0000
  H   H771      1.0  0.03538  0.62755  0.33968  1.0000
  H   H772      1.0  0.26657  0.70231  0.35454  1.0000
  H   H773      1.0  0.08336  0.76285  0.31351  1.0000
  C   C959      1.0  0.05294  0.53920  0.31986  1.0000
  C   C960      1.0  0.05033  0.52600  0.37529  1.0000
  C   C961      1.0  0.02666  0.53909  0.37502  1.0000
  P   P37       1.0  0.07338  0.53136  0.36035  1.0000
  C   C962      1.0  0.08230  0.56152  0.35853  1.0000
  C   C963      1.0  0.18236  0.51082  0.45402  1.0000
  C   C964      1.0  0.19475  0.76421  0.23727  1.0000
  C   C965      1.0  0.10366  0.56650  0.34959  1.0000
  C   C966      1.0  0.11120  0.58945  0.34830  1.0000
  C   C967      1.0  0.09744  0.60769  0.35584  1.0000
  C   C968      1.0  0.07607  0.60303  0.36463  1.0000
  C   C969      1.0  0.06855  0.58001  0.36605  1.0000
  C   C970      1.0  0.06004  0.52717  0.34469  1.0000
  C   C971      1.0  0.23911  0.66623  0.24150  1.0000
  H   H774      1.0  0.26821  0.98496  0.31617  1.0000
  C   C972      1.0  0.28886  0.77541  0.25921  1.0000
  C   C973      1.0  0.31722  0.95297  0.33162  1.0000
  C   C974      1.0  0.17733  0.63652  0.23941  1.0000
  H   H775      1.0  0.02267  0.55374  0.36660  1.0000
  H   H776      1.0  0.03666  0.69906  0.23602  1.0000
  H   H777      1.0  0.11472  0.55251  0.34375  1.0000
  H   H778      1.0  0.12783  0.59311  0.34153  1.0000
  H   H779      1.0  0.10338  0.62542  0.35490  1.0000
  H   H780      1.0  0.06553  0.61716  0.37053  1.0000
  H   H781      1.0  0.05234  0.57672  0.37326  1.0000
  H   H782      1.0  0.03489  0.49761  0.43951  1.0000
  C   C975      1.0  0.20661  0.69190  0.31116  1.0000
  C   C976      1.0  0.23143  0.69386  0.31057  1.0000
  C   C977      1.0  0.23871  0.71076  0.31807  1.0000
  C   C978      1.0  0.22116  0.72569  0.32614  1.0000
  C   C979      1.0  0.19609  0.72431  0.32644  1.0000
  C   C980      1.0  0.18895  0.70710  0.31901  1.0000
  P   P38       1.0  0.17364  0.74207  0.33786  1.0000
  C   C981      1.0  0.16884  0.72465  0.35527  1.0000
  C   C982      1.0  0.18438  0.77075  0.33878  1.0000
  C   C983      1.0  0.18114  0.78129  0.35162  1.0000
  C   C984      1.0  0.18976  0.80332  0.35210  1.0000
  C   C985      1.0  0.20179  0.81495  0.33981  1.0000
  C   C986      1.0  0.20523  0.80457  0.32702  1.0000
  C   C987      1.0  0.19645  0.78269  0.32648  1.0000
  C   C988      1.0  0.14987  0.73316  0.36550  1.0000
  C   C989      1.0  0.14500  0.71905  0.37862  1.0000
  C   C990      1.0  0.15884  0.69623  0.38158  1.0000
  C   C991      1.0  0.17756  0.68751  0.37143  1.0000
  C   C992      1.0  0.18256  0.70158  0.35832  1.0000
  C   C993      1.0  0.14494  0.74862  0.33017  1.0000
  C   C994      1.0  0.12558  0.73523  0.33550  1.0000
  C   C995      1.0  0.10328  0.74068  0.32971  1.0000
  C   C996      1.0  0.10028  0.75916  0.31834  1.0000
  C   C997      1.0  0.11957  0.77217  0.31277  1.0000
  C   C998      1.0  0.14179  0.76694  0.31863  1.0000
  H   H783      1.0  0.20101  0.67835  0.30565  1.0000
  H   H784      1.0  0.24499  0.68208  0.30443  1.0000
  H   H785      1.0  0.25797  0.71223  0.31767  1.0000
  H   H786      1.0  0.22723  0.73826  0.33214  1.0000
  H   H787      1.0  0.16984  0.70507  0.31944  1.0000
  H   H788      1.0  0.17211  0.77267  0.36131  1.0000
  H   H789      1.0  0.18709  0.81145  0.36200  1.0000
  H   H790      1.0  0.20830  0.83207  0.34016  1.0000
  C   C999      1.0  0.29098  0.92575  0.32580  1.0000
  C   C1000     1.0  0.04443  0.50943  0.34563  1.0000
  C   C1001     1.0  0.02901  0.72869  0.34615  1.0000
  C   C1002     1.0  0.16682  0.59235  0.46813  1.0000
  C   C1003     1.0  0.32189  0.82792  0.44073  1.0000
  C   C1004     1.0  0.14167  0.49802  0.36890  1.0000
  H   H791      1.0  0.32496  0.65063  0.22787  1.0000
  H   H792      1.0  0.00514  0.64289  0.36420  1.0000
  H   H793      1.0  0.31262  0.78686  0.21959  1.0000
  C   C1005     1.0  0.14139  0.59620  0.46790  1.0000
  H   H794      1.0  0.29225  0.94471  0.25585  1.0000
  C   C1006     1.0  0.27095  0.97662  0.28501  1.0000
  H   H795      1.0  0.11171  0.50580  0.42578  1.0000
  H   H796      1.0  0.04095  0.49770  0.35554  1.0000
  C   C1007     1.0  0.21595  0.77526  0.23364  1.0000
  H   H797      1.0  0.31889  0.93074  0.28524  1.0000
  C   C1008     1.0  0.31268  0.86559  0.46073  1.0000
  C   C1009     1.0  0.02575  0.64430  0.26829  1.0000
  H   H798      1.0  0.32436  0.91524  0.38865  1.0000
  C   C1010     1.0  0.32733  0.85951  0.33643  1.0000
  C   C1011     1.0  0.01415  0.50031  0.46042  1.0000
  C   C1012     1.0  0.31425  0.82844  0.41609  1.0000
  C   C1013     1.0  0.32319  0.74443  0.26437  1.0000
  H   H799      1.0  0.09135  0.66959  0.46700  1.0000
  C   C1014     1.0  0.30107  0.97306  0.32632  1.0000
  H   H800      1.0  0.99996  0.69130  0.24934  1.0000
  C   C1015     1.0  0.00604  0.59244  0.45217  1.0000
  Fe  Fe59      1.0  0.32533  0.85087  0.29658  1.0000
  C   C1016     1.0  0.07529  0.59479  0.22614  1.0000
  H   H801      1.0  0.05710  0.64730  0.46553  1.0000
  C   C1017     1.0  0.31829  0.75768  0.37285  1.0000
  H   H802      1.0  0.17097  0.49992  0.46156  1.0000
  H   H803      1.0  0.05579  0.54855  0.46367  1.0000
  H   H804      1.0  0.15715  0.50283  0.37312  1.0000
  C   C1018     1.0  0.12961  0.61615  0.22361  1.0000
  H   H805      1.0  0.32618  0.98675  0.44113  1.0000
  S   S112      1.0  0.32592  0.88073  0.27808  1.0000
  H   H806      1.0  0.32348  0.91781  0.24193  1.0000
  C   C1019     1.0  0.32051  0.97758  0.36479  1.0000
  C   C1020     1.0  0.23646  0.84446  0.46303  1.0000
  H   H807      1.0  0.22206  0.85910  0.46021  1.0000
  H   H808      1.0  0.32765  0.81413  0.35650  1.0000
  C   C1021     1.0  0.32203  0.98837  0.23508  1.0000
  H   H809      1.0  0.06464  0.63356  0.22294  1.0000
  C   C1022     1.0  0.26100  0.84795  0.45969  1.0000
  C   C1023     1.0  0.27982  0.82911  0.46332  1.0000
  P   P39       1.0  0.27678  0.67050  0.21919  1.0000
  C   C1024     1.0  0.32962  0.79745  0.36376  1.0000
  H   H810      1.0  0.32998  0.87417  0.43925  1.0000
  H   H811      1.0  0.33121  0.91714  0.44166  1.0000
  S   S113      1.0  0.33054  0.85426  0.24128  1.0000
  H   H812      1.0  0.33092  0.78225  0.45890  1.0000
  H   H813      1.0  0.01488  0.50781  0.54086  1.0000
  Fe  Fe60      1.0  0.11299  0.69797  0.66712  1.0000
  S   S114      1.0  0.14162  0.66682  0.66068  1.0000
  S   S115      1.0  0.07544  0.68680  0.67569  1.0000
  Fe  Fe61      1.0  0.15095  0.73387  0.66181  1.0000
  S   S116      1.0  0.18146  0.70522  0.65484  1.0000
  S   S117      1.0  0.15678  0.77325  0.66236  1.0000
  Fe  Fe62      1.0  0.15430  0.69363  0.64245  1.0000
  S   S118      1.0  0.16524  0.68802  0.61894  1.0000
  Fe  Fe63      1.0  0.16577  0.68125  0.67376  1.0000
  S   S119      1.0  0.19136  0.65613  0.68795  1.0000
  S   S120      1.0  0.12449  0.72416  0.64813  1.0000
  S   S121      1.0  0.13657  0.71048  0.68146  1.0000
  Fe  Fe64      1.0  0.27608  0.84442  0.66421  1.0000
  S   S122      1.0  0.25912  0.80955  0.66472  1.0000
  Fe  Fe65      1.0  0.28156  0.89917  0.66296  1.0000
  S   S123      1.0  0.26646  0.93904  0.65622  1.0000
  S   S124      1.0  0.28697  0.87306  0.64622  1.0000
  S   S125      1.0  0.26708  0.87137  0.68030  1.0000
  Fe  Fe66      1.0  0.09621  0.59957  0.54288  1.0000
  S   S126      1.0  0.12829  0.61972  0.54144  1.0000
  S   S127      1.0  0.05946  0.62016  0.53905  1.0000
  Fe  Fe67      1.0  0.12466  0.55063  0.55313  1.0000
  S   S128      1.0  0.15915  0.56681  0.55227  1.0000
  Fe  Fe68      1.0  0.13563  0.59796  0.56266  1.0000
  S   S129      1.0  0.13721  0.60731  0.58524  1.0000
  Fe  Fe69      1.0  0.14838  0.58693  0.53118  1.0000
  S   S130      1.0  0.17428  0.58904  0.51051  1.0000
  S   S131      1.0  0.10176  0.58019  0.56448  1.0000
  S   S132      1.0  0.11548  0.56820  0.53149  1.0000
  C   C1025     1.0  0.15477  0.66693  0.60965  1.0000
  C   C1026     1.0  0.14340  0.64740  0.61685  1.0000
  C   C1027     1.0  0.13768  0.62966  0.60913  1.0000
  C   C1028     1.0  0.14289  0.63141  0.59415  1.0000
  C   C1029     1.0  0.15321  0.65155  0.58689  1.0000
  C   C1030     1.0  0.15937  0.66903  0.59464  1.0000
  H   H814      1.0  0.13989  0.64547  0.62840  1.0000
  H   H815      1.0  0.12963  0.61420  0.61485  1.0000
  H   H816      1.0  0.15700  0.65338  0.57537  1.0000
  H   H817      1.0  0.16806  0.68413  0.58897  1.0000
  C   C1031     1.0  0.18524  0.78299  0.66346  1.0000
  C   C1032     1.0  0.20696  0.76660  0.66383  1.0000
  C   C1033     1.0  0.22929  0.77513  0.66436  1.0000
  C   C1034     1.0  0.23022  0.80009  0.66449  1.0000
  C   C1035     1.0  0.20846  0.81643  0.66438  1.0000
  C   C1036     1.0  0.18612  0.80792  0.66379  1.0000
  H   H818      1.0  0.20658  0.74740  0.66353  1.0000
  H   H819      1.0  0.24598  0.76230  0.66455  1.0000
  H   H820      1.0  0.20880  0.83560  0.66474  1.0000
  H   H821      1.0  0.16940  0.82072  0.66356  1.0000
  H   H822      1.0  0.08470  0.63334  0.56302  1.0000
  C   C1037     1.0  0.19186  0.65875  0.70632  1.0000
  H   H823      1.0  0.21145  0.81946  0.47263  1.0000
  H   H824      1.0  0.07543  0.57637  0.49129  1.0000
  H   H825      1.0  0.15879  0.68434  0.70872  1.0000
  H   H826      1.0  0.19586  0.55782  0.60897  1.0000
  H   H827      1.0  0.21192  0.64354  0.60392  1.0000
  C   C1038     1.0  0.22177  0.57942  0.54955  1.0000
  C   C1039     1.0  0.28229  0.96045  0.67727  1.0000
  C   C1040     1.0  0.27419  0.96387  0.66378  1.0000
  C   C1041     1.0  0.11962  0.53440  0.47991  1.0000
  H   H828      1.0  0.18560  0.61605  0.57214  1.0000
  C   C1042     1.0  0.25015  0.55985  0.57925  1.0000
  H   H829      1.0  0.28432  0.94241  0.68305  1.0000
  H   H830      1.0  0.18477  0.58185  0.62937  1.0000
  C   C1043     1.0  0.08460  0.65784  0.47623  1.0000
  C   C1044     1.0  0.99846  0.61602  0.67316  1.0000
  H   H831      1.0  0.21882  0.49527  0.47379  1.0000
  C   C1045     1.0  0.15158  0.50754  0.49135  1.0000
  C   C1046     1.0  0.03727  0.60060  0.54335  1.0000
  C   C1047     1.0  0.04402  0.57531  0.54429  1.0000
  C   C1048     1.0  0.02593  0.55992  0.54680  1.0000
  H   H832      1.0  0.32648  0.92288  0.63091  1.0000
  C   C1049     1.0  0.32924  0.97510  0.64482  1.0000
  H   H833      1.0  0.06310  0.56761  0.54270  1.0000
  H   H834      1.0  0.03121  0.54050  0.54705  1.0000
  H   H835      1.0  0.11007  0.66548  0.48963  1.0000
  C   C1050     1.0  0.26528  0.68032  0.65536  1.0000
  C   C1051     1.0  0.02777  0.68294  0.67252  1.0000
  C   C1052     1.0  0.04726  0.69664  0.66834  1.0000
  C   C1053     1.0  0.04352  0.71807  0.65893  1.0000
  C   C1054     1.0  0.02039  0.72597  0.65407  1.0000
  H   H836      1.0  0.30528  0.79241  0.60119  1.0000
  H   H837      1.0  0.03037  0.66645  0.67989  1.0000
  H   H838      1.0  0.05826  0.72887  0.65567  1.0000
  H   H839      1.0  0.14369  0.52940  0.58928  1.0000
  C   C1055     1.0  0.05966  0.56945  0.49749  1.0000
  C   C1056     1.0  0.01930  0.55114  0.51365  1.0000
  C   C1057     1.0  0.07609  0.49674  0.54171  1.0000
  C   C1058     1.0  0.01601  0.57364  0.50520  1.0000
  H   H840      1.0  0.16487  0.62100  0.70777  1.0000
  C   C1059     1.0  0.06287  0.54690  0.50590  1.0000
  H   H841      1.0  0.06121  0.61528  0.50927  1.0000
  C   C1060     1.0  0.03291  0.66089  0.58097  1.0000
  C   C1061     1.0  0.04378  0.67488  0.58888  1.0000
  C   C1062     1.0  0.06927  0.67386  0.58740  1.0000
  C   C1063     1.0  0.08402  0.65901  0.57801  1.0000
  C   C1064     1.0  0.07332  0.64488  0.57028  1.0000
  C   C1065     1.0  0.25768  0.83373  0.59001  1.0000
  H   H842      1.0  0.26858  0.97188  0.59883  1.0000
  H   H843      1.0  0.23787  0.73403  0.59624  1.0000
  H   H844      1.0  0.16726  0.56284  0.59010  1.0000
  P   P40       1.0  0.21779  0.57012  0.57926  1.0000
  S   S133      1.0  0.31993  0.89031  0.66860  1.0000
  C   C1066     1.0  0.00367  0.61819  0.60071  1.0000
  H   H845      1.0  0.28763  0.79188  0.47332  1.0000
  H   H846      1.0  0.09430  0.63879  0.51085  1.0000
  H   H847      1.0  0.03282  0.68647  0.59626  1.0000
  H   H848      1.0  0.07764  0.68455  0.59355  1.0000
  H   H849      1.0  0.10377  0.65820  0.57682  1.0000
  H   H850      1.0  0.08105  0.53670  0.50625  1.0000
  C   C1067     1.0  0.17428  0.50646  0.57942  1.0000
  H   H851      1.0  0.26567  0.76206  0.63811  1.0000
  C   C1068     1.0  0.19804  0.73681  0.70183  1.0000
  H   H852      1.0  0.30963  0.90926  0.58693  1.0000
  C   C1069     1.0  0.00132  0.63267  0.50826  1.0000
  C   C1070     1.0  0.29395  0.83456  0.57274  1.0000
  C   C1071     1.0  0.20140  0.54435  0.58048  1.0000
  C   C1072     1.0  0.21239  0.52340  0.57415  1.0000
  C   C1073     1.0  0.20957  0.58732  0.59441  1.0000
  C   C1074     1.0  0.32573  0.99193  0.63272  1.0000
  H   H853      1.0  0.04535  0.52084  0.52099  1.0000
  P   P41       1.0  0.25633  0.80512  0.61668  1.0000
  C   C1075     1.0  0.01472  0.51047  0.57262  1.0000
  C   C1076     1.0  0.23493  0.83005  0.62339  1.0000
  C   C1077     1.0  0.21123  0.83535  0.61918  1.0000
  C   C1078     1.0  0.19440  0.85413  0.62465  1.0000
  C   C1079     1.0  0.20111  0.86786  0.63432  1.0000
  C   C1080     1.0  0.22465  0.86281  0.63850  1.0000
  C   C1081     1.0  0.24145  0.84396  0.63310  1.0000
  H   H854      1.0  0.23117  0.52191  0.56919  1.0000
  H   H855      1.0  0.28730  0.78833  0.68723  1.0000
  C   C1082     1.0  0.30668  0.81622  0.58154  1.0000
  C   C1083     1.0  0.19330  0.58999  0.61931  1.0000
  C   C1084     1.0  0.29885  0.80918  0.62810  1.0000
  C   C1085     1.0  0.28007  0.79502  0.62830  1.0000
  C   C1086     1.0  0.28007  0.77317  0.63756  1.0000
  C   C1087     1.0  0.29837  0.76587  0.64664  1.0000
  C   C1088     1.0  0.28663  0.98052  0.68355  1.0000
  C   C1089     1.0  0.12860  0.63669  0.70374  1.0000
  C   C1090     1.0  0.23048  0.82214  0.47001  1.0000
  C   C1091     1.0  0.26733  0.57279  0.57046  1.0000
  H   H856      1.0  0.33101  0.77789  0.69082  1.0000
  C   C1092     1.0  0.05514  0.52245  0.58322  1.0000
  C   C1093     1.0  0.24600  0.76510  0.60497  1.0000
  C   C1094     1.0  0.30830  0.91315  0.70581  1.0000
  H   H857      1.0  0.18795  0.88211  0.63876  1.0000
  H   H858      1.0  0.22974  0.87306  0.64624  1.0000
  H   H859      1.0  0.25924  0.83994  0.63682  1.0000
  H   H860      1.0  0.33084  0.98136  0.65491  1.0000
  C   C1095     1.0  0.03246  0.53720  0.58502  1.0000
  H   H861      1.0  0.23878  0.84089  0.59307  1.0000
  H   H862      1.0  0.19641  0.58734  0.48128  1.0000
  H   H863      1.0  0.99896  0.50635  0.56847  1.0000
  H   H864      1.0  0.09520  0.51730  0.47034  1.0000
  C   C1096     1.0  0.32202  0.98653  0.58005  1.0000
  H   H865      1.0  0.17582  0.63932  0.54924  1.0000
  P   P42       1.0  0.31888  0.94858  0.60246  1.0000
  C   C1097     1.0  0.30274  0.87526  0.47349  1.0000
  C   C1098     1.0  0.05736  0.62876  0.48710  1.0000
  C   C1099     1.0  0.22327  0.58061  0.70366  1.0000
  H   H866      1.0  0.00492  0.58533  0.61556  1.0000
  H   H867      1.0  0.33124  0.93739  0.65359  1.0000
  H   H868      1.0  0.02286  0.53963  0.48313  1.0000
  H   H869      1.0  0.17599  0.85772  0.62161  1.0000
  H   H870      1.0  0.22491  0.63318  0.70761  1.0000
  H   H871      1.0  0.26237  0.83427  0.70673  1.0000
  H   H872      1.0  0.00445  0.68951  0.53047  1.0000
  H   H873      1.0  0.24537  0.52966  0.59576  1.0000
  C   C1100     1.0  0.08639  0.64043  0.50089  1.0000
  S   S134      1.0  0.30930  0.85112  0.70860  1.0000
  H   H874      1.0  0.27383  0.90100  0.70485  1.0000
  H   H875      1.0  0.23403  0.67936  0.68865  1.0000
  C   C1101     1.0  0.20692  0.75662  0.62604  1.0000
  C   C1102     1.0  0.17652  0.54636  0.58591  1.0000
  C   C1103     1.0  0.27052  0.81568  0.59909  1.0000
  C   C1104     1.0  0.28533  0.69093  0.65763  1.0000
  C   C1105     1.0  0.19792  0.61409  0.61795  1.0000
  H   H876      1.0  0.22845  0.73193  0.68558  1.0000
  Fe  Fe70      1.0  0.30635  0.86044  0.68471  1.0000
  H   H877      1.0  0.12771  0.55535  0.71681  1.0000
  H   H878      1.0  0.23273  0.81391  0.69709  1.0000
  H   H879      1.0  0.00368  0.54442  0.52018  1.0000
  C   C1106     1.0  0.28100  0.98098  0.59088  1.0000
  H   H880      1.0  0.13204  0.59729  0.67430  1.0000
  C   C1107     1.0  0.21148  0.58810  0.56254  1.0000
  C   C1108     1.0  0.00113  0.56977  0.54846  1.0000
  C   C1109     1.0  0.04274  0.53788  0.51411  1.0000
  H   H881      1.0  0.22307  0.58540  0.52654  1.0000
  C   C1110     1.0  0.30049  0.54432  0.57989  1.0000
  C   C1111     1.0  0.18901  0.62285  0.54931  1.0000
  C   C1112     1.0  0.13604  0.59619  0.49388  1.0000
  C   C1113     1.0  0.24697  0.67605  0.66662  1.0000
  H   H882      1.0  0.12615  0.57005  0.65685  1.0000
  C   C1114     1.0  0.02579  0.52990  0.47381  1.0000
  H   H883      1.0  0.31789  0.85903  0.59354  1.0000
  H   H884      1.0  0.29155  0.97773  0.69431  1.0000
  C   C1115     1.0  0.19478  0.60970  0.56231  1.0000
  C   C1116     1.0  0.31684  0.78023  0.64646  1.0000
  C   C1117     1.0  0.17675  0.59024  0.48121  1.0000
  C   C1118     1.0  0.25811  0.81664  0.71181  1.0000
  C   C1119     1.0  0.23291  0.74578  0.60464  1.0000
  C   C1120     1.0  0.21071  0.64466  0.71348  1.0000
  H   H885      1.0  0.12550  0.51188  0.71619  1.0000
  C   C1121     1.0  0.32950  0.95029  0.64407  1.0000
  H   H886      1.0  0.01536  0.62648  0.60625  1.0000
  H   H887      1.0  0.14649  0.54658  0.49052  1.0000
  H   H888      1.0  0.22882  0.57990  0.69234  1.0000
  H   H889      1.0  0.01474  0.70834  0.62536  1.0000
  C   C1122     1.0  0.16140  0.59207  0.49416  1.0000
  H   H890      1.0  0.19175  0.75344  0.63421  1.0000
  H   H891      1.0  0.20558  0.82469  0.61185  1.0000
  C   C1123     1.0  0.19931  0.57654  0.60763  1.0000
  C   C1124     1.0  0.20876  0.62470  0.60497  1.0000
  C   C1125     1.0  0.24078  0.58086  0.71284  1.0000
  H   H892      1.0  0.15360  0.50866  0.53777  1.0000
  C   C1126     1.0  0.11092  0.51424  0.47625  1.0000
  C   C1127     1.0  0.01258  0.61037  0.54570  1.0000
  C   C1128     1.0  0.21485  0.61130  0.59329  1.0000
  C   C1129     1.0  0.17351  0.67348  0.71406  1.0000
  C   C1130     1.0  0.16308  0.52743  0.58546  1.0000
  C   C1131     1.0  0.19948  0.61422  0.53644  1.0000
  H   H893      1.0  0.00733  0.62986  0.54534  1.0000
  H   H894      1.0  0.29656  0.90686  0.48489  1.0000
  H   H895      1.0  0.03992  0.63383  0.56623  1.0000
  H   H896      1.0  0.09036  0.64963  0.70229  1.0000
  H   H897      1.0  0.30562  0.57491  0.56387  1.0000
  C   C1132     1.0  0.21578  0.59248  0.53656  1.0000
  H   H898      1.0  0.26385  0.67543  0.64490  1.0000
  P   P43       1.0  0.03241  0.61216  0.48635  1.0000
  H   H899      1.0  0.16724  0.50506  0.49729  1.0000
  C   C1133     1.0  0.18963  0.73236  0.71634  1.0000
  H   H900      1.0  0.10657  0.60166  0.48074  1.0000
  S   S135      1.0  0.11925  0.51295  0.56363  1.0000
  H   H901      1.0  0.22336  0.61982  0.58334  1.0000
  C   C1134     1.0  0.26936  0.84304  0.57687  1.0000
  Fe  Fe71      1.0  0.32491  0.86341  0.65244  1.0000
  H   H902      1.0  0.13484  0.65091  0.69576  1.0000
  H   H903      1.0  0.23390  0.56227  0.54947  1.0000
  H   H904      1.0  0.19435  0.62392  0.52635  1.0000
  H   H905      1.0  0.19272  0.62476  0.62688  1.0000
  H   H906      1.0  0.10191  0.51639  0.52769  1.0000
  H   H907      1.0  0.06929  0.51226  0.54749  1.0000
  H   H908      1.0  0.26142  0.58904  0.56348  1.0000
  C   C1135     1.0  0.13976  0.53102  0.48760  1.0000
  H   H909      1.0  0.11092  0.55271  0.47663  1.0000
  C   C1136     1.0  0.24853  0.68260  0.68009  1.0000
  C   C1137     1.0  0.31395  0.72119  0.69859  1.0000
  C   C1138     1.0  0.10096  0.62368  0.66927  1.0000
  C   C1139     1.0  0.11697  0.60204  0.66786  1.0000
  C   C1140     1.0  0.11364  0.58676  0.65802  1.0000
  C   C1141     1.0  0.09431  0.59317  0.64961  1.0000
  C   C1142     1.0  0.07824  0.61503  0.65094  1.0000
  C   C1143     1.0  0.08178  0.63018  0.66082  1.0000
  P   P44       1.0  0.05338  0.62418  0.64006  1.0000
  C   C1144     1.0  0.05861  0.60617  0.62529  1.0000
  C   C1145     1.0  0.02429  0.61974  0.65039  1.0000
  C   C1146     1.0  0.23938  0.78047  0.61578  1.0000
  C   C1147     1.0  0.12617  0.59832  0.48083  1.0000
  H   H910      1.0  0.31873  0.86106  0.61937  1.0000
  C   C1148     1.0  0.01217  0.53096  0.57991  1.0000
  C   C1149     1.0  0.30353  0.89972  0.47486  1.0000
  C   C1150     1.0  0.07075  0.61479  0.61209  1.0000
  C   C1151     1.0  0.07573  0.60023  0.60095  1.0000
  C   C1152     1.0  0.06886  0.57698  0.60286  1.0000
  C   C1153     1.0  0.05692  0.56814  0.61598  1.0000
  C   C1154     1.0  0.05181  0.58268  0.62719  1.0000
  C   C1155     1.0  0.05345  0.65597  0.63322  1.0000
  C   C1156     1.0  0.07577  0.66537  0.62975  1.0000
  C   C1157     1.0  0.07606  0.69001  0.62470  1.0000
  C   C1158     1.0  0.05408  0.70543  0.62296  1.0000
  C   C1159     1.0  0.03182  0.69619  0.62624  1.0000
  C   C1160     1.0  0.03144  0.67158  0.63139  1.0000
  H   H911      1.0  0.10354  0.63577  0.67674  1.0000
  C   C1161     1.0  0.04793  0.64534  0.57202  1.0000
  H   H912      1.0  0.26116  0.76802  0.59681  1.0000
  H   H913      1.0  0.09226  0.58117  0.64199  1.0000
  H   H914      1.0  0.06975  0.64719  0.66188  1.0000
  H   H915      1.0  0.01393  0.62234  0.51535  1.0000
  C   C1162     1.0  0.25838  0.53947  0.58862  1.0000
  H   H916      1.0  0.30334  0.84234  0.56281  1.0000
  H   H917      1.0  0.12398  0.59791  0.50371  1.0000
  H   H918      1.0  0.03576  0.62220  0.67101  1.0000
  H   H919      1.0  0.07687  0.63248  0.61036  1.0000
  H   H920      1.0  0.08547  0.60678  0.59088  1.0000
  H   H921      1.0  0.07322  0.56581  0.59417  1.0000
  H   H922      1.0  0.05187  0.54996  0.61750  1.0000
  H   H923      1.0  0.04293  0.57546  0.63740  1.0000
  H   H924      1.0  0.09299  0.65374  0.63110  1.0000
  H   H925      1.0  0.09337  0.69719  0.62239  1.0000
  H   H926      1.0  0.05424  0.72468  0.61943  1.0000
  H   H927      1.0  0.21483  0.78720  0.63500  1.0000
  H   H928      1.0  0.24442  0.78600  0.47910  1.0000
  C   C1163     1.0  0.01061  0.51280  0.47257  1.0000
  C   C1164     1.0  0.22236  0.72859  0.69688  1.0000
  C   C1165     1.0  0.32645  0.94221  0.63124  1.0000
  C   C1166     1.0  0.03767  0.49632  0.57019  1.0000
  C   C1167     1.0  0.14568  0.61946  0.71053  1.0000
  H   H929      1.0  0.06943  0.49741  0.48911  1.0000
  C   C1168     1.0  0.23590  0.78250  0.71304  1.0000
  C   C1169     1.0  0.06545  0.64483  0.47536  1.0000
  C   C1170     1.0  0.29684  0.92732  0.60591  1.0000
  C   C1171     1.0  0.29604  0.91087  0.59614  1.0000
  C   C1172     1.0  0.27755  0.89604  0.59822  1.0000
  C   C1173     1.0  0.25973  0.89747  0.61003  1.0000
  C   C1174     1.0  0.26033  0.91382  0.61979  1.0000
  C   C1175     1.0  0.27871  0.92877  0.61771  1.0000
  C   C1176     1.0  0.21333  0.74158  0.61514  1.0000
  H   H930      1.0  0.03067  0.55366  0.59010  1.0000
  H   H931      1.0  0.29776  0.74950  0.65414  1.0000
  H   H932      1.0  0.20306  0.72670  0.61487  1.0000
  C   C1177     1.0  0.24134  0.80523  0.70644  1.0000
  C   C1178     1.0  0.32267  0.98392  0.61986  1.0000
  C   C1179     1.0  0.21998  0.77585  0.62641  1.0000
  C   C1180     1.0  0.05763  0.50191  0.57601  1.0000
  C   C1181     1.0  0.09512  0.65558  0.48898  1.0000
  C   C1182     1.0  0.29496  0.80657  0.59456  1.0000
  C   C1183     1.0  0.26832  0.69372  0.68241  1.0000
  C   C1184     1.0  0.32301  0.95903  0.61902  1.0000
  C   C1185     1.0  0.02108  0.61945  0.66533  1.0000
  C   C1186     1.0  0.19860  0.58102  0.70911  1.0000
  C   C1187     1.0  0.29242  0.56493  0.57073  1.0000
  P   P45       1.0  0.26932  0.70349  0.69965  1.0000
  H   H933      1.0  0.02262  0.67510  0.55278  1.0000
  H   H934      1.0  0.27721  0.88332  0.59067  1.0000
  H   H935      1.0  0.24548  0.88594  0.61160  1.0000
  H   H936      1.0  0.24667  0.91495  0.62906  1.0000
  H   H937      1.0  0.27844  0.94165  0.62528  1.0000
  C   C1188     1.0  0.29470  0.76957  0.69049  1.0000
  H   H938      1.0  0.01392  0.66510  0.63426  1.0000
  H   H939      1.0  0.29474  0.86379  0.48246  1.0000
  H   H940      1.0  0.07110  0.52714  0.58698  1.0000
  C   C1189     1.0  0.28293  0.91390  0.70893  1.0000
  C   C1190     1.0  0.09559  0.61808  0.71806  1.0000
  H   H941      1.0  0.31843  0.89956  0.69940  1.0000
  H   H942      1.0  0.23134  0.66787  0.66492  1.0000
  C   C1191     1.0  0.30644  0.97378  0.59023  1.0000
  H   H943      1.0  0.30256  0.70579  0.67261  1.0000
  H   H944      1.0  0.29913  0.82611  0.62107  1.0000
  C   C1192     1.0  0.03629  0.58316  0.49728  1.0000
  C   C1193     1.0  0.23843  0.71562  0.70636  1.0000
  H   H945      1.0  0.25950  0.85718  0.56997  1.0000
  C   C1194     1.0  0.28694  0.69751  0.67112  1.0000
  H   H946      1.0  0.01759  0.74281  0.64701  1.0000
  C   C1195     1.0  0.27953  0.75140  0.69261  1.0000
  C   C1196     1.0  0.00091  0.71226  0.65823  1.0000
  P   P46       1.0  0.00008  0.66182  0.58259  1.0000
  H   H947      1.0  0.29955  0.69417  0.64890  1.0000
  C   C1197     1.0  0.27578  0.65441  0.71121  1.0000
  C   C1198     1.0  0.27142  0.98762  0.65639  1.0000
  C   C1199     1.0  0.06767  0.62699  0.49994  1.0000
  C   C1200     1.0  0.28885  0.72713  0.69707  1.0000
  H   H948      1.0  0.26063  0.75645  0.69061  1.0000
  H   H949      1.0  0.18562  0.74633  0.69435  1.0000
  S   S136      1.0  0.31497  0.83283  0.66917  1.0000
  C   C1201     1.0  0.10355  0.63601  0.70748  1.0000
  C   C1202     1.0  0.31941  0.76365  0.69247  1.0000
  C   C1203     1.0  0.00482  0.69052  0.66738  1.0000
  C   C1204     1.0  0.24906  0.80329  0.47365  1.0000
  C   C1205     1.0  0.31716  0.80181  0.63712  1.0000
  H   H950      1.0  0.31994  0.53828  0.58010  1.0000
  C   C1206     1.0  0.00544  0.63105  0.49350  1.0000
  H   H951      1.0  0.22276  0.77382  0.70889  1.0000
  C   C1207     1.0  0.00438  0.61694  0.64344  1.0000
  H   H952      1.0  0.00607  0.61803  0.63193  1.0000
  C   C1208     1.0  0.28347  0.53165  0.58887  1.0000
  C   C1209     1.0  0.26936  0.93136  0.71715  1.0000
  C   C1210     1.0  0.00291  0.67784  0.55310  1.0000
  C   C1211     1.0  0.28026  0.67809  0.71224  1.0000
  H   H953      1.0  0.33065  0.77490  0.65372  1.0000
  H   H954      1.0  0.26621  0.65086  0.70272  1.0000
  H   H955      1.0  0.18535  0.58009  0.70193  1.0000
  H   H956      1.0  0.32196  0.70246  0.70131  1.0000
  C   C1212     1.0  0.27364  0.80672  0.47033  1.0000
  C   C1213     1.0  0.09438  0.49938  0.53024  1.0000
  H   H957      1.0  0.28973  0.51582  0.59608  1.0000
  H   H958      1.0  0.26520  0.99050  0.64592  1.0000
  C   C1214     1.0  0.32907  0.73943  0.69644  1.0000
  C   C1215     1.0  0.19892  0.50445  0.57375  1.0000
  H   H959      1.0  0.25995  0.58011  0.70869  1.0000
  C   C1216     1.0  0.32036  0.92964  0.71103  1.0000
  H   H960      1.0  0.32587  0.80997  0.57838  1.0000
  H   H961      1.0  0.33137  0.81311  0.63702  1.0000
  C   C1217     1.0  0.33029  0.81298  0.47062  1.0000
  C   C1218     1.0  0.03019  0.60436  0.46882  1.0000
  Fe  Fe72      1.0  0.23933  0.57706  0.77094  1.0000
  S   S137      1.0  0.20378  0.59761  0.77972  1.0000
  H   H962      1.0  0.22590  0.63418  0.73350  1.0000
  Fe  Fe73      1.0  0.26781  0.61773  0.77688  1.0000
  S   S138      1.0  0.23371  0.63998  0.78634  1.0000
  Fe  Fe74      1.0  0.22393  0.60393  0.79752  1.0000
  S   S139      1.0  0.20710  0.59116  0.81998  1.0000
  Fe  Fe75      1.0  0.21704  0.63132  0.76757  1.0000
  S   S140      1.0  0.19276  0.66044  0.75464  1.0000
  S   S141      1.0  0.25917  0.58180  0.78920  1.0000
  S   S142      1.0  0.25146  0.61076  0.75766  1.0000
  Fe  Fe76      1.0  0.11623  0.59644  0.91544  1.0000
  S   S143      1.0  0.14447  0.61865  0.91941  1.0000
  S   S144      1.0  0.07617  0.60955  0.92111  1.0000
  Fe  Fe77      1.0  0.15436  0.55627  0.90456  1.0000
  S   S145      1.0  0.18553  0.57471  0.90807  1.0000
  S   S146      1.0  0.16436  0.52204  0.89387  1.0000
  Fe  Fe78      1.0  0.16328  0.58266  0.92902  1.0000
  S   S147      1.0  0.18025  0.57263  0.94990  1.0000
  Fe  Fe79      1.0  0.16390  0.60856  0.89807  1.0000
  S   S148      1.0  0.18063  0.63403  0.87985  1.0000
  S   S149      1.0  0.13382  0.56108  0.92621  1.0000
  S   S150      1.0  0.13385  0.58961  0.89348  1.0000
  C   C1219     1.0  0.25210  0.82802  0.76717  1.0000
  H   H963      1.0  0.05938  0.68497  0.86883  1.0000
  H   H964      1.0  0.23584  0.84155  0.76751  1.0000
  H   H965      1.0  0.24714  0.74425  0.82056  1.0000
  C   C1220     1.0  0.29681  0.58963  0.81262  1.0000
  H   H966      1.0  0.15345  0.62022  0.95541  1.0000
  C   C1221     1.0  0.20086  0.60399  0.83636  1.0000
  C   C1222     1.0  0.19220  0.58929  0.84858  1.0000
  C   C1223     1.0  0.18611  0.59834  0.86186  1.0000
  C   C1224     1.0  0.18855  0.62239  0.86313  1.0000
  C   C1225     1.0  0.19722  0.63729  0.85091  1.0000
  C   C1226     1.0  0.20337  0.62814  0.83754  1.0000
  H   H967      1.0  0.19011  0.57071  0.84779  1.0000
  H   H968      1.0  0.17953  0.58660  0.87113  1.0000
  H   H969      1.0  0.19895  0.65600  0.85176  1.0000
  H   H970      1.0  0.20981  0.63976  0.82819  1.0000
  H   H971      1.0  0.30048  0.57340  0.80718  1.0000
  H   H972      1.0  0.04108  0.58076  0.82045  1.0000
  H   H973      1.0  0.01746  0.51440  0.94115  1.0000
  C   C1227     1.0  0.23270  0.52677  0.83598  1.0000
  H   H974      1.0  0.21837  0.67529  0.87658  1.0000
  H   H975      1.0  0.27781  0.67188  0.78671  1.0000
  C   C1228     1.0  0.26290  0.68240  0.82517  1.0000
  C   C1229     1.0  0.02247  0.57965  0.89811  1.0000
  C   C1230     1.0  0.04757  0.57078  0.89604  1.0000
  C   C1231     1.0  0.06423  0.57978  0.90309  1.0000
  C   C1232     1.0  0.05583  0.59775  0.91220  1.0000
  C   C1233     1.0  0.03075  0.60645  0.91433  1.0000
  H   H976      1.0  0.07614  0.61784  0.72110  1.0000
  H   H977      1.0  0.05416  0.55685  0.88908  1.0000
  H   H978      1.0  0.08352  0.57275  0.90154  1.0000
  H   H979      1.0  0.02418  0.62037  0.92134  1.0000
  H   H980      1.0  0.23225  0.54441  0.85482  1.0000
  H   H981      1.0  0.31463  0.73507  0.76177  1.0000
  C   C1234     1.0  0.15155  0.64008  0.81249  1.0000
  C   C1235     1.0  0.13783  0.65063  0.80139  1.0000
  C   C1236     1.0  0.11243  0.65095  0.80319  1.0000
  C   C1237     1.0  0.10079  0.64030  0.81599  1.0000
  C   C1238     1.0  0.11463  0.62882  0.82697  1.0000
  C   C1239     1.0  0.13994  0.62967  0.82533  1.0000
  P   P47       1.0  0.10013  0.61508  0.84363  1.0000
  C   C1240     1.0  0.09784  0.63668  0.85636  1.0000
  C   C1241     1.0  0.07058  0.60653  0.84243  1.0000
  C   C1242     1.0  0.05248  0.60689  0.85430  1.0000
  H   H982      1.0  0.23961  0.80856  0.75233  1.0000
  C   C1243     1.0  0.25825  0.70041  0.75865  1.0000
  C   C1244     1.0  0.30511  0.82673  0.86865  1.0000
  C   C1245     1.0  0.06648  0.59666  0.83031  1.0000
  C   C1246     1.0  0.11645  0.63548  0.86512  1.0000
  C   C1247     1.0  0.11415  0.65163  0.87537  1.0000
  C   C1248     1.0  0.09352  0.66932  0.87679  1.0000
  C   C1249     1.0  0.07534  0.67119  0.86775  1.0000
  C   C1250     1.0  0.07758  0.65509  0.85746  1.0000
  C   C1251     1.0  0.11763  0.58660  0.84991  1.0000
  C   C1252     1.0  0.13560  0.57386  0.84075  1.0000
  C   C1253     1.0  0.14848  0.55155  0.84589  1.0000
  C   C1254     1.0  0.14295  0.54146  0.86003  1.0000
  C   C1255     1.0  0.12446  0.55360  0.86899  1.0000
  C   C1256     1.0  0.11202  0.57619  0.86402  1.0000
  H   H983      1.0  0.17125  0.63988  0.81120  1.0000
  H   H984      1.0  0.14690  0.65872  0.79145  1.0000
  H   H985      1.0  0.10174  0.65958  0.79468  1.0000
  H   H986      1.0  0.08106  0.64120  0.81732  1.0000
  H   H987      1.0  0.15078  0.62202  0.83394  1.0000
  C   C1257     1.0  0.30416  0.69582  0.78819  1.0000
  C   C1258     1.0  0.26557  0.65197  0.85323  1.0000
  H   H988      1.0  0.31119  0.69260  0.81709  1.0000
  C   C1259     1.0  0.23975  0.51157  0.76693  1.0000
  H   H989      1.0  0.08062  0.59501  0.82133  1.0000
  H   H990      1.0  0.13267  0.62197  0.86418  1.0000
  H   H991      1.0  0.12833  0.65027  0.88233  1.0000
  H   H992      1.0  0.09166  0.68153  0.88491  1.0000
  C   C1260     1.0  0.24644  0.66873  0.85894  1.0000
  H   H993      1.0  0.06333  0.65676  0.85054  1.0000
  H   H994      1.0  0.14005  0.58109  0.82971  1.0000
  H   H995      1.0  0.16323  0.54245  0.83900  1.0000
  H   H996      1.0  0.15315  0.52441  0.86418  1.0000
  H   H997      1.0  0.12017  0.54580  0.87994  1.0000
  H   H998      1.0  0.09796  0.58549  0.87123  1.0000
  C   C1261     1.0  0.13998  0.54176  0.72258  1.0000
  H   H999      1.0  0.26442  0.60628  0.88105  1.0000
  H   H1000     1.0  0.25645  0.51472  0.78558  1.0000
  C   C1262     1.0  0.31066  0.66820  0.83692  1.0000
  H   H1001     1.0  0.26352  0.57984  0.82488  1.0000
  C   C1263     1.0  0.31393  0.65734  0.77795  1.0000
  C   C1264     1.0  0.13879  0.51706  0.72211  1.0000
  C   C1265     1.0  0.29940  0.66269  0.73388  1.0000
  H   H1002     1.0  0.18700  0.51947  0.81371  1.0000
  C   C1266     1.0  0.04885  0.49836  0.95184  1.0000
  H   H1003     1.0  0.23652  0.91646  0.91913  1.0000
  H   H1004     1.0  0.15960  0.68515  0.73473  1.0000
  H   H1005     1.0  0.30073  0.62422  0.74065  1.0000
  C   C1267     1.0  0.30671  0.94660  0.71972  1.0000
  H   H1006     1.0  0.09642  0.54046  0.83948  1.0000
  H   H1007     1.0  0.29849  0.74171  0.81471  1.0000
  C   C1268     1.0  0.04421  0.53886  0.93854  1.0000
  C   C1269     1.0  0.27613  0.59318  0.82264  1.0000
  H   H1008     1.0  0.31410  0.77727  0.80024  1.0000
  C   C1270     1.0  0.22570  0.53018  0.85033  1.0000
  C   C1271     1.0  0.24602  0.95981  0.89092  1.0000
  H   H1009     1.0  0.25004  0.65768  0.81311  1.0000
  H   H1010     1.0  0.24714  0.58133  0.73464  1.0000
  H   H1011     1.0  0.18187  0.53127  0.78828  1.0000
  H   H1012     1.0  0.32411  0.70489  0.86157  1.0000
  H   H1013     1.0  0.22455  0.73347  0.80209  1.0000
  C   C1272     1.0  0.15716  0.54855  0.73025  1.0000
  H   H1014     1.0  0.18740  0.53518  0.74274  1.0000
  H   H1015     1.0  0.05559  0.61299  0.86416  1.0000
  C   C1273     1.0  0.29677  0.67472  0.78451  1.0000
  C   C1274     1.0  0.27133  0.61423  0.82953  1.0000
  H   H1016     1.0  0.28157  0.91072  0.91634  1.0000
  C   C1275     1.0  0.32908  0.92052  0.91260  1.0000
  H   H1017     1.0  0.23597  0.97352  0.88387  1.0000
  C   C1276     1.0  0.07425  0.51225  0.83908  1.0000
  C   C1277     1.0  0.11909  0.50910  0.90440  1.0000
  C   C1278     1.0  0.23510  0.71927  0.80859  1.0000
  C   C1279     1.0  0.20881  0.58286  0.73286  1.0000
  C   C1280     1.0  0.32254  0.83056  0.87705  1.0000
  C   C1281     1.0  0.08100  0.53170  0.84471  1.0000
  C   C1282     1.0  0.29213  0.81245  0.77447  1.0000
  P   P48       1.0  0.15972  0.58019  0.73084  1.0000
  H   H1018     1.0  0.08190  0.64142  0.94281  1.0000
  H   H1019     1.0  0.20538  0.73431  0.77097  1.0000
  C   C1283     1.0  0.32881  0.69983  0.78545  1.0000
  C   C1284     1.0  0.22976  0.71114  0.72094  1.0000
  C   C1285     1.0  0.25429  0.80920  0.75860  1.0000
  H   H1020     1.0  0.03742  0.53592  0.87325  1.0000
  S   S151      1.0  0.23534  0.54331  0.76063  1.0000
  H   H1021     1.0  0.32139  0.84790  0.88115  1.0000
  P   P49       1.0  0.27867  0.76838  0.74606  1.0000
  H   H1022     1.0  0.17976  0.52148  0.96073  1.0000
  H   H1023     1.0  0.25502  0.61676  0.83711  1.0000
  C   C1286     1.0  0.32968  0.91577  0.88224  1.0000
  C   C1287     1.0  0.27195  0.92450  0.90917  1.0000
  C   C1288     1.0  0.17576  0.51174  0.94023  1.0000
  P   P50       1.0  0.01578  0.49431  0.86756  1.0000
  H   H1024     1.0  0.30385  0.73270  0.84030  1.0000
  H   H1025     1.0  0.03643  0.50434  0.91508  1.0000
  S   S152      1.0  0.30565  0.63031  0.77315  1.0000
  H   H1026     1.0  0.18923  0.52279  0.93460  1.0000
  C   C1289     1.0  0.04151  0.50868  0.85867  1.0000
  C   C1290     1.0  0.24788  0.72531  0.81897  1.0000
  C   C1291     1.0  0.17357  0.53031  0.73705  1.0000
  C   C1292     1.0  0.00442  0.58553  0.95743  1.0000
  C   C1293     1.0  0.24054  0.64050  0.88044  1.0000
  H   H1027     1.0  0.32771  0.60518  0.80093  1.0000
  C   C1294     1.0  0.23420  0.70588  0.76495  1.0000
  H   H1028     1.0  0.22327  0.69132  0.76869  1.0000
  C   C1295     1.0  0.18656  0.50536  0.80707  1.0000
  C   C1296     1.0  0.30717  0.75374  0.81977  1.0000
  H   H1029     1.0  0.24051  0.68595  0.85288  1.0000
  C   C1297     1.0  0.32424  0.89581  0.86196  1.0000
  H   H1030     1.0  0.19878  0.71551  0.73708  1.0000
  H   H1031     1.0  0.30833  0.66577  0.74280  1.0000
  H   H1032     1.0  0.29546  0.91860  0.87321  1.0000
  C   C1298     1.0  0.06764  0.54003  0.85705  1.0000
  C   C1299     1.0  0.29434  0.79352  0.76598  1.0000
  C   C1300     1.0  0.17397  0.67385  0.72883  1.0000
  C   C1301     1.0  0.01411  0.59746  0.90727  1.0000
  C   C1302     1.0  0.31459  0.91085  0.87260  1.0000
  H   H1033     1.0  0.22445  0.50198  0.74920  1.0000
  C   C1303     1.0  0.24633  0.92767  0.91078  1.0000
  C   C1304     1.0  0.19281  0.65961  0.73600  1.0000
  H   H1034     1.0  0.24469  0.53836  0.82933  1.0000
  C   C1305     1.0  0.27228  0.62958  0.86143  1.0000
  H   H1035     1.0  0.03414  0.55277  0.93159  1.0000
  C   C1306     1.0  0.18202  0.49449  0.78388  1.0000
  C   C1307     1.0  0.07633  0.63637  0.95408  1.0000
  H   H1036     1.0  0.22968  0.76759  0.76178  1.0000
  C   C1308     1.0  0.23586  0.69485  0.80663  1.0000
  C   C1309     1.0  0.24768  0.77087  0.72476  1.0000
  C   C1310     1.0  0.26666  0.73532  0.88380  1.0000
  C   C1311     1.0  0.26964  0.71034  0.88266  1.0000
  C   C1312     1.0  0.29039  0.69947  0.87465  1.0000
  C   C1313     1.0  0.22414  0.73012  0.76621  1.0000
  C   C1314     1.0  0.30534  0.73871  0.86884  1.0000
  C   C1315     1.0  0.28437  0.74950  0.87689  1.0000
  H   H1037     1.0  0.07387  0.55964  0.93793  1.0000
  C   C1316     1.0  0.27213  0.71918  0.75332  1.0000
  H   H1038     1.0  0.24137  0.70069  0.72850  1.0000
  C   C1317     1.0  0.21123  0.64510  0.72821  1.0000
  P   P51       1.0  0.28148  0.65886  0.83557  1.0000
  H   H1039     1.0  0.29323  0.80170  0.85675  1.0000
  C   C1318     1.0  0.26216  0.74366  0.75446  1.0000
  C   C1319     1.0  0.26950  0.80535  0.72372  1.0000
  H   H1040     1.0  0.04222  0.62700  0.95028  1.0000
  H   H1041     1.0  0.31102  0.78067  0.76566  1.0000
  C   C1320     1.0  0.31577  0.98444  0.89877  1.0000
  H   H1042     1.0  0.09773  0.52772  0.95331  1.0000
  C   C1321     1.0  0.30680  0.80431  0.86334  1.0000
  H   H1043     1.0  0.20471  0.51801  0.87004  1.0000
  C   C1322     1.0  0.23805  0.74893  0.76103  1.0000
  C   C1323     1.0  0.26459  0.78225  0.73023  1.0000
  C   C1324     1.0  0.31040  0.74865  0.83426  1.0000
  H   H1044     1.0  0.23013  0.63568  0.89068  1.0000
  H   H1045     1.0  0.28224  0.81467  0.72779  1.0000
  H   H1046     1.0  0.25059  0.74370  0.89009  1.0000
  H   H1047     1.0  0.25591  0.69938  0.88805  1.0000
  H   H1048     1.0  0.29266  0.68009  0.87380  1.0000
  C   C1325     1.0  0.17022  0.51108  0.95504  1.0000
  H   H1049     1.0  0.28160  0.76876  0.87795  1.0000
  C   C1326     1.0  0.04422  0.58831  0.82983  1.0000
  H   H1050     1.0  0.29066  0.70910  0.79324  1.0000
  C   C1327     1.0  0.28734  0.63182  0.82651  1.0000
  H   H1051     1.0  0.29045  0.71441  0.74817  1.0000
  H   H1052     1.0  0.24340  0.75313  0.72951  1.0000
  H   H1053     1.0  0.22590  0.69012  0.79862  1.0000
  H   H1054     1.0  0.31297  0.83414  0.73810  1.0000
  H   H1055     1.0  0.11477  0.52664  0.90842  1.0000
  H   H1056     1.0  0.07232  0.55540  0.86132  1.0000
  H   H1057     1.0  0.20374  0.58321  0.74425  1.0000
  C   C1328     1.0  0.18309  0.51223  0.79269  1.0000
  C   C1329     1.0  0.32399  0.76786  0.72900  1.0000
  H   H1058     1.0  0.21351  0.94785  0.90300  1.0000
  C   C1330     1.0  0.27545  0.79176  0.75789  1.0000
  C   C1331     1.0  0.02609  0.58936  0.84154  1.0000
  C   C1332     1.0  0.14150  0.57683  0.77438  1.0000
  C   C1333     1.0  0.14243  0.60069  0.77688  1.0000
  C   C1334     1.0  0.14877  0.61803  0.76548  1.0000
  C   C1335     1.0  0.15438  0.61150  0.75161  1.0000
  C   C1336     1.0  0.15352  0.58760  0.74900  1.0000
  C   C1337     1.0  0.14684  0.57030  0.76048  1.0000
  C   C1338     1.0  0.15489  0.49904  0.72912  1.0000
  H   H1059     1.0  0.30699  0.81391  0.78044  1.0000
  H   H1060     1.0  0.14563  0.55183  0.75883  1.0000
  H   H1061     1.0  0.27134  0.71184  0.83533  1.0000
  H   H1062     1.0  0.26947  0.84446  0.78158  1.0000
  C   C1339     1.0  0.23394  0.66293  0.87247  1.0000
  C   C1340     1.0  0.25975  0.62387  0.87495  1.0000
  C   C1341     1.0  0.03026  0.59858  0.85377  1.0000
  H   H1063     1.0  0.15939  0.62512  0.74290  1.0000
  P   P52       1.0  0.31786  0.93509  0.89609  1.0000
  H   H1064     1.0  0.23012  0.50587  0.81909  1.0000
  C   C1342     1.0  0.05372  0.62818  0.95840  1.0000
  H   H1065     1.0  0.31482  0.78069  0.72121  1.0000
  C   C1343     1.0  0.06674  0.54273  0.94205  1.0000
  C   C1344     1.0  0.11268  0.60088  0.72492  1.0000
  H   H1066     1.0  0.13675  0.56335  0.78322  1.0000
  H   H1067     1.0  0.13864  0.60565  0.78766  1.0000
  H   H1068     1.0  0.14984  0.63648  0.76738  1.0000
  C   C1345     1.0  0.15652  0.60960  0.96557  1.0000
  C   C1346     1.0  0.03505  0.51698  0.94370  1.0000
  H   H1069     1.0  0.13449  0.54504  0.96699  1.0000
  C   C1347     1.0  0.31100  0.75803  0.74164  1.0000
  C   C1348     1.0  0.14208  0.50243  0.89690  1.0000
  C   C1349     1.0  0.20113  0.49741  0.85304  1.0000
  H   H1070     1.0  0.28682  0.61622  0.85725  1.0000
  C   C1350     1.0  0.28479  0.93917  0.89849  1.0000
  H   H1071     1.0  0.31262  0.89211  0.85449  1.0000
  C   C1351     1.0  0.30760  0.62852  0.81606  1.0000
  C   C1352     1.0  0.08014  0.52472  0.95072  1.0000
  H   H1072     1.0  0.10624  0.58755  0.73339  1.0000
  C   C1353     1.0  0.26165  0.70695  0.82727  1.0000
  H   H1073     1.0  0.29035  0.84117  0.86619  1.0000
  C   C1354     1.0  0.32593  0.78545  0.86644  1.0000
  C   C1355     1.0  0.04787  0.52875  0.86392  1.0000
  C   C1356     1.0  0.24964  0.67645  0.81490  1.0000
  C   C1357     1.0  0.27103  0.82968  0.77508  1.0000
  C   C1358     1.0  0.30819  0.71356  0.86780  1.0000
  C   C1359     1.0  0.21005  0.51542  0.85887  1.0000
  H   H1074     1.0  0.26603  0.68152  0.75781  1.0000
  C   C1360     1.0  0.15263  0.49709  0.96242  1.0000
  H   H1075     1.0  0.31560  0.95913  0.72425  1.0000
  C   C1361     1.0  0.29178  0.68213  0.72380  1.0000
  C   C1362     1.0  0.31608  0.77384  0.81155  1.0000
  H   H1076     1.0  0.08384  0.49816  0.91247  1.0000
  C   C1363     1.0  0.05434  0.50098  0.84593  1.0000
  C   C1364     1.0  0.32747  0.96488  0.89139  1.0000
  C   C1365     1.0  0.33084  0.82954  0.73229  1.0000
  C   C1366     1.0  0.23337  0.94535  0.90169  1.0000
  H   H1077     1.0  0.31734  0.64425  0.85638  1.0000
  H   H1078     1.0  0.00890  0.58272  0.84127  1.0000
  H   H1079     1.0  0.29462  0.70033  0.72512  1.0000
  C   C1367     1.0  0.25066  0.50233  0.77935  1.0000
  C   C1368     1.0  0.28317  0.63506  0.72141  1.0000
  H   H1080     1.0  0.24965  0.93223  0.71928  1.0000
  C   C1369     1.0  0.27163  0.95669  0.88928  1.0000
  H   H1081     1.0  0.10954  0.64374  0.96074  1.0000
  C   C1370     1.0  0.32438  0.65746  0.84810  1.0000
  C   C1371     1.0  0.07125  0.50263  0.95562  1.0000
  C   C1372     1.0  0.20747  0.49436  0.83850  1.0000
  C   C1373     1.0  0.17232  0.50567  0.73655  1.0000
  S   S153      1.0  0.00182  0.56864  0.88901  1.0000
  C   C1374     1.0  0.09198  0.63754  0.96419  1.0000
  C   C1375     1.0  0.31233  0.60744  0.80920  1.0000
  H   H1082     1.0  0.18001  0.49978  0.77265  1.0000
  H   H1083     1.0  0.30142  0.98172  0.90749  1.0000
  C   C1376     1.0  0.16381  0.49840  0.93269  1.0000
  C   C1377     1.0  0.23256  0.49508  0.75893  1.0000
  C   C1378     1.0  0.32254  0.76374  0.84064  1.0000
  C   C1379     1.0  0.20551  0.71965  0.72589  1.0000
  C   C1380     1.0  0.22402  0.50862  0.83015  1.0000
  C   C1381     1.0  0.32829  0.78888  0.81779  1.0000
  C   C1382     1.0  0.13791  0.60118  0.72103  1.0000
  H   H1084     1.0  0.08445  0.50588  0.82944  1.0000
  P   P53       1.0  0.32790  0.75678  0.85917  1.0000
  H   H1085     1.0  0.27075  0.96127  0.72893  1.0000
  C   C1383     1.0  0.19112  0.58252  0.72372  1.0000
  H   H1086     1.0  0.31961  0.64227  0.81300  1.0000
  C   C1384     1.0  0.29511  0.63918  0.73268  1.0000
  C   C1385     1.0  0.02748  0.49887  0.89459  1.0000
  C   C1386     1.0  0.16894  0.58580  0.96586  1.0000
  C   C1387     1.0  0.23355  0.58183  0.72743  1.0000
  H   H1087     1.0  0.17064  0.73827  0.72012  1.0000
  C   C1388     1.0  0.02181  0.50478  0.90859  1.0000
  H   H1088     1.0  0.01640  0.59893  0.86298  1.0000
  H   H1089     1.0  0.16844  0.49864  0.92127  1.0000
  H   H1090     1.0  0.27933  0.61689  0.72070  1.0000
  C   C1389     1.0  0.00872  0.50024  0.88591  1.0000
  C   C1390     1.0  0.32088  0.68470  0.82612  1.0000
  C   C1391     1.0  0.00267  0.60734  0.96351  1.0000
  H   H1091     1.0  0.28119  0.96800  0.88086  1.0000
  C   C1392     1.0  0.32401  0.74215  0.75168  1.0000
  H   H1092     1.0  0.15261  0.50125  0.84314  1.0000
  H   H1093     1.0  0.32765  0.88390  0.90797  1.0000
  C   C1393     1.0  0.28126  0.94769  0.72257  1.0000
  H   H1094     1.0  0.01502  0.56898  0.96178  1.0000
  H   H1095     1.0  0.32496  0.96844  0.96058  1.0000
  H   H1096     1.0  0.04647  0.49367  0.89050  1.0000
  C   C1394     1.0  0.65187  0.16555  0.08853  1.0000
  Fe  Fe80      1.0  0.61449  0.19811  0.16173  1.0000
  S   S154      1.0  0.62302  0.15741  0.16406  1.0000
  S   S155      1.0  0.57511  0.21699  0.16151  1.0000
  C   C1395     1.0  0.56073  0.03734  0.03230  1.0000
  H   H1097     1.0  0.45041  0.02267  0.00130  1.0000
  H   H1098     1.0  0.64273  0.32595  0.16870  1.0000
  S   S156      1.0  0.64086  0.20275  0.17703  1.0000
  S   S157      1.0  0.64154  0.20414  0.14194  1.0000
  Fe  Fe81      1.0  0.63012  0.10349  0.02376  1.0000
  S   S158      1.0  0.59658  0.08678  0.03320  1.0000
  C   C1396     1.0  0.47882  0.09298  0.96975  1.0000
  Fe  Fe82      1.0  0.63433  0.12285  0.05192  1.0000
  S   S159      1.0  0.60150  0.10694  0.06320  1.0000
  C   C1397     1.0  0.47757  0.07380  0.98090  1.0000
  Fe  Fe83      1.0  0.61646  0.07371  0.05231  1.0000
  Fe  Fe84      1.0  0.58441  0.12152  0.04320  1.0000
  S   S160      1.0  0.54622  0.14271  0.04570  1.0000
  S   S161      1.0  0.61635  0.13937  0.03225  1.0000
  Fe  Fe85      1.0  0.44378  0.16885  0.16609  1.0000
  S   S162      1.0  0.42731  0.13627  0.16230  1.0000
  S   S163      1.0  0.48222  0.15967  0.17330  1.0000
  Fe  Fe86      1.0  0.39864  0.20392  0.15713  1.0000
  S   S164      1.0  0.37966  0.17401  0.15213  1.0000
  S   S165      1.0  0.38436  0.24461  0.15417  1.0000
  Fe  Fe87      1.0  0.39179  0.15416  0.17291  1.0000
  C   C1398     1.0  0.58364  0.02354  0.11743  1.0000
  Fe  Fe88      1.0  0.41666  0.15830  0.14197  1.0000
  S   S166      1.0  0.43001  0.14185  0.12121  1.0000
  S   S167      1.0  0.40880  0.18503  0.17850  1.0000
  S   S168      1.0  0.43494  0.18992  0.14520  1.0000
  Fe  Fe89      1.0  0.39108  0.06784  0.02910  1.0000
  S   S169      1.0  0.42620  0.04279  0.03073  1.0000
  S   S170      1.0  0.37126  0.06338  0.01045  1.0000
  Fe  Fe90      1.0  0.39392  0.08661  0.05767  1.0000
  S   S171      1.0  0.42948  0.06259  0.06125  1.0000
  S   S172      1.0  0.37334  0.11041  0.07436  1.0000
  Fe  Fe91      1.0  0.43997  0.07382  0.03800  1.0000
  S   S173      1.0  0.47836  0.07547  0.02787  1.0000
  Fe  Fe92      1.0  0.41276  0.03341  0.05368  1.0000
  C   C1399     1.0  0.64601  0.00349  0.18068  1.0000
  S   S174      1.0  0.40583  0.10026  0.03458  1.0000
  S   S175      1.0  0.37614  0.05619  0.05190  1.0000
  C   C1400     1.0  0.41346  0.13341  0.10848  1.0000
  C   C1401     1.0  0.42660  0.12528  0.09592  1.0000
  C   C1402     1.0  0.41454  0.11792  0.08552  1.0000
  C   C1403     1.0  0.38907  0.11898  0.08746  1.0000
  C   C1404     1.0  0.37581  0.12749  0.09993  1.0000
  C   C1405     1.0  0.38797  0.13449  0.11047  1.0000
  H   H1099     1.0  0.44624  0.12481  0.09420  1.0000
  H   H1100     1.0  0.42489  0.11183  0.07587  1.0000
  H   H1101     1.0  0.35611  0.12836  0.10153  1.0000
  H   H1102     1.0  0.37768  0.14055  0.12015  1.0000
  C   C1406     1.0  0.35275  0.25635  0.15440  1.0000
  Fe  Fe93      1.0  0.65122  0.16337  0.14516  1.0000
  H   H1103     1.0  0.35911  0.29376  0.15258  1.0000
  H   H1104     1.0  0.52603  0.07523  0.05629  1.0000
  C   C1407     1.0  0.46764  0.11661  0.97223  1.0000
  P   P54       1.0  0.64011  0.28942  0.19453  1.0000
  H   H1105     1.0  0.39262  0.14994  0.20635  1.0000
  H   H1106     1.0  0.40057  0.18787  0.11202  1.0000
  H   H1107     1.0  0.47892  0.99863  0.98429  1.0000
  C   C1408     1.0  0.39581  0.09134  0.98843  1.0000
  C   C1409     1.0  0.38203  0.07211  0.99234  1.0000
  H   H1108     1.0  0.40077  0.10061  0.99663  1.0000
  C   C1410     1.0  0.52575  0.12678  0.03970  1.0000
  C   C1411     1.0  0.53474  0.11043  0.02981  1.0000
  C   C1412     1.0  0.51969  0.09506  0.02627  1.0000
  C   C1413     1.0  0.49535  0.09638  0.03229  1.0000
  C   C1414     1.0  0.48561  0.11386  0.04153  1.0000
  C   C1415     1.0  0.50093  0.12917  0.04525  1.0000
  H   H1109     1.0  0.55335  0.10962  0.02487  1.0000
  H   H1110     1.0  0.52695  0.08187  0.01895  1.0000
  H   H1111     1.0  0.46663  0.11505  0.04612  1.0000
  H   H1112     1.0  0.49382  0.14204  0.05282  1.0000
  C   C1416     1.0  0.48369  0.18977  0.99472  1.0000
  S   S176      1.0  0.61094  0.03666  0.06423  1.0000
  C   C1417     1.0  0.50775  0.17600  0.16958  1.0000
  C   C1418     1.0  0.53059  0.16425  0.17344  1.0000
  C   C1419     1.0  0.55139  0.17640  0.17091  1.0000
  C   C1420     1.0  0.54947  0.20075  0.16478  1.0000
  C   C1421     1.0  0.52660  0.21259  0.16106  1.0000
  C   C1422     1.0  0.50590  0.20024  0.16324  1.0000
  H   H1113     1.0  0.53213  0.14570  0.17863  1.0000
  H   H1114     1.0  0.56872  0.16711  0.17404  1.0000
  H   H1115     1.0  0.52498  0.23146  0.15650  1.0000
  H   H1116     1.0  0.48841  0.20959  0.16033  1.0000
  C   C1423     1.0  0.34843  0.24157  0.11836  1.0000
  H   H1117     1.0  0.49626  0.12981  0.00765  1.0000
  C   C1424     1.0  0.45485  0.12080  0.98557  1.0000
  H   H1118     1.0  0.65668  0.17951  0.20873  1.0000
  H   H1119     1.0  0.34137  0.17410  0.07141  1.0000
  H   H1120     1.0  0.37695  0.26115  0.12195  1.0000
  H   H1121     1.0  0.43199  0.18056  0.01720  1.0000
  H   H1122     1.0  0.50154  0.07339  0.12459  1.0000
  H   H1123     1.0  0.62001  0.14375  0.99378  1.0000
  C   C1425     1.0  0.64969  0.02814  0.10989  1.0000
  C   C1426     1.0  0.62349  0.13430  0.98435  1.0000
  C   C1427     1.0  0.59016  0.01023  0.98754  1.0000
  C   C1428     1.0  0.57091  0.21140  0.98970  1.0000
  H   H1124     1.0  0.36435  0.04584  0.98448  1.0000
  C   C1429     1.0  0.61604  0.14615  0.97128  1.0000
  H   H1125     1.0  0.33423  0.25656  0.12062  1.0000
  H   H1126     1.0  0.63253  0.32445  0.21596  1.0000
  H   H1127     1.0  0.44583  0.13893  0.98739  1.0000
  H   H1128     1.0  0.33855  0.25689  0.18377  1.0000
  H   H1129     1.0  0.59969  0.16738  0.08169  1.0000
  C   C1430     1.0  0.46314  0.15318  0.01329  1.0000
  C   C1431     1.0  0.37789  0.14152  0.21273  1.0000
  C   C1432     1.0  0.37522  0.06056  0.98156  1.0000
  C   C1433     1.0  0.62368  0.01154  0.05493  1.0000
  H   H1130     1.0  0.40056  0.00745  0.12012  1.0000
  H   H1131     1.0  0.60723  0.25618  0.15688  1.0000
  C   C1434     1.0  0.39152  0.22503  0.11668  1.0000
  C   C1435     1.0  0.57768  0.11622  0.15230  1.0000
  C   C1436     1.0  0.63346  0.05257  0.12927  1.0000
  C   C1437     1.0  0.51835  0.01301  0.07332  1.0000
  C   C1438     1.0  0.58291  0.02423  0.02712  1.0000
  C   C1439     1.0  0.60256  0.07629  0.15256  1.0000
  C   C1440     1.0  0.50732  0.02297  0.08574  1.0000
  H   H1132     1.0  0.33370  0.18601  0.13880  1.0000
  S   S177      1.0  0.65122  0.08819  0.04252  1.0000
  C   C1441     1.0  0.60024  0.10177  0.14931  1.0000
  H   H1133     1.0  0.61582  0.11053  0.14433  1.0000
  C   C1442     1.0  0.58195  0.06558  0.15903  1.0000
  H   H1134     1.0  0.63852  0.08794  0.16939  1.0000
  H   H1135     1.0  0.61324  0.08772  0.12261  1.0000
  H   H1136     1.0  0.55737  0.32791  0.21192  1.0000
  H   H1137     1.0  0.59326  0.09404  0.99993  1.0000
  C   C1443     1.0  0.63576  0.11043  0.98514  1.0000
  H   H1138     1.0  0.41127  0.11529  0.97095  1.0000
  H   H1139     1.0  0.55313  0.20171  0.97316  1.0000
  C   C1444     1.0  0.60859  0.04393  0.20376  1.0000
  P   P55       1.0  0.63147  0.05763  0.14784  1.0000
  H   H1140     1.0  0.34020  0.22149  0.15646  1.0000
  C   C1445     1.0  0.65551  0.31454  0.19671  1.0000
  C   C1446     1.0  0.65564  0.11917  0.10387  1.0000
  H   H1141     1.0  0.56487  0.16395  0.06877  1.0000
  C   C1447     1.0  0.62280  0.07069  0.11933  1.0000
  C   C1448     1.0  0.45004  0.17661  0.01140  1.0000
  C   C1449     1.0  0.64045  0.09848  0.97274  1.0000
  C   C1450     1.0  0.34541  0.28172  0.15351  1.0000
  C   C1451     1.0  0.38604  0.20295  0.11365  1.0000
  C   C1452     1.0  0.34257  0.05132  0.20917  1.0000
  H   H1142     1.0  0.52448  0.03557  0.04316  1.0000
  H   H1143     1.0  0.59802  0.32731  0.19766  1.0000
  C   C1453     1.0  0.62518  0.06737  0.10486  1.0000
  C   C1454     1.0  0.37275  0.24430  0.11908  1.0000
  C   C1455     1.0  0.62199  0.27085  0.17313  1.0000
  H   H1144     1.0  0.47484  0.02715  0.10089  1.0000
  C   C1456     1.0  0.63880  0.07611  0.20918  1.0000
  H   H1145     1.0  0.58314  0.04607  0.16178  1.0000
  H   H1146     1.0  0.46325  0.06317  0.00268  1.0000
  H   H1147     1.0  0.57972  0.22522  0.98266  1.0000
  C   C1457     1.0  0.36210  0.13087  0.20607  1.0000
  H   H1148     1.0  0.61872  0.25549  0.18107  1.0000
  H   H1149     1.0  0.47682  0.08608  0.14664  1.0000
  H   H1150     1.0  0.62905  0.01091  0.00381  1.0000
  C   C1458     1.0  0.65383  0.12192  0.08910  1.0000
  H   H1151     1.0  0.57611  0.13585  0.14985  1.0000
  C   C1459     1.0  0.64804  0.32826  0.20827  1.0000
  H   H1152     1.0  0.46952  0.00371  0.04617  1.0000
  H   H1153     1.0  0.57342  0.03271  0.13888  1.0000
  C   C1460     1.0  0.55720  0.10540  0.15848  1.0000
  C   C1461     1.0  0.35731  0.20455  0.20444  1.0000
  H   H1154     1.0  0.37390  0.19371  0.20782  1.0000
  C   C1462     1.0  0.65206  0.14513  0.08135  1.0000
  H   H1155     1.0  0.60575  0.14138  0.10463  1.0000
  C   C1463     1.0  0.57198  0.03851  0.12767  1.0000
  H   H1156     1.0  0.65121  0.03910  0.01305  1.0000
  C   C1464     1.0  0.56795  0.18602  0.12976  1.0000
  C   C1465     1.0  0.58969  0.18681  0.12056  1.0000
  C   C1466     1.0  0.58898  0.19780  0.10648  1.0000
  C   C1467     1.0  0.56656  0.20808  0.10163  1.0000
  C   C1468     1.0  0.54475  0.20824  0.11101  1.0000
  C   C1469     1.0  0.54552  0.19646  0.12500  1.0000
  P   P56       1.0  0.51585  0.22176  0.10480  1.0000
  C   C1470     1.0  0.51939  0.24844  0.09209  1.0000
  C   C1471     1.0  0.50529  0.19839  0.09686  1.0000
  C   C1472     1.0  0.51218  0.19582  0.08230  1.0000
  C   C1473     1.0  0.50436  0.17747  0.07618  1.0000
  C   C1474     1.0  0.49034  0.16105  0.08463  1.0000
  C   C1475     1.0  0.48427  0.16293  0.09922  1.0000
  C   C1476     1.0  0.49160  0.18155  0.10534  1.0000
  C   C1477     1.0  0.50312  0.25574  0.08173  1.0000
  C   C1478     1.0  0.50536  0.27682  0.07214  1.0000
  C   C1479     1.0  0.52355  0.29099  0.07298  1.0000
  C   C1480     1.0  0.53935  0.28422  0.08353  1.0000
  C   C1481     1.0  0.53715  0.26315  0.09315  1.0000
  C   C1482     1.0  0.49458  0.23363  0.11915  1.0000
  C   C1483     1.0  0.50313  0.24519  0.12932  1.0000
  C   C1484     1.0  0.48670  0.25588  0.13996  1.0000
  C   C1485     1.0  0.46163  0.25527  0.14048  1.0000
  C   C1486     1.0  0.45290  0.24445  0.13019  1.0000
  C   C1487     1.0  0.46924  0.23375  0.11949  1.0000
  H   H1157     1.0  0.56857  0.17769  0.14068  1.0000
  H   H1158     1.0  0.60706  0.17876  0.12433  1.0000
  H   H1159     1.0  0.60584  0.19806  0.09929  1.0000
  H   H1160     1.0  0.56632  0.21597  0.09058  1.0000
  H   H1161     1.0  0.52888  0.19558  0.13233  1.0000
  H   H1162     1.0  0.52379  0.20777  0.07568  1.0000
  H   H1163     1.0  0.50975  0.17552  0.06493  1.0000
  H   H1164     1.0  0.48459  0.14657  0.07995  1.0000
  H   H1165     1.0  0.47401  0.14978  0.10583  1.0000
  H   H1166     1.0  0.48676  0.18255  0.11670  1.0000
  H   H1167     1.0  0.48856  0.24528  0.08113  1.0000
  H   H1168     1.0  0.49284  0.28228  0.06411  1.0000
  H   H1169     1.0  0.52522  0.30736  0.06557  1.0000
  H   H1170     1.0  0.55320  0.29541  0.08434  1.0000
  H   H1171     1.0  0.54916  0.25851  0.10147  1.0000
  H   H1172     1.0  0.52250  0.24601  0.12905  1.0000
  H   H1173     1.0  0.49341  0.26448  0.14789  1.0000
  H   H1174     1.0  0.44886  0.26319  0.14885  1.0000
  H   H1175     1.0  0.43337  0.24431  0.13070  1.0000
  H   H1176     1.0  0.46203  0.22577  0.11150  1.0000
  C   C1488     1.0  0.57483  0.20693  0.00411  1.0000
  C   C1489     1.0  0.45938  0.99853  0.98490  1.0000
  H   H1177     1.0  0.64032  0.04358  0.08889  1.0000
  C   C1490     1.0  0.58579  0.99877  0.02859  1.0000
  C   C1491     1.0  0.64315  0.05150  0.21487  1.0000
  C   C1492     1.0  0.40169  0.09964  0.97388  1.0000
  C   C1493     1.0  0.48648  0.14798  0.00588  1.0000
  S   S178      1.0  0.36492  0.13191  0.18723  1.0000
  C   C1494     1.0  0.46462  0.07805  0.99416  1.0000
  C   C1495     1.0  0.61532  0.27125  0.15944  1.0000
  C   C1496     1.0  0.63268  0.29011  0.17655  1.0000
  H   H1178     1.0  0.58674  0.21717  0.00823  1.0000
  C   C1497     1.0  0.54161  0.02508  0.03926  1.0000
  C   C1498     1.0  0.62879  0.31071  0.15255  1.0000
  H   H1179     1.0  0.65001  0.08003  0.97329  1.0000
  H   H1180     1.0  0.54344  0.07183  0.16682  1.0000
  H   H1181     1.0  0.61701  0.08148  0.09720  1.0000
  H   H1182     1.0  0.61721  0.25201  0.21464  1.0000
  C   C1499     1.0  0.54086  0.12869  0.98991  1.0000
  H   H1183     1.0  0.57482  0.13677  0.99571  1.0000
  C   C1500     1.0  0.54843  0.17563  0.00786  1.0000
  C   C1501     1.0  0.48363  0.01889  0.09149  1.0000
  H   H1184     1.0  0.48617  0.05547  0.97927  1.0000
  H   H1185     1.0  0.51046  0.11406  0.98417  1.0000
  C   C1502     1.0  0.59374  0.31117  0.20467  1.0000
  C   C1503     1.0  0.57520  0.09845  0.99642  1.0000
  C   C1504     1.0  0.55937  0.08011  0.16192  1.0000
  C   C1505     1.0  0.64484  0.01719  0.99731  1.0000
  H   H1186     1.0  0.40578  0.02238  0.00279  1.0000
  H   H1187     1.0  0.61369  0.29133  0.13851  1.0000
  C   C1506     1.0  0.65286  0.16285  0.10341  1.0000
  H   H1188     1.0  0.53749  0.13354  0.07794  1.0000
  C   C1507     1.0  0.62215  0.00969  0.15611  1.0000
  C   C1508     1.0  0.44337  0.01216  0.99443  1.0000
  C   C1509     1.0  0.63548  0.31037  0.16625  1.0000
  C   C1510     1.0  0.63302  0.02896  0.15939  1.0000
  C   C1511     1.0  0.55591  0.19783  0.98431  1.0000
  H   H1189     1.0  0.37637  0.23199  0.19138  1.0000
  H   H1190     1.0  0.58973  0.07509  0.19164  1.0000
  H   H1191     1.0  0.53965  0.11665  0.16067  1.0000
  C   C1512     1.0  0.41818  0.01205  0.99525  1.0000
  C   C1513     1.0  0.61885  0.29110  0.14912  1.0000
  S   S179      1.0  0.65087  0.14921  0.06267  1.0000
  H   H1192     1.0  0.53997  0.16171  0.01503  1.0000
  C   C1514     1.0  0.65490  0.08643  0.16181  1.0000
  C   C1515     1.0  0.36178  0.20008  0.11300  1.0000
  H   H1193     1.0  0.57831  0.11082  0.11406  1.0000
  C   C1516     1.0  0.54486  0.99950  0.04144  1.0000
  C   C1517     1.0  0.48018  0.08290  0.08347  1.0000
  C   C1518     1.0  0.49208  0.07714  0.07022  1.0000
  C   C1519     1.0  0.51690  0.07916  0.06669  1.0000
  C   C1520     1.0  0.52989  0.08669  0.07645  1.0000
  C   C1521     1.0  0.51845  0.09136  0.09012  1.0000
  C   C1522     1.0  0.49324  0.09001  0.09339  1.0000
  P   P57       1.0  0.53662  0.09679  0.10353  1.0000
  C   C1523     1.0  0.51759  0.10681  0.11926  1.0000
  C   C1524     1.0  0.55577  0.06848  0.10894  1.0000
  C   C1525     1.0  0.55843  0.06102  0.12347  1.0000
  C   C1526     1.0  0.58190  0.03116  0.10296  1.0000
  C   C1527     1.0  0.56822  0.05354  0.09872  1.0000
  C   C1528     1.0  0.51878  0.12953  0.12373  1.0000
  C   C1529     1.0  0.50519  0.13624  0.13643  1.0000
  C   C1530     1.0  0.49025  0.12048  0.14467  1.0000
  C   C1531     1.0  0.48879  0.09801  0.14029  1.0000
  C   C1532     1.0  0.50256  0.09108  0.12771  1.0000
  C   C1533     1.0  0.55634  0.11935  0.09650  1.0000
  C   C1534     1.0  0.55222  0.13501  0.08394  1.0000
  C   C1535     1.0  0.56761  0.15252  0.07875  1.0000
  C   C1536     1.0  0.58720  0.15447  0.08605  1.0000
  C   C1537     1.0  0.59086  0.13951  0.09883  1.0000
  C   C1538     1.0  0.57547  0.12206  0.10407  1.0000
  H   H1194     1.0  0.46082  0.08164  0.08608  1.0000
  H   H1195     1.0  0.48205  0.07132  0.06260  1.0000
  H   H1196     1.0  0.54891  0.08888  0.07321  1.0000
  H   H1197     1.0  0.48338  0.09451  0.10349  1.0000
  H   H1198     1.0  0.55010  0.07246  0.13162  1.0000
  H   H1199     1.0  0.59150  0.01995  0.09491  1.0000
  H   H1200     1.0  0.56791  0.05899  0.08741  1.0000
  H   H1201     1.0  0.53004  0.14220  0.11751  1.0000
  H   H1202     1.0  0.50605  0.15372  0.13993  1.0000
  H   H1203     1.0  0.47970  0.12574  0.15446  1.0000
  C   C1539     1.0  0.56345  0.18915  0.01320  1.0000
  C   C1540     1.0  0.65475  0.13959  0.11112  1.0000
  C   C1541     1.0  0.66096  0.34690  0.21016  1.0000
  C   C1542     1.0  0.52850  0.10987  0.98760  1.0000
  H   H1204     1.0  0.34883  0.06089  0.21677  1.0000
  H   H1205     1.0  0.63133  0.32621  0.14458  1.0000
  C   C1543     1.0  0.34329  0.11961  0.21454  1.0000
  H   H1206     1.0  0.61286  0.01175  0.14664  1.0000
  H   H1207     1.0  0.55855  0.05703  0.03120  1.0000
  C   C1544     1.0  0.63852  0.04606  0.10014  1.0000
  H   H1208     1.0  0.59438  0.00622  0.12064  1.0000
  C   C1545     1.0  0.46034  0.19493  0.00214  1.0000
  C   C1546     1.0  0.60467  0.26893  0.21422  1.0000
  H   H1209     1.0  0.44328  0.10463  0.00685  1.0000
  S   S180      1.0  0.64594  0.09503  0.00129  1.0000
  H   H1210     1.0  0.45526  0.13897  0.02055  1.0000
  H   H1211     1.0  0.64812  0.03147  0.04001  1.0000
  H   H1212     1.0  0.35797  0.18255  0.11100  1.0000
  H   H1213     1.0  0.45026  0.21316  0.00077  1.0000
  H   H1214     1.0  0.52919  0.07110  0.98855  1.0000
  C   C1547     1.0  0.64186  0.01399  0.04336  1.0000
  C   C1548     1.0  0.60457  0.06847  0.19810  1.0000
  C   C1549     1.0  0.45332  0.10151  0.99652  1.0000
  C   C1550     1.0  0.34731  0.05962  0.19465  1.0000
  C   C1551     1.0  0.57068  0.31153  0.21267  1.0000
  Fe  Fe94      1.0  0.65145  0.16219  0.17773  1.0000
  H   H1215     1.0  0.41028  0.22699  0.11742  1.0000
  C   C1552     1.0  0.54499  0.17946  0.99332  1.0000
  C   C1553     1.0  0.61104  0.28999  0.20558  1.0000
  H   H1216     1.0  0.60681  0.16473  0.97076  1.0000
  H   H1217     1.0  0.55384  0.02607  0.99575  1.0000
  H   H1218     1.0  0.40228  0.00293  0.09435  1.0000
  H   H1219     1.0  0.59584  0.02766  0.98316  1.0000
  C   C1554     1.0  0.53919  0.08550  0.98997  1.0000
  C   C1555     1.0  0.56451  0.12277  0.99411  1.0000
  C   C1556     1.0  0.65268  0.00982  0.98371  1.0000
  H   H1220     1.0  0.53680  0.01622  0.06912  1.0000
  C   C1557     1.0  0.64740  0.03145  0.12437  1.0000
  C   C1558     1.0  0.35873  0.22615  0.19526  1.0000
  H   H1221     1.0  0.59793  0.03379  0.02212  1.0000
  H   H1222     1.0  0.57089  0.06113  0.99653  1.0000
  H   H1223     1.0  0.65442  0.10606  0.08363  1.0000
  C   C1559     1.0  0.56255  0.07984  0.99443  1.0000
  H   H1224     1.0  0.49156  0.20418  0.98766  1.0000
  C   C1560     1.0  0.66081  0.26244  0.19978  1.0000
  H   H1225     1.0  0.61671  0.10365  0.19650  1.0000
  C   C1561     1.0  0.33741  0.24008  0.19086  1.0000
  C   C1562     1.0  0.49683  0.16615  0.99641  1.0000
  C   C1563     1.0  0.34275  0.21948  0.11516  1.0000
  C   C1564     1.0  0.65763  0.03277  0.00274  1.0000
  H   H1226     1.0  0.38921  0.99883  0.98729  1.0000
  C   C1565     1.0  0.56651  0.00947  0.99466  1.0000
  H   H1227     1.0  0.56649  0.18549  0.02438  1.0000
  H   H1228     1.0  0.51703  0.03417  0.09077  1.0000
  P   P58       1.0  0.52701  0.16014  0.98673  1.0000
  H   H1229     1.0  0.65248  0.17867  0.10887  1.0000
  C   C1566     1.0  0.61968  0.08455  0.20084  1.0000
  H   H1230     1.0  0.34336  0.05436  0.17313  1.0000
  S   S181      1.0  0.65560  0.13487  0.12981  1.0000
  H   H1231     1.0  0.66039  0.01183  0.10612  1.0000
  H   H1232     1.0  0.65045  0.08882  0.21101  1.0000
  H   H1233     1.0  0.63057  0.01634  0.21622  1.0000
  C   C1567     1.0  0.33483  0.24102  0.15565  1.0000
  C   C1568     1.0  0.62778  0.03544  0.21210  1.0000
  C   C1569     1.0  0.33460  0.19672  0.20910  1.0000
  H   H1234     1.0  0.48568  0.16869  0.96930  1.0000
  H   H1235     1.0  0.33394  0.17979  0.21615  1.0000
  H   H1236     1.0  0.35698  0.07528  0.19137  1.0000
  H   H1237     1.0  0.65082  0.18352  0.08255  1.0000
  H   H1238     1.0  0.59684  0.03145  0.20166  1.0000
  S   S182      1.0  0.66082  0.13379  0.19643  1.0000
  H   H1239     1.0  0.33739  0.20783  0.08626  1.0000
  C   C1570     1.0  0.65263  0.99361  0.03644  1.0000
  C   C1571     1.0  0.64482  0.02572  0.17183  1.0000
  C   C1572     1.0  0.50580  0.99868  0.06663  1.0000
  C   C1573     1.0  0.47135  0.00405  0.08515  1.0000
  C   C1574     1.0  0.33959  0.04787  0.18438  1.0000
  S   S183      1.0  0.42200  0.99469  0.06383  1.0000
  H   H1240     1.0  0.65536  0.00103  0.19017  1.0000
  H   H1241     1.0  0.45305  0.00065  0.08959  1.0000
  C   C1575     1.0  0.48265  0.99346  0.07299  1.0000
  H   H1242     1.0  0.65318  0.04020  0.17477  1.0000
  H   H1243     1.0  0.38361  0.99613  0.04575  1.0000
  H   H1244     1.0  0.65684  0.01771  0.13166  1.0000
  C   C1576     1.0  0.65653  0.07315  0.15012  1.0000
  H   H1245     1.0  0.65785  0.10113  0.10970  1.0000
  C   C1577     1.0  0.40885  0.99866  0.98641  1.0000
  H   H1246     1.0  0.55804  0.06970  0.42189  1.0000
  S   S184      1.0  0.61721  0.06584  0.40106  1.0000
  H   H1247     1.0  0.66248  0.14242  0.34827  1.0000
  C   C1578     1.0  0.35671  0.03400  0.45617  1.0000
  S   S185      1.0  0.60947  0.07811  0.43483  1.0000
  C   C1579     1.0  0.63842  0.16456  0.30334  1.0000
  Fe  Fe95      1.0  0.62391  0.04640  0.42256  1.0000
  C   C1580     1.0  0.52944  0.00456  0.42009  1.0000
  Fe  Fe96      1.0  0.60529  0.09836  0.41290  1.0000
  S   S186      1.0  0.57014  0.12307  0.40858  1.0000
  C   C1581     1.0  0.63227  0.07542  0.32088  1.0000
  S   S187      1.0  0.64283  0.11018  0.40994  1.0000
  S   S188      1.0  0.34895  0.07680  0.28544  1.0000
  C   C1582     1.0  0.36397  0.99898  0.34204  1.0000
  Fe  Fe97      1.0  0.45207  0.08130  0.39532  1.0000
  S   S189      1.0  0.41962  0.11048  0.39876  1.0000
  S   S190      1.0  0.48837  0.08288  0.38143  1.0000
  Fe  Fe98      1.0  0.42787  0.04292  0.41548  1.0000
  S   S191      1.0  0.39355  0.06846  0.42085  1.0000
  C   C1583     1.0  0.37192  0.02136  0.33666  1.0000
  Fe  Fe99      1.0  0.39677  0.08119  0.39710  1.0000
  S   S192      1.0  0.36194  0.08458  0.38627  1.0000
  Fe  Fe100     1.0  0.41887  0.09534  0.42214  1.0000
  S   S193      1.0  0.41758  0.11857  0.44010  1.0000
  S   S194      1.0  0.42928  0.05330  0.39185  1.0000
  S   S195      1.0  0.45292  0.06867  0.41858  1.0000
  C   C1584     1.0  0.37961  0.09602  0.34305  1.0000
  C   C1585     1.0  0.38138  0.09269  0.35785  1.0000
  C   C1586     1.0  0.36132  0.08687  0.36752  1.0000
  H   H1248     1.0  0.39498  0.10119  0.33567  1.0000
  H   H1249     1.0  0.39804  0.09524  0.36178  1.0000
  C   C1587     1.0  0.35577  0.13027  0.23614  1.0000
  C   C1588     1.0  0.58714  0.13086  0.34362  1.0000
  C   C1589     1.0  0.65713  0.07735  0.31661  1.0000
  H   H1250     1.0  0.37723  0.04759  0.31807  1.0000
  C   C1590     1.0  0.58025  0.09732  0.31960  1.0000
  C   C1591     1.0  0.41010  0.10680  0.45817  1.0000
  H   H1251     1.0  0.65948  0.07378  0.27967  1.0000
  C   C1592     1.0  0.35898  0.00973  0.46263  1.0000
  H   H1252     1.0  0.57573  0.14025  0.33562  1.0000
  C   C1593     1.0  0.53294  0.08930  0.31610  1.0000
  H   H1253     1.0  0.59641  0.05533  0.36801  1.0000
  H   H1254     1.0  0.58800  0.02604  0.40504  1.0000
  C   C1594     1.0  0.54763  0.11081  0.40142  1.0000
  C   C1595     1.0  0.55409  0.09353  0.39170  1.0000
  C   C1596     1.0  0.53584  0.08511  0.38557  1.0000
  C   C1597     1.0  0.51096  0.09330  0.38946  1.0000
  C   C1598     1.0  0.50447  0.11005  0.39947  1.0000
  C   C1599     1.0  0.52275  0.11904  0.40524  1.0000
  H   H1255     1.0  0.57313  0.08719  0.38855  1.0000
  H   H1256     1.0  0.54098  0.07216  0.37785  1.0000
  H   H1257     1.0  0.48535  0.11650  0.40254  1.0000
  H   H1258     1.0  0.51755  0.13240  0.41273  1.0000
  C   C1600     1.0  0.39662  0.08733  0.46178  1.0000
  H   H1259     1.0  0.66362  0.09490  0.31526  1.0000
  C   C1601     1.0  0.55820  0.04310  0.44054  1.0000
  H   H1260     1.0  0.44378  0.03701  0.44567  1.0000
  H   H1261     1.0  0.38865  0.01957  0.41523  1.0000
  C   C1602     1.0  0.34460  0.05297  0.24475  1.0000
  C   C1603     1.0  0.37463  0.14137  0.22768  1.0000
  C   C1604     1.0  0.35800  0.09319  0.33774  1.0000
  H   H1262     1.0  0.34241  0.05980  0.43927  1.0000
  H   H1263     1.0  0.53531  0.03509  0.40409  1.0000
  H   H1264     1.0  0.40754  0.01586  0.45057  1.0000
  C   C1605     1.0  0.41549  0.02042  0.45945  1.0000
  H   H1265     1.0  0.42716  0.13307  0.46645  1.0000
  C   C1606     1.0  0.60627  0.11225  0.34010  1.0000
  H   H1266     1.0  0.49542  0.00921  0.45246  1.0000
  H   H1267     1.0  0.39107  0.07895  0.45340  1.0000
  C   C1607     1.0  0.41806  0.99931  0.36866  1.0000
  H   H1268     1.0  0.58130  0.11426  0.29762  1.0000
  C   C1608     1.0  0.33614  0.14844  0.37204  1.0000
  C   C1609     1.0  0.36251  0.05929  0.25194  1.0000
  H   H1269     1.0  0.63540  0.08575  0.34828  1.0000
  H   H1270     1.0  0.46165  0.04949  0.46559  1.0000
  C   C1610     1.0  0.37951  0.01675  0.25627  1.0000
  C   C1611     1.0  0.65204  0.01984  0.36562  1.0000
  C   C1612     1.0  0.36203  0.01043  0.24872  1.0000
  H   H1271     1.0  0.38687  0.14981  0.23272  1.0000
  H   H1272     1.0  0.43295  0.02229  0.32958  1.0000
  Fe  Fe101     1.0  0.64793  0.08685  0.43100  1.0000
  C   C1613     1.0  0.62182  0.12623  0.30926  1.0000
  P   P59       1.0  0.61035  0.10280  0.32241  1.0000
  H   H1273     1.0  0.34852  0.14197  0.38008  1.0000
  C   C1614     1.0  0.33426  0.00007  0.44553  1.0000
  C   C1615     1.0  0.43614  0.03243  0.45662  1.0000
  H   H1274     1.0  0.62260  0.11511  0.45979  1.0000
  C   C1616     1.0  0.64989  0.08210  0.25810  1.0000
  S   S196      1.0  0.43621  0.00386  0.42494  1.0000
  C   C1617     1.0  0.62467  0.05227  0.32291  1.0000
  H   H1275     1.0  0.53974  0.10424  0.43544  1.0000
  H   H1276     1.0  0.57241  0.07975  0.34121  1.0000
  C   C1618     1.0  0.34353  0.04117  0.44442  1.0000
  H   H1277     1.0  0.50911  0.06538  0.41823  1.0000
  C   C1619     1.0  0.64036  0.18084  0.36502  1.0000
  C   C1620     1.0  0.60452  0.02137  0.35880  1.0000
  S   S197      1.0  0.35688  0.09872  0.31901  1.0000
  C   C1621     1.0  0.52634  0.02918  0.41455  1.0000
  C   C1622     1.0  0.59449  0.00679  0.40499  1.0000
  C   C1623     1.0  0.61037  0.04030  0.36528  1.0000
  H   H1278     1.0  0.51460  0.08644  0.31480  1.0000
  C   C1624     1.0  0.51720  0.99676  0.43343  1.0000
  C   C1625     1.0  0.55353  0.06657  0.43338  1.0000
  H   H1279     1.0  0.60577  0.05012  0.32642  1.0000
  C   C1626     1.0  0.34458  0.16163  0.30524  1.0000
  C   C1627     1.0  0.59639  0.12484  0.36810  1.0000
  C   C1628     1.0  0.35459  0.99435  0.31850  1.0000
  C   C1629     1.0  0.54317  0.08599  0.44103  1.0000
  H   H1280     1.0  0.36273  0.07825  0.25314  1.0000
  H   H1281     1.0  0.49017  0.05256  0.44256  1.0000
  C   C1630     1.0  0.33812  0.08671  0.34738  1.0000
  H   H1282     1.0  0.63561  0.01377  0.32163  1.0000
  C   C1631     1.0  0.44637  0.03919  0.46784  1.0000
  C   C1632     1.0  0.44801  0.03016  0.34806  1.0000
  C   C1633     1.0  0.33240  0.02419  0.43906  1.0000
  H   H1283     1.0  0.39257  0.00265  0.26111  1.0000
  C   C1634     1.0  0.57085  0.10487  0.30648  1.0000
  C   C1635     1.0  0.63483  0.16924  0.39056  1.0000
  C   C1636     1.0  0.63502  0.11278  0.46784  1.0000
  H   H1284     1.0  0.64475  0.13480  0.27395  1.0000
  C   C1637     1.0  0.43923  0.03582  0.33464  1.0000
  C   C1638     1.0  0.43803  0.05960  0.32759  1.0000
  C   C1639     1.0  0.44582  0.07786  0.33378  1.0000
  C   C1640     1.0  0.45478  0.07241  0.34704  1.0000
  C   C1641     1.0  0.45582  0.04876  0.35415  1.0000
  C   C1642     1.0  0.58876  0.99427  0.39431  1.0000
  H   H1285     1.0  0.62607  0.09677  0.37295  1.0000
  H   H1286     1.0  0.56726  0.15121  0.36033  1.0000
  C   C1643     1.0  0.50379  0.01431  0.44180  1.0000
  C   C1644     1.0  0.54213  0.08173  0.32919  1.0000
  C   C1645     1.0  0.36298  0.01650  0.31312  1.0000
  P   P60       1.0  0.44758  0.00025  0.35826  1.0000
  H   H1287     1.0  0.39334  0.04613  0.26365  1.0000
  H   H1288     1.0  0.62279  0.16631  0.40044  1.0000
  C   C1646     1.0  0.54278  0.05849  0.46319  1.0000
  H   H1289     1.0  0.40582  0.03839  0.36547  1.0000
  C   C1647     1.0  0.62720  0.14779  0.31339  1.0000
  H   H1290     1.0  0.35253  0.99536  0.38815  1.0000
  C   C1648     1.0  0.37753  0.01912  0.37692  1.0000
  C   C1649     1.0  0.34460  0.02858  0.24274  1.0000
  C   C1650     1.0  0.62822  0.12166  0.29494  1.0000
  C   C1651     1.0  0.66348  0.05018  0.24258  1.0000
  H   H1291     1.0  0.43060  0.06401  0.31743  1.0000
  H   H1292     1.0  0.44448  0.09635  0.32842  1.0000
  H   H1293     1.0  0.46050  0.08658  0.35203  1.0000
  H   H1294     1.0  0.46233  0.04531  0.36458  1.0000
  C   C1652     1.0  0.63929  0.13856  0.28491  1.0000
  C   C1653     1.0  0.56570  0.08559  0.33093  1.0000
  C   C1654     1.0  0.51161  0.04628  0.42253  1.0000
  C   C1655     1.0  0.64153  0.03158  0.32014  1.0000
  C   C1656     1.0  0.34147  0.16709  0.36123  1.0000
  H   H1295     1.0  0.65395  0.17253  0.28143  1.0000
  H   H1296     1.0  0.53085  0.07316  0.33809  1.0000
  H   H1297     1.0  0.62393  0.15127  0.32445  1.0000
  C   C1657     1.0  0.58227  0.13713  0.35757  1.0000
  H   H1298     1.0  0.44835  0.99977  0.38941  1.0000
  C   C1658     1.0  0.62045  0.10005  0.35071  1.0000
  C   C1659     1.0  0.34006  0.11939  0.22952  1.0000
  H   H1299     1.0  0.37830  0.03210  0.34368  1.0000
  H   H1300     1.0  0.62534  0.10466  0.29164  1.0000
  S   S198      1.0  0.35221  0.13124  0.25483  1.0000
  C   C1660     1.0  0.55297  0.03903  0.45539  1.0000
  H   H1301     1.0  0.56593  0.02812  0.43450  1.0000
  H   H1302     1.0  0.59251  0.12953  0.37896  1.0000
  C   C1661     1.0  0.53788  0.08203  0.45588  1.0000
  C   C1662     1.0  0.37988  0.04119  0.25777  1.0000
  C   C1663     1.0  0.47200  0.99655  0.36940  1.0000
  C   C1664     1.0  0.50086  0.03897  0.43628  1.0000
  H   H1303     1.0  0.50051  0.99459  0.35150  1.0000
  C   C1665     1.0  0.61530  0.10626  0.36469  1.0000
  C   C1666     1.0  0.37135  0.03013  0.32222  1.0000
  H   H1304     1.0  0.36236  0.15038  0.30437  1.0000
  C   C1667     1.0  0.49637  0.99503  0.36293  1.0000
  H   H1305     1.0  0.36452  0.03556  0.37794  1.0000
  C   C1668     1.0  0.48609  0.99844  0.39223  1.0000
  H   H1306     1.0  0.54007  0.10684  0.29463  1.0000
  C   C1669     1.0  0.54731  0.10080  0.30474  1.0000
  H   H1307     1.0  0.58591  0.02158  0.35660  1.0000
  H   H1308     1.0  0.48207  0.00031  0.40355  1.0000
  H   H1309     1.0  0.63893  0.05397  0.37366  1.0000
  H   H1310     1.0  0.57670  0.25301  0.22877  1.0000
  H   H1311     1.0  0.57807  0.00395  0.38608  1.0000
  H   H1312     1.0  0.33547  0.14743  0.32708  1.0000
  C   C1670     1.0  0.64654  0.00097  0.35883  1.0000
  C   C1671     1.0  0.63417  0.03952  0.36860  1.0000
  C   C1672     1.0  0.40111  0.02061  0.36992  1.0000
  C   C1673     1.0  0.62488  0.17704  0.37773  1.0000
  H   H1313     1.0  0.63266  0.18683  0.35505  1.0000
  C   C1674     1.0  0.65154  0.07371  0.24475  1.0000
  C   C1675     1.0  0.33980  0.08362  0.36221  1.0000
  H   H1314     1.0  0.35797  0.17521  0.36097  1.0000
  H   H1315     1.0  0.36553  0.04730  0.46002  1.0000
  H   H1316     1.0  0.60517  0.18008  0.37767  1.0000
  H   H1317     1.0  0.55740  0.02084  0.46072  1.0000
  S   S199      1.0  0.61477  0.00874  0.42969  1.0000
  H   H1318     1.0  0.64340  0.18066  0.30672  1.0000
  H   H1319     1.0  0.34839  0.17741  0.28322  1.0000
  C   C1676     1.0  0.37077  0.99651  0.38271  1.0000
  C   C1677     1.0  0.56462  0.29065  0.22146  1.0000
  H   H1320     1.0  0.65946  0.27097  0.22143  1.0000
  C   C1678     1.0  0.66021  0.06714  0.26941  1.0000
  H   H1321     1.0  0.36256  0.02333  0.30191  1.0000
  C   C1679     1.0  0.33666  0.17683  0.29332  1.0000
  H   H1322     1.0  0.52515  0.99624  0.39199  1.0000
  C   C1680     1.0  0.39063  0.00014  0.41845  1.0000
  H   H1323     1.0  0.64115  0.10046  0.25954  1.0000
  H   H1324     1.0  0.64408  0.08597  0.23610  1.0000
  C   C1681     1.0  0.62249  0.00175  0.35558  1.0000
  H   H1325     1.0  0.53048  0.09752  0.46157  1.0000
  C   C1682     1.0  0.64451  0.15993  0.28912  1.0000
  C   C1683     1.0  0.46697  0.99810  0.38415  1.0000
  C   C1684     1.0  0.51031  0.99635  0.38575  1.0000
  H   H1326     1.0  0.54666  0.29085  0.22753  1.0000
  C   C1685     1.0  0.51548  0.99445  0.37115  1.0000
  H   H1327     1.0  0.64499  0.00220  0.24240  1.0000
  C   C1686     1.0  0.66025  0.16479  0.39068  1.0000
  C   C1687     1.0  0.58158  0.26935  0.22219  1.0000
  C   C1688     1.0  0.65942  0.10241  0.46470  1.0000
  C   C1689     1.0  0.66051  0.99359  0.23582  1.0000
  H   H1328     1.0  0.35549  0.99642  0.41265  1.0000
  S   S200      1.0  0.66274  0.05313  0.42043  1.0000
  H   H1329     1.0  0.66151  0.11765  0.37209  1.0000
  Fe  Fe102     1.0  0.65507  0.07566  0.39970  1.0000
  C   C1690     1.0  0.60791  0.99413  0.41584  1.0000
  H   H1330     1.0  0.65510  0.35751  0.21905  1.0000
  C   C1691     1.0  0.34840  0.32989  0.71030  1.0000
  S   S201      1.0  0.64385  0.06421  0.56558  1.0000
  H   H1331     1.0  0.43030  0.01989  0.53109  1.0000
  C   C1692     1.0  0.38254  0.34263  0.68694  1.0000
  S   S202      1.0  0.62266  0.07307  0.53445  1.0000
  H   H1332     1.0  0.60811  0.12938  0.48358  1.0000
  Fe  Fe103     1.0  0.61054  0.08445  0.55616  1.0000
  S   S203      1.0  0.57347  0.07691  0.56715  1.0000
  C   C1693     1.0  0.38990  0.07909  0.47625  1.0000
  H   H1333     1.0  0.37397  0.00500  0.60984  1.0000
  S   S204      1.0  0.62551  0.12015  0.55119  1.0000
  H   H1334     1.0  0.53092  0.04273  0.54290  1.0000
  C   C1694     1.0  0.35532  0.35334  0.70799  1.0000
  Fe  Fe104     1.0  0.44954  0.09829  0.53717  1.0000
  S   S205      1.0  0.41332  0.11926  0.53166  1.0000
  S   S206      1.0  0.48499  0.11363  0.53049  1.0000
  Fe  Fe105     1.0  0.42735  0.05322  0.54994  1.0000
  S   S207      1.0  0.38961  0.07020  0.54557  1.0000
  H   H1335     1.0  0.58031  0.99464  0.47763  1.0000
  Fe  Fe106     1.0  0.40730  0.08458  0.52404  1.0000
  S   S208      1.0  0.38908  0.07791  0.50523  1.0000
  Fe  Fe107     1.0  0.39883  0.10300  0.55365  1.0000
  S   S209      1.0  0.36983  0.12442  0.56792  1.0000
  S   S210      1.0  0.44458  0.06496  0.52792  1.0000
  S   S211      1.0  0.43542  0.08493  0.55965  1.0000
  C   C1695     1.0  0.39733  0.08961  0.48723  1.0000
  C   C1696     1.0  0.41561  0.02148  0.48478  1.0000
  C   C1697     1.0  0.36532  0.10221  0.62632  1.0000
  C   C1698     1.0  0.41074  0.10915  0.48363  1.0000
  H   H1336     1.0  0.41596  0.11786  0.49200  1.0000
  C   C1699     1.0  0.36515  0.11835  0.58741  1.0000
  C   C1700     1.0  0.38956  0.10136  0.59514  1.0000
  C   C1701     1.0  0.38875  0.09442  0.61329  1.0000
  H   H1337     1.0  0.40566  0.09473  0.58830  1.0000
  H   H1338     1.0  0.40490  0.08343  0.61706  1.0000
  C   C1702     1.0  0.48452  0.13513  0.57169  1.0000
  H   H1339     1.0  0.35426  0.14635  0.70089  1.0000
  H   H1340     1.0  0.37783  0.37766  0.69474  1.0000
  C   C1703     1.0  0.64269  0.11779  0.49199  1.0000
  C   C1704     1.0  0.54934  0.08617  0.55651  1.0000
  C   C1705     1.0  0.52641  0.07870  0.56119  1.0000
  C   C1706     1.0  0.50664  0.08664  0.55316  1.0000
  C   C1707     1.0  0.50970  0.10220  0.54040  1.0000
  C   C1708     1.0  0.53274  0.10937  0.53561  1.0000
  C   C1709     1.0  0.55254  0.10134  0.54362  1.0000
  H   H1341     1.0  0.52394  0.06674  0.57105  1.0000
  H   H1342     1.0  0.48901  0.08091  0.55690  1.0000
  H   H1343     1.0  0.53523  0.12141  0.52575  1.0000
  H   H1344     1.0  0.57015  0.10729  0.53994  1.0000
  H   H1345     1.0  0.59850  0.99897  0.52847  1.0000
  C   C1710     1.0  0.59049  0.99894  0.58018  1.0000
  H   H1346     1.0  0.37583  0.02258  0.71015  1.0000
  C   C1711     1.0  0.42720  0.00176  0.53555  1.0000
  H   H1347     1.0  0.33486  0.09471  0.56074  1.0000
  C   C1712     1.0  0.44700  0.13821  0.61683  1.0000
  H   H1348     1.0  0.50493  0.05560  0.52327  1.0000
  C   C1713     1.0  0.43621  0.03351  0.48193  1.0000
  H   H1349     1.0  0.56998  0.11605  0.58730  1.0000
  C   C1714     1.0  0.46910  0.12745  0.58388  1.0000
  H   H1350     1.0  0.48533  0.05111  0.48907  1.0000
  H   H1351     1.0  0.46262  0.07653  0.62352  1.0000
  H   H1352     1.0  0.43002  0.08284  0.64357  1.0000
  H   H1353     1.0  0.34715  0.19037  0.68723  1.0000
  C   C1715     1.0  0.34311  0.02947  0.49393  1.0000
  C   C1716     1.0  0.49472  0.99647  0.53125  1.0000
  C   C1717     1.0  0.60908  0.06188  0.48572  1.0000
  H   H1354     1.0  0.60381  0.02436  0.56287  1.0000
  H   H1355     1.0  0.49799  0.13429  0.49584  1.0000
  H   H1356     1.0  0.45629  0.12276  0.49959  1.0000
  H   H1357     1.0  0.38334  0.30623  0.68171  1.0000
  C   C1718     1.0  0.63343  0.00066  0.57223  1.0000
  H   H1358     1.0  0.34204  0.22060  0.70462  1.0000
  C   C1719     1.0  0.58463  0.07231  0.50767  1.0000
  H   H1359     1.0  0.58372  0.16424  0.69549  1.0000
  C   C1720     1.0  0.65750  0.11046  0.61417  1.0000
  C   C1721     1.0  0.33755  0.11876  0.62414  1.0000
  C   C1722     1.0  0.50746  0.06293  0.60208  1.0000
  C   C1723     1.0  0.50633  0.03699  0.52851  1.0000
  C   C1724     1.0  0.63232  0.00689  0.53408  1.0000
  H   H1360     1.0  0.40807  0.12406  0.64663  1.0000
  H   H1361     1.0  0.43128  0.12507  0.59244  1.0000
  C   C1725     1.0  0.58824  0.05688  0.48062  1.0000
  P   P61       1.0  0.37764  0.00013  0.47714  1.0000
  H   H1362     1.0  0.53344  0.15604  0.62153  1.0000
  C   C1726     1.0  0.49647  0.02918  0.59200  1.0000
  C   C1727     1.0  0.65997  0.10928  0.59929  1.0000
  H   H1363     1.0  0.57141  0.00580  0.57914  1.0000
  Fe  Fe108     1.0  0.64013  0.10699  0.52974  1.0000
  C   C1728     1.0  0.35840  0.31306  0.70062  1.0000
  H   H1364     1.0  0.45546  0.08014  0.58592  1.0000
  C   C1729     1.0  0.64916  0.13080  0.68564  1.0000
  H   H1365     1.0  0.33992  0.03895  0.61118  1.0000
  C   C1730     1.0  0.55351  0.12172  0.59427  1.0000
  C   C1731     1.0  0.41698  0.11779  0.46916  1.0000
  H   H1366     1.0  0.63926  0.13397  0.66428  1.0000
  H   H1367     1.0  0.62394  0.99926  0.47325  1.0000
  H   H1368     1.0  0.55757  0.01752  0.50555  1.0000
  H   H1369     1.0  0.44178  0.15894  0.54925  1.0000
  C   C1732     1.0  0.62754  0.07518  0.68410  1.0000
  C   C1733     1.0  0.61974  0.06684  0.69827  1.0000
  C   C1734     1.0  0.42744  0.99450  0.55018  1.0000
  H   H1370     1.0  0.62445  0.02474  0.53666  1.0000
  C   C1735     1.0  0.37240  0.35961  0.69639  1.0000
  C   C1736     1.0  0.51000  0.12089  0.60162  1.0000
  H   H1371     1.0  0.41884  0.15961  0.62960  1.0000
  C   C1737     1.0  0.35261  0.04160  0.57496  1.0000
  C   C1738     1.0  0.60726  0.06968  0.49921  1.0000
  C   C1739     1.0  0.54488  0.00971  0.50048  1.0000
  H   H1372     1.0  0.57146  0.19693  0.71378  1.0000
  C   C1740     1.0  0.64964  0.06436  0.67733  1.0000
  H   H1373     1.0  0.36096  0.17539  0.59430  1.0000
  H   H1374     1.0  0.64719  0.00877  0.56481  1.0000
  H   H1375     1.0  0.65245  0.17808  0.70667  1.0000
  H   H1376     1.0  0.53275  0.00123  0.55566  1.0000
  C   C1741     1.0  0.37550  0.31939  0.68904  1.0000
  H   H1377     1.0  0.61655  0.09013  0.67837  1.0000
  H   H1378     1.0  0.40771  0.01832  0.49576  1.0000
  Fe  Fe109     1.0  0.65722  0.05561  0.54326  1.0000
  C   C1742     1.0  0.55420  0.13699  0.60461  1.0000
  C   C1743     1.0  0.45945  0.11476  0.61492  1.0000
  H   H1379     1.0  0.53356  0.10477  0.48837  1.0000
  H   H1380     1.0  0.48189  0.02587  0.51576  1.0000
  S   S212      1.0  0.33786  0.06907  0.68117  1.0000
  H   H1381     1.0  0.48665  0.15210  0.54987  1.0000
  C   C1744     1.0  0.53288  0.14420  0.61351  1.0000
  H   H1382     1.0  0.38084  0.13832  0.61306  1.0000
  H   H1383     1.0  0.46393  0.03721  0.58119  1.0000
  S   S213      1.0  0.43286  0.01514  0.56130  1.0000
  H   H1384     1.0  0.34746  0.05148  0.56504  1.0000
  P   P62       1.0  0.53828  0.05385  0.48248  1.0000
  C   C1745     1.0  0.49328  0.02030  0.52433  1.0000
  H   H1385     1.0  0.44349  0.03934  0.49068  1.0000
  H   H1386     1.0  0.50023  0.01032  0.58992  1.0000
  C   C1746     1.0  0.47183  0.10967  0.49625  1.0000
  C   C1747     1.0  0.63401  0.04760  0.70570  1.0000
  H   H1387     1.0  0.50788  0.02169  0.47386  1.0000
  C   C1748     1.0  0.47143  0.06875  0.58964  1.0000
  C   C1749     1.0  0.47460  0.14685  0.55938  1.0000
  C   C1750     1.0  0.53157  0.11371  0.59281  1.0000
  C   C1751     1.0  0.47607  0.04430  0.58710  1.0000
  C   C1752     1.0  0.35506  0.15770  0.59507  1.0000
  C   C1753     1.0  0.36745  0.13436  0.60660  1.0000
  C   C1754     1.0  0.48738  0.07842  0.59683  1.0000
  H   H1388     1.0  0.57126  0.14322  0.60569  1.0000
  C   C1755     1.0  0.42869  0.14159  0.62829  1.0000
  H   H1389     1.0  0.45013  0.08123  0.49593  1.0000
  H   H1390     1.0  0.58301  0.07891  0.51799  1.0000
  C   C1756     1.0  0.46842  0.08619  0.49431  1.0000
  C   C1757     1.0  0.51699  0.01189  0.48274  1.0000
  C   C1758     1.0  0.56385  0.06701  0.50273  1.0000
  C   C1759     1.0  0.36782  0.01506  0.60009  1.0000
  C   C1760     1.0  0.45352  0.09483  0.62477  1.0000
  C   C1761     1.0  0.52201  0.00609  0.54676  1.0000
  P   P63       1.0  0.48174  0.11034  0.59945  1.0000
  H   H1391     1.0  0.49468  0.14198  0.61909  1.0000
  C   C1762     1.0  0.52077  0.02981  0.53968  1.0000
  H   H1392     1.0  0.37914  0.06431  0.47899  1.0000
  C   C1763     1.0  0.44362  0.13144  0.58341  1.0000
  C   C1764     1.0  0.51086  0.13619  0.61205  1.0000
  C   C1765     1.0  0.40488  0.01497  0.47356  1.0000
  H   H1393     1.0  0.53149  0.10185  0.58474  1.0000
  C   C1766     1.0  0.36125  0.00893  0.49387  1.0000
  H   H1394     1.0  0.54652  0.06912  0.50949  1.0000
  H   H1395     1.0  0.59722  0.15504  0.67076  1.0000
  H   H1396     1.0  0.34770  0.36681  0.71513  1.0000
  C   C1767     1.0  0.48855  0.06907  0.49046  1.0000
  H   H1397     1.0  0.38066  0.01740  0.56400  1.0000
  C   C1768     1.0  0.43518  0.09830  0.63622  1.0000
  H   H1398     1.0  0.45120  0.15380  0.60930  1.0000
  C   C1769     1.0  0.51233  0.07531  0.48850  1.0000
  H   H1399     1.0  0.64422  0.10778  0.59411  1.0000
  S   S214      1.0  0.37044  0.09115  0.64407  1.0000
  H   H1400     1.0  0.66102  0.16865  0.62708  1.0000
  H   H1401     1.0  0.33727  0.03913  0.48405  1.0000
  H   H1402     1.0  0.33406  0.03480  0.52958  1.0000
  C   C1770     1.0  0.63319  0.13770  0.67521  1.0000
  C   C1771     1.0  0.60953  0.14953  0.67889  1.0000
  C   C1772     1.0  0.60192  0.15467  0.69296  1.0000
  C   C1773     1.0  0.61792  0.14781  0.70349  1.0000
  C   C1774     1.0  0.64162  0.13592  0.69967  1.0000
  H   H1403     1.0  0.35330  0.07628  0.61083  1.0000
  C   C1775     1.0  0.34977  0.09453  0.60513  1.0000
  C   C1776     1.0  0.44929  0.15067  0.55901  1.0000
  H   H1404     1.0  0.41416  0.14558  0.57067  1.0000
  C   C1777     1.0  0.51205  0.03845  0.59957  1.0000
  H   H1405     1.0  0.51977  0.06975  0.60794  1.0000
  C   C1778     1.0  0.42271  0.12162  0.63794  1.0000
  C   C1779     1.0  0.43378  0.14308  0.57106  1.0000
  H   H1406     1.0  0.63981  0.10970  0.62039  1.0000
  H   H1407     1.0  0.50421  0.13161  0.57138  1.0000
  C   C1780     1.0  0.65721  0.99875  0.53483  1.0000
  H   H1408     1.0  0.52791  0.02677  0.60334  1.0000
  H   H1409     1.0  0.37463  0.17681  0.70994  1.0000
  C   C1781     1.0  0.62684  0.12085  0.48134  1.0000
  C   C1782     1.0  0.33389  0.15364  0.58469  1.0000
  Fe  Fe110     1.0  0.66016  0.09881  0.55901  1.0000
  C   C1783     1.0  0.56542  0.05965  0.48906  1.0000
  C   C1784     1.0  0.53310  0.02293  0.48904  1.0000
  S   S215      1.0  0.63236  0.12934  0.50857  1.0000
  C   C1785     1.0  0.35917  0.00679  0.51976  1.0000
  C   C1786     1.0  0.49536  0.11616  0.49413  1.0000
  H   H1410     1.0  0.39586  0.34750  0.67800  1.0000
  H   H1411     1.0  0.62332  0.07412  0.50298  1.0000
  C   C1787     1.0  0.51553  0.09916  0.49016  1.0000
  C   C1788     1.0  0.37936  0.00889  0.58683  1.0000
  C   C1789     1.0  0.65083  0.21215  0.71474  1.0000
  C   C1790     1.0  0.35749  0.14425  0.71198  1.0000
  C   C1791     1.0  0.60876  0.00939  0.57098  1.0000
  H   H1412     1.0  0.35306  0.29499  0.70202  1.0000
  C   C1792     1.0  0.34075  0.04793  0.58821  1.0000
  C   C1793     1.0  0.37159  0.02205  0.57430  1.0000
  C   C1794     1.0  0.64213  0.19035  0.71388  1.0000
  C   C1795     1.0  0.34857  0.03443  0.60079  1.0000
  C   C1796     1.0  0.66391  0.04509  0.68471  1.0000
  C   C1797     1.0  0.36923  0.99779  0.50692  1.0000
  H   H1413     1.0  0.62657  0.06029  0.47907  1.0000
  H   H1414     1.0  0.60265  0.07538  0.70350  1.0000
  H   H1415     1.0  0.39457  0.99418  0.58618  1.0000
  H   H1416     1.0  0.65453  0.13102  0.70748  1.0000
  C   C1798     1.0  0.35363  0.00107  0.70169  1.0000
  H   H1417     1.0  0.65587  0.07114  0.66640  1.0000
  H   H1418     1.0  0.36610  0.99838  0.52966  1.0000
  H   H1419     1.0  0.34307  0.01674  0.69622  1.0000
  H   H1420     1.0  0.65082  0.02858  0.50795  1.0000
  H   H1421     1.0  0.59006  0.05122  0.47005  1.0000
  Fe  Fe111     1.0  0.33774  0.09558  0.66115  1.0000
  S   S216      1.0  0.33462  0.10264  0.71551  1.0000
  H   H1422     1.0  0.65945  0.06047  0.63541  1.0000
  C   C1799     1.0  0.34118  0.02726  0.51970  1.0000
  C   C1800     1.0  0.65856  0.00072  0.49374  1.0000
  C   C1801     1.0  0.65625  0.03656  0.69896  1.0000
  C   C1802     1.0  0.33310  0.03853  0.50679  1.0000
  C   C1803     1.0  0.36898  0.16148  0.71715  1.0000
  C   C1804     1.0  0.37204  0.00431  0.70957  1.0000
  H   H1423     1.0  0.66348  0.05320  0.60999  1.0000
  C   C1805     1.0  0.66066  0.02314  0.49801  1.0000
  H   H1424     1.0  0.65894  0.99721  0.68307  1.0000
  H   H1425     1.0  0.62762  0.04156  0.71666  1.0000
  Fe  Fe112     1.0  0.61883  0.22446  0.77110  1.0000
  S   S217      1.0  0.64051  0.18765  0.76825  1.0000
  S   S218      1.0  0.57848  0.23731  0.76805  1.0000
  C   C1806     1.0  0.63867  0.12053  0.75708  1.0000
  C   C1807     1.0  0.53544  0.12181  0.85606  1.0000
  C   C1808     1.0  0.57641  0.16102  0.72582  1.0000
  C   C1809     1.0  0.34086  0.33072  0.75073  1.0000
  C   C1810     1.0  0.62076  0.13427  0.95888  1.0000
  C   C1811     1.0  0.62244  0.13268  0.73428  1.0000
  H   H1426     1.0  0.55246  0.06080  0.87529  1.0000
  S   S219      1.0  0.64861  0.24462  0.75874  1.0000
  S   S220      1.0  0.63176  0.22695  0.79221  1.0000
  Fe  Fe113     1.0  0.62936  0.14427  0.88897  1.0000
  S   S221      1.0  0.61390  0.11198  0.88426  1.0000
  C   C1812     1.0  0.48943  0.14048  0.91819  1.0000
  Fe  Fe114     1.0  0.61451  0.13417  0.92168  1.0000
  S   S222      1.0  0.59728  0.10150  0.91935  1.0000
  C   C1813     1.0  0.48216  0.04644  0.86613  1.0000
  Fe  Fe115     1.0  0.63052  0.09272  0.90367  1.0000
  H   H1427     1.0  0.40166  0.16282  0.85325  1.0000
  Fe  Fe116     1.0  0.58237  0.12382  0.90024  1.0000
  S   S223      1.0  0.54407  0.12944  0.89460  1.0000
  H   H1428     1.0  0.45403  0.13222  0.82775  1.0000
  S   S224      1.0  0.59651  0.15750  0.90373  1.0000
  Fe  Fe117     1.0  0.44512  0.18908  0.77330  1.0000
  S   S225      1.0  0.42754  0.15650  0.77075  1.0000
  S   S226      1.0  0.48710  0.18014  0.76952  1.0000
  Fe  Fe118     1.0  0.39438  0.21843  0.78145  1.0000
  S   S227      1.0  0.37395  0.18751  0.77981  1.0000
  S   S228      1.0  0.37487  0.25527  0.78779  1.0000
  Fe  Fe119     1.0  0.40391  0.16392  0.79131  1.0000
  S   S229      1.0  0.39880  0.13064  0.80773  1.0000
  Fe  Fe120     1.0  0.39932  0.18256  0.75951  1.0000
  S   S230      1.0  0.38722  0.18159  0.73755  1.0000
  S   S231      1.0  0.42269  0.19509  0.79448  1.0000
  S   S232      1.0  0.41844  0.21489  0.76056  1.0000
  Fe  Fe121     1.0  0.39418  0.04154  0.90922  1.0000
  H   H1429     1.0  0.64746  0.26200  0.81228  1.0000
  Fe  Fe122     1.0  0.44496  0.05534  0.90550  1.0000
  S   S233      1.0  0.43073  0.09467  0.90725  1.0000
  S   S234      1.0  0.48515  0.04016  0.90351  1.0000
  Fe  Fe123     1.0  0.40413  0.08135  0.92545  1.0000
  H   H1430     1.0  0.51927  0.04925  0.93466  1.0000
  Fe  Fe124     1.0  0.40381  0.09027  0.89250  1.0000
  S   S235      1.0  0.39766  0.12297  0.87543  1.0000
  S   S236      1.0  0.42062  0.04233  0.92482  1.0000
  S   S237      1.0  0.41991  0.05141  0.88961  1.0000
  S   S238      1.0  0.39938  0.10147  0.94508  1.0000
  C   C1814     1.0  0.46783  0.13329  0.80555  1.0000
  C   C1815     1.0  0.52693  0.10713  0.84750  1.0000
  C   C1816     1.0  0.40003  0.12863  0.82644  1.0000
  C   C1817     1.0  0.40134  0.14905  0.83315  1.0000
  C   C1818     1.0  0.40113  0.14683  0.84812  1.0000
  C   C1819     1.0  0.39987  0.12420  0.85654  1.0000
  C   C1820     1.0  0.39920  0.10366  0.84979  1.0000
  C   C1821     1.0  0.39916  0.10591  0.83482  1.0000
  H   H1431     1.0  0.40205  0.16662  0.82685  1.0000
  H   H1432     1.0  0.39805  0.08620  0.85616  1.0000
  H   H1433     1.0  0.39813  0.09002  0.82973  1.0000
  C   C1822     1.0  0.64580  0.03351  0.89519  1.0000
  H   H1434     1.0  0.50154  0.14926  0.90991  1.0000
  C   C1823     1.0  0.55644  0.00504  0.86371  1.0000
  C   C1824     1.0  0.64617  0.14347  0.83435  1.0000
  C   C1825     1.0  0.37336  0.15893  0.73156  1.0000
  C   C1826     1.0  0.36616  0.13894  0.74077  1.0000
  H   H1435     1.0  0.64579  0.24462  0.72522  1.0000
  C   C1827     1.0  0.35458  0.12177  0.73561  1.0000
  H   H1436     1.0  0.36950  0.13677  0.75184  1.0000
  C   C1828     1.0  0.56264  0.18307  0.72078  1.0000
  C   C1829     1.0  0.52922  0.10369  0.89626  1.0000
  C   C1830     1.0  0.50610  0.10645  0.89159  1.0000
  C   C1831     1.0  0.49283  0.08679  0.89365  1.0000
  C   C1832     1.0  0.50263  0.06422  0.90028  1.0000
  C   C1833     1.0  0.52623  0.06111  0.90446  1.0000
  C   C1834     1.0  0.53951  0.08094  0.90256  1.0000
  H   H1437     1.0  0.49816  0.12399  0.88666  1.0000
  H   H1438     1.0  0.47508  0.08901  0.88995  1.0000
  H   H1439     1.0  0.53401  0.04350  0.90938  1.0000
  H   H1440     1.0  0.55745  0.07873  0.90611  1.0000
  C   C1835     1.0  0.35654  0.01670  0.95192  1.0000
  H   H1441     1.0  0.57208  0.11901  0.95298  1.0000
  P   P64       1.0  0.49531  0.11213  0.84382  1.0000
  P   P65       1.0  0.60935  0.15631  0.72140  1.0000
  H   H1442     1.0  0.62175  0.10301  0.72195  1.0000
  C   C1836     1.0  0.53928  0.14831  0.73934  1.0000
  C   C1837     1.0  0.55332  0.22076  0.76920  1.0000
  C   C1838     1.0  0.52934  0.23351  0.77043  1.0000
  C   C1839     1.0  0.50881  0.22137  0.77087  1.0000
  C   C1840     1.0  0.51205  0.19631  0.76994  1.0000
  C   C1841     1.0  0.53602  0.18349  0.76891  1.0000
  C   C1842     1.0  0.55653  0.19561  0.76854  1.0000
  H   H1443     1.0  0.52662  0.25298  0.77091  1.0000
  H   H1444     1.0  0.49053  0.23149  0.77167  1.0000
  H   H1445     1.0  0.53877  0.16410  0.76821  1.0000
  H   H1446     1.0  0.57482  0.18562  0.76739  1.0000
  H   H1447     1.0  0.53824  0.04095  0.85698  1.0000
  Fe  Fe125     1.0  0.65498  0.19124  0.78879  1.0000
  H   H1448     1.0  0.63525  0.29187  0.82989  1.0000
  C   C1843     1.0  0.59366  0.25531  0.82212  1.0000
  C   C1844     1.0  0.56731  0.08278  0.84540  1.0000
  C   C1845     1.0  0.57246  0.02767  0.88463  1.0000
  H   H1449     1.0  0.64028  0.13079  0.85684  1.0000
  C   C1846     1.0  0.64307  0.09621  0.75430  1.0000
  H   H1450     1.0  0.40333  0.00292  0.88690  1.0000
  C   C1847     1.0  0.56360  0.23960  0.80508  1.0000
  C   C1848     1.0  0.58828  0.26929  0.80929  1.0000
  C   C1849     1.0  0.47024  0.12897  0.82015  1.0000
  S   S239      1.0  0.37567  0.08011  0.91099  1.0000
  C   C1850     1.0  0.54971  0.03011  0.86442  1.0000
  H   H1451     1.0  0.53661  0.07545  0.83612  1.0000
  C   C1851     1.0  0.50257  0.16944  0.96223  1.0000
  C   C1852     1.0  0.55974  0.11702  0.85913  1.0000
  H   H1452     1.0  0.59440  0.09387  0.85638  1.0000
  H   H1453     1.0  0.58951  0.11106  0.82056  1.0000
  H   H1454     1.0  0.65500  0.20113  0.82038  1.0000
  C   C1853     1.0  0.54301  0.08742  0.84235  1.0000
  H   H1455     1.0  0.59274  0.19613  0.73939  1.0000
  H   H1456     1.0  0.56616  0.12820  0.86586  1.0000
  H   H1457     1.0  0.60816  0.23451  0.74057  1.0000
  H   H1458     1.0  0.52694  0.06472  0.80371  1.0000
  S   S240      1.0  0.64442  0.17208  0.87168  1.0000
  C   C1854     1.0  0.46184  0.07912  0.84449  1.0000
  C   C1855     1.0  0.63706  0.04082  0.88193  1.0000
  C   C1856     1.0  0.51400  0.11762  0.81468  1.0000
  H   H1459     1.0  0.45319  0.09157  0.83636  1.0000
  H   H1460     1.0  0.63669  0.10103  0.95017  1.0000
  C   C1857     1.0  0.49190  0.06805  0.86125  1.0000
  C   C1858     1.0  0.52522  0.16649  0.96771  1.0000
  H   H1461     1.0  0.45425  0.02477  0.86443  1.0000
  C   C1859     1.0  0.48219  0.08438  0.85016  1.0000
  C   C1860     1.0  0.63993  0.00074  0.74895  1.0000
  C   C1861     1.0  0.51157  0.12242  0.80007  1.0000
  H   H1462     1.0  0.62523  0.15740  0.74939  1.0000
  H   H1463     1.0  0.53214  0.11223  0.81784  1.0000
  C   C1862     1.0  0.48842  0.12968  0.79552  1.0000
  H   H1464     1.0  0.37569  0.06004  0.95881  1.0000
  C   C1863     1.0  0.56524  0.05906  0.95894  1.0000
  C   C1864     1.0  0.46212  0.04127  0.86034  1.0000
  C   C1865     1.0  0.46415  0.14740  0.91857  1.0000
  H   H1465     1.0  0.35535  0.33784  0.81198  1.0000
  H   H1466     1.0  0.35851  0.09849  0.77188  1.0000
  C   C1866     1.0  0.34524  0.23930  0.73909  1.0000
  H   H1467     1.0  0.56242  0.17014  0.93605  1.0000
  H   H1468     1.0  0.34600  0.30166  0.79231  1.0000
  H   H1469     1.0  0.55209  0.23380  0.79826  1.0000
  C   C1867     1.0  0.62641  0.10813  0.73170  1.0000
  C   C1868     1.0  0.35783  0.27924  0.73249  1.0000
  H   H1470     1.0  0.48989  0.03386  0.87462  1.0000
  H   H1471     1.0  0.48643  0.13304  0.78421  1.0000
  C   C1869     1.0  0.60878  0.20044  0.73226  1.0000
  H   H1472     1.0  0.56944  0.27192  0.79066  1.0000
  C   C1870     1.0  0.34669  0.26974  0.78183  1.0000
  C   C1871     1.0  0.63685  0.09000  0.74164  1.0000
  C   C1872     1.0  0.33627  0.29272  0.78595  1.0000
  H   H1473     1.0  0.58905  0.22295  0.83627  1.0000
  C   C1873     1.0  0.55915  0.02082  0.82514  1.0000
  C   C1874     1.0  0.55774  0.04140  0.87479  1.0000
  C   C1875     1.0  0.37917  0.00573  0.95619  1.0000
  H   H1474     1.0  0.56945  0.04418  0.80599  1.0000
  H   H1475     1.0  0.35426  0.03554  0.94712  1.0000
  H   H1476     1.0  0.42869  0.14074  0.92929  1.0000
  C   C1876     1.0  0.34166  0.34513  0.76154  1.0000
  C   C1877     1.0  0.62309  0.03773  0.94073  1.0000
  C   C1878     1.0  0.50153  0.17298  0.94745  1.0000
  H   H1477     1.0  0.52759  0.12070  0.79221  1.0000
  H   H1478     1.0  0.37232  0.29055  0.73062  1.0000
  S   S241      1.0  0.65089  0.05479  0.90599  1.0000
  C   C1879     1.0  0.51600  0.02599  0.83401  1.0000
  C   C1880     1.0  0.36363  0.25421  0.73662  1.0000
  H   H1479     1.0  0.52235  0.17601  0.92656  1.0000
  H   H1480     1.0  0.44914  0.06461  0.95974  1.0000
  C   C1881     1.0  0.53060  0.05065  0.81251  1.0000
  H   H1481     1.0  0.50788  0.01053  0.92988  1.0000
  C   C1882     1.0  0.34656  0.11000  0.77899  1.0000
  H   H1482     1.0  0.45676  0.16132  0.91058  1.0000
  H   H1483     1.0  0.56454  0.16307  0.96207  1.0000
  H   H1484     1.0  0.43590  0.05403  0.84533  1.0000
  S   S242      1.0  0.61132  0.15024  0.94268  1.0000
  C   C1883     1.0  0.62969  0.02767  0.95419  1.0000
  H   H1485     1.0  0.34908  0.10633  0.74278  1.0000
  C   C1884     1.0  0.52307  0.17348  0.93802  1.0000
  C   C1885     1.0  0.63290  0.11030  0.95966  1.0000
  H   H1486     1.0  0.57455  0.12647  0.73919  1.0000
  C   C1886     1.0  0.61700  0.02285  0.93151  1.0000
  C   C1887     1.0  0.53988  0.01392  0.83526  1.0000
  Fe  Fe126     1.0  0.66345  0.24401  0.77961  1.0000
  C   C1888     1.0  0.57324  0.26142  0.80078  1.0000
  S   S243      1.0  0.64902  0.12400  0.90726  1.0000
  C   C1889     1.0  0.58427  0.23335  0.82638  1.0000
  S   S244      1.0  0.37439  0.00866  0.91424  1.0000
  H   H1487     1.0  0.52342  0.13665  0.86066  1.0000
  H   H1488     1.0  0.44996  0.13955  0.80200  1.0000
  C   C1890     1.0  0.65176  0.18581  0.82831  1.0000
  C   C1891     1.0  0.57568  0.09761  0.85379  1.0000
  C   C1892     1.0  0.63048  0.00248  0.95845  1.0000
  H   H1489     1.0  0.63380  0.03969  0.96126  1.0000
  H   H1490     1.0  0.59610  0.28599  0.80580  1.0000
  H   H1491     1.0  0.43810  0.02618  0.95477  1.0000
  H   H1492     1.0  0.34172  0.24069  0.77038  1.0000
  H   H1493     1.0  0.62292  0.05706  0.93731  1.0000
  C   C1893     1.0  0.56447  0.14354  0.73504  1.0000
  H   H1494     1.0  0.57954  0.06736  0.84153  1.0000
  C   C1894     1.0  0.55449  0.03906  0.81380  1.0000
  H   H1495     1.0  0.44554  0.10892  0.94730  1.0000
  C   C1895     1.0  0.62829  0.13867  0.74713  1.0000
  C   C1896     1.0  0.49320  0.12020  0.82487  1.0000
  C   C1897     1.0  0.61818  0.99779  0.93553  1.0000
  H   H1496     1.0  0.57780  0.01218  0.82602  1.0000
  H   H1497     1.0  0.61185  0.03068  0.92109  1.0000
  C   C1898     1.0  0.62085  0.18441  0.72253  1.0000
  C   C1899     1.0  0.64968  0.18838  0.84297  1.0000
  C   C1900     1.0  0.47833  0.13711  0.85273  1.0000
  C   C1901     1.0  0.46224  0.13281  0.86521  1.0000
  C   C1902     1.0  0.44915  0.15238  0.87197  1.0000
  C   C1903     1.0  0.45167  0.17633  0.86618  1.0000
  C   C1904     1.0  0.46753  0.18075  0.85369  1.0000
  C   C1905     1.0  0.48095  0.16121  0.84703  1.0000
  H   H1498     1.0  0.50680  0.07209  0.86632  1.0000
  H   H1499     1.0  0.45936  0.11448  0.86969  1.0000
  H   H1500     1.0  0.43651  0.14886  0.88151  1.0000
  H   H1501     1.0  0.44102  0.19139  0.87129  1.0000
  H   H1502     1.0  0.46919  0.19932  0.84907  1.0000
  H   H1503     1.0  0.49315  0.16487  0.83736  1.0000
  C   C1906     1.0  0.59625  0.15697  0.79360  1.0000
  C   C1907     1.0  0.59852  0.13340  0.80084  1.0000
  C   C1908     1.0  0.58763  0.12929  0.81491  1.0000
  C   C1909     1.0  0.57464  0.14879  0.82175  1.0000
  C   C1910     1.0  0.57314  0.17270  0.81474  1.0000
  C   C1911     1.0  0.58377  0.17663  0.80052  1.0000
  P   P66       1.0  0.55554  0.19762  0.82349  1.0000
  C   C1912     1.0  0.55523  0.19010  0.84263  1.0000
  C   C1913     1.0  0.56905  0.22530  0.81790  1.0000
  C   C1914     1.0  0.33400  0.25840  0.77357  1.0000
  C   C1915     1.0  0.34160  0.01146  0.88408  1.0000
  C   C1916     1.0  0.64347  0.14619  0.84899  1.0000
  C   C1917     1.0  0.57720  0.18091  0.84846  1.0000
  C   C1918     1.0  0.57740  0.17643  0.86327  1.0000
  C   C1919     1.0  0.55565  0.18052  0.87236  1.0000
  C   C1920     1.0  0.53357  0.18868  0.86667  1.0000
  C   C1921     1.0  0.53333  0.19359  0.85186  1.0000
  C   C1922     1.0  0.52487  0.20329  0.81841  1.0000
  C   C1923     1.0  0.51642  0.18699  0.81087  1.0000
  C   C1924     1.0  0.49286  0.19214  0.80666  1.0000
  C   C1925     1.0  0.47768  0.21357  0.80982  1.0000
  C   C1926     1.0  0.48598  0.22991  0.81726  1.0000
  C   C1927     1.0  0.50951  0.22485  0.82150  1.0000
  H   H1504     1.0  0.60450  0.16004  0.78268  1.0000
  H   H1505     1.0  0.60897  0.11843  0.79558  1.0000
  C   C1928     1.0  0.45189  0.05767  0.84957  1.0000
  H   H1506     1.0  0.56600  0.14521  0.83255  1.0000
  H   H1507     1.0  0.58250  0.19478  0.79473  1.0000
  C   C1929     1.0  0.63468  0.02319  0.87321  1.0000
  H   H1508     1.0  0.53015  0.13514  0.74674  1.0000
  H   H1509     1.0  0.59432  0.17772  0.84156  1.0000
  H   H1510     1.0  0.59443  0.16975  0.86774  1.0000
  H   H1511     1.0  0.55589  0.17707  0.88384  1.0000
  H   H1512     1.0  0.51667  0.19122  0.87378  1.0000
  H   H1513     1.0  0.51607  0.20017  0.84774  1.0000
  H   H1514     1.0  0.52800  0.17055  0.80799  1.0000
  H   H1515     1.0  0.48655  0.17986  0.80057  1.0000
  H   H1516     1.0  0.45965  0.21772  0.80626  1.0000
  H   H1517     1.0  0.47432  0.24671  0.81949  1.0000
  H   H1518     1.0  0.51589  0.23789  0.82704  1.0000
  C   C1930     1.0  0.54678  0.16637  0.95814  1.0000
  H   H1519     1.0  0.35091  0.31248  0.75146  1.0000
  H   H1520     1.0  0.51859  0.11585  0.92710  1.0000
  C   C1931     1.0  0.61752  0.22225  0.73304  1.0000
  H   H1521     1.0  0.46754  0.99873  0.93997  1.0000
  C   C1932     1.0  0.64681  0.00077  0.73423  1.0000
  C   C1933     1.0  0.57666  0.07995  0.95728  1.0000
  C   C1934     1.0  0.56317  0.10286  0.95412  1.0000
  C   C1935     1.0  0.53832  0.10492  0.95246  1.0000
  C   C1936     1.0  0.52683  0.08402  0.95371  1.0000
  C   C1937     1.0  0.54031  0.06111  0.95750  1.0000
  P   P67       1.0  0.49435  0.08691  0.95242  1.0000
  C   C1938     1.0  0.48325  0.11054  0.93893  1.0000
  C   C1939     1.0  0.48575  0.05910  0.94829  1.0000
  C   C1940     1.0  0.46255  0.05264  0.95361  1.0000
  C   C1941     1.0  0.45620  0.03073  0.95083  1.0000
  C   C1942     1.0  0.47274  0.01530  0.94253  1.0000
  C   C1943     1.0  0.49559  0.02189  0.93692  1.0000
  C   C1944     1.0  0.50191  0.04393  0.93957  1.0000
  C   C1945     1.0  0.45793  0.11763  0.93919  1.0000
  C   C1946     1.0  0.44838  0.13590  0.92907  1.0000
  H   H1522     1.0  0.53167  0.04477  0.95943  1.0000
  H   H1523     1.0  0.46855  0.13176  0.96388  1.0000
  C   C1947     1.0  0.49903  0.12171  0.92811  1.0000
  C   C1948     1.0  0.38172  0.06844  0.96701  1.0000
  H   H1524     1.0  0.34973  0.22004  0.74259  1.0000
  C   C1949     1.0  0.63857  0.22807  0.72431  1.0000
  C   C1950     1.0  0.51138  0.04417  0.82265  1.0000
  H   H1525     1.0  0.39416  0.01637  0.95475  1.0000
  C   C1951     1.0  0.35008  0.12437  0.72123  1.0000
  C   C1952     1.0  0.65054  0.16318  0.82396  1.0000
  H   H1526     1.0  0.57902  0.03646  0.89254  1.0000
  H   H1527     1.0  0.50649  0.17444  0.73823  1.0000
  H   H1528     1.0  0.52802  0.12282  0.95035  1.0000
  H   H1529     1.0  0.48404  0.17505  0.94328  1.0000
  C   C1953     1.0  0.64570  0.16853  0.85338  1.0000
  C   C1954     1.0  0.54566  0.17017  0.94337  1.0000
  C   C1955     1.0  0.65140  0.00863  0.89989  1.0000
  H   H1530     1.0  0.36780  0.99517  0.86808  1.0000
  H   H1531     1.0  0.60531  0.26129  0.82875  1.0000
  C   C1956     1.0  0.64031  0.99828  0.87795  1.0000
  H   H1532     1.0  0.63288  0.05999  0.87822  1.0000
  H   H1533     1.0  0.64509  0.12595  0.83104  1.0000
  H   H1534     1.0  0.62850  0.02879  0.86280  1.0000
  C   C1957     1.0  0.52586  0.17049  0.73451  1.0000
  H   H1535     1.0  0.57564  0.04126  0.96137  1.0000
  C   C1958     1.0  0.35225  0.11055  0.79279  1.0000
  H   H1536     1.0  0.50092  0.02148  0.84183  1.0000
  H   H1537     1.0  0.38235  0.24628  0.73805  1.0000
  C   C1959     1.0  0.39445  0.08840  0.96311  1.0000
  C   C1960     1.0  0.33348  0.28954  0.73093  1.0000
  S   S245      1.0  0.65568  0.15851  0.80573  1.0000
  H   H1538     1.0  0.64043  0.07120  0.73943  1.0000
  H   H1539     1.0  0.49287  0.05331  0.82174  1.0000
  H   H1540     1.0  0.65841  0.00291  0.91008  1.0000
  H   H1541     1.0  0.36868  0.09963  0.79637  1.0000
  H   H1542     1.0  0.66072  0.29166  0.84940  1.0000
  C   C1961     1.0  0.53750  0.18780  0.72518  1.0000
  H   H1543     1.0  0.35236  0.33792  0.77028  1.0000
  H   H1544     1.0  0.65154  0.08227  0.76190  1.0000
  H   H1545     1.0  0.64373  0.12548  0.76680  1.0000
  H   H1546     1.0  0.59588  0.07853  0.95857  1.0000
  C   C1962     1.0  0.65148  0.27851  0.83086  1.0000
  H   H1547     1.0  0.34190  0.12627  0.81250  1.0000
  H   H1548     1.0  0.34772  0.02920  0.88165  1.0000
  H   H1549     1.0  0.33983  0.23789  0.81443  1.0000
  H   H1550     1.0  0.65127  0.20578  0.84625  1.0000
  H   H1551     1.0  0.52710  0.20513  0.72163  1.0000
  C   C1963     1.0  0.65830  0.26165  0.82097  1.0000
  C   C1964     1.0  0.33705  0.00327  0.95348  1.0000
  C   C1965     1.0  0.57875  0.00259  0.88424  1.0000
  C   C1966     1.0  0.33707  0.12562  0.80190  1.0000
  C   C1967     1.0  0.33555  0.34032  0.81257  1.0000
  H   H1552     1.0  0.64760  0.01205  0.76845  1.0000
  C   C1968     1.0  0.65281  0.01226  0.75703  1.0000
  H   H1553     1.0  0.33354  0.37356  0.79802  1.0000
  H   H1554     1.0  0.33209  0.30804  0.82733  1.0000
  H   H1555     1.0  0.35960  0.63336  0.16671  1.0000
  S   S246      1.0  0.64216  0.76517  0.18832  1.0000
  Fe  Fe127     1.0  0.62548  0.80550  0.15307  1.0000
  S   S247      1.0  0.62331  0.76530  0.15663  1.0000
  S   S248      1.0  0.61002  0.83224  0.13502  1.0000
  Fe  Fe128     1.0  0.60597  0.77287  0.17870  1.0000
  S   S249      1.0  0.56982  0.76054  0.18964  1.0000
  S   S250      1.0  0.60722  0.81329  0.17488  1.0000
  Fe  Fe129     1.0  0.59266  0.89495  0.03162  1.0000
  S   S251      1.0  0.55293  0.90875  0.03059  1.0000
  S   S252      1.0  0.61323  0.89817  0.04984  1.0000
  S   S253      1.0  0.61829  0.91252  0.01467  1.0000
  Fe  Fe130     1.0  0.43715  0.73900  0.16883  1.0000
  S   S254      1.0  0.41498  0.77517  0.17279  1.0000
  S   S255      1.0  0.47899  0.73437  0.16255  1.0000
  Fe  Fe131     1.0  0.38948  0.71555  0.16878  1.0000
  S   S256      1.0  0.36487  0.75068  0.17217  1.0000
  S   S257      1.0  0.37631  0.67882  0.16832  1.0000
  Fe  Fe132     1.0  0.39254  0.76835  0.15610  1.0000
  S   S258      1.0  0.38395  0.80034  0.13915  1.0000
  Fe  Fe133     1.0  0.38957  0.75417  0.18846  1.0000
  H   H1556     1.0  0.34752  0.76494  0.13813  1.0000
  S   S259      1.0  0.41543  0.73304  0.15145  1.0000
  S   S260      1.0  0.41334  0.71808  0.18572  1.0000
  Fe  Fe134     1.0  0.40297  0.87294  0.04158  1.0000
  S   S261      1.0  0.38553  0.84237  0.03587  1.0000
  S   S262      1.0  0.38370  0.91149  0.03775  1.0000
  Fe  Fe135     1.0  0.44871  0.83929  0.04935  1.0000
  S   S263      1.0  0.43535  0.80677  0.04357  1.0000
  S   S264      1.0  0.48428  0.83191  0.05894  1.0000
  Fe  Fe136     1.0  0.42269  0.83092  0.02420  1.0000
  S   S265      1.0  0.43502  0.81999  0.00171  1.0000
  Fe  Fe137     1.0  0.39996  0.82130  0.05584  1.0000
  S   S266      1.0  0.38319  0.79399  0.07278  1.0000
  S   S267      1.0  0.43933  0.86247  0.02911  1.0000
  S   S268      1.0  0.41401  0.85295  0.06239  1.0000
  C   C1969     1.0  0.38585  0.79781  0.12062  1.0000
  C   C1970     1.0  0.38724  0.77529  0.11549  1.0000
  C   C1971     1.0  0.38658  0.77426  0.10080  1.0000
  C   C1972     1.0  0.38547  0.79563  0.09105  1.0000
  C   C1973     1.0  0.38498  0.81804  0.09614  1.0000
  C   C1974     1.0  0.38488  0.81913  0.11086  1.0000
  H   H1557     1.0  0.38846  0.75874  0.12286  1.0000
  H   H1558     1.0  0.38708  0.75683  0.09698  1.0000
  H   H1559     1.0  0.38369  0.83464  0.08882  1.0000
  H   H1560     1.0  0.38373  0.83661  0.11470  1.0000
  H   H1561     1.0  0.63275  0.81679  0.98095  1.0000
  C   C1975     1.0  0.34470  0.71063  0.09889  1.0000
  C   C1976     1.0  0.40916  0.91688  0.96888  1.0000
  S   S269      1.0  0.65067  0.85928  0.99154  1.0000
  C   C1977     1.0  0.45010  0.86587  0.08813  1.0000
  H   H1562     1.0  0.54117  0.98677  0.00655  1.0000
  C   C1978     1.0  0.64486  0.97079  0.04077  1.0000
  H   H1563     1.0  0.56157  0.65026  0.12670  1.0000
  H   H1564     1.0  0.52665  0.66899  0.14268  1.0000
  C   C1979     1.0  0.35584  0.94057  0.08684  1.0000
  H   H1565     1.0  0.62774  0.72899  0.10389  1.0000
  C   C1980     1.0  0.36913  0.62760  0.12273  1.0000
  C   C1981     1.0  0.39474  0.83156  0.98620  1.0000
  C   C1982     1.0  0.42021  0.82604  0.98590  1.0000
  H   H1566     1.0  0.49062  0.75527  0.97556  1.0000
  C   C1983     1.0  0.46838  0.88022  0.08275  1.0000
  C   C1984     1.0  0.64258  0.80549  0.09203  1.0000
  H   H1567     1.0  0.38338  0.83254  0.99634  1.0000
  C   C1985     1.0  0.42476  0.98494  0.97675  1.0000
  C   C1986     1.0  0.36870  0.67357  0.13130  1.0000
  C   C1987     1.0  0.39530  0.93454  0.04452  1.0000
  C   C1988     1.0  0.41534  0.92911  0.05240  1.0000
  C   C1989     1.0  0.42378  0.94786  0.05795  1.0000
  C   C1990     1.0  0.62104  0.85685  0.08675  1.0000
  H   H1568     1.0  0.41772  0.88336  0.12517  1.0000
  C   C1991     1.0  0.38413  0.95880  0.04199  1.0000
  H   H1569     1.0  0.42421  0.91049  0.05429  1.0000
  H   H1570     1.0  0.43947  0.94374  0.06382  1.0000
  H   H1571     1.0  0.61612  0.87275  0.07932  1.0000
  H   H1572     1.0  0.36869  0.96310  0.03585  1.0000
  C   C1992     1.0  0.53401  0.88763  0.03911  1.0000
  C   C1993     1.0  0.54397  0.86512  0.04584  1.0000
  C   C1994     1.0  0.52857  0.84807  0.05212  1.0000
  C   C1995     1.0  0.50330  0.85346  0.05150  1.0000
  C   C1996     1.0  0.49327  0.87625  0.04521  1.0000
  C   C1997     1.0  0.50860  0.89342  0.03917  1.0000
  H   H1573     1.0  0.56348  0.86082  0.04623  1.0000
  H   H1574     1.0  0.53629  0.83053  0.05719  1.0000
  H   H1575     1.0  0.47367  0.88074  0.04513  1.0000
  H   H1576     1.0  0.50073  0.91101  0.03434  1.0000
  C   C1998     1.0  0.54441  0.75447  0.18172  1.0000
  C   C1999     1.0  0.52137  0.75438  0.18996  1.0000
  C   C2000     1.0  0.50098  0.74889  0.18424  1.0000
  C   C2001     1.0  0.50349  0.74292  0.17024  1.0000
  C   C2002     1.0  0.52661  0.74272  0.16209  1.0000
  C   C2003     1.0  0.54686  0.74863  0.16771  1.0000
  H   H1577     1.0  0.51925  0.75859  0.20087  1.0000
  H   H1578     1.0  0.48344  0.74891  0.19073  1.0000
  H   H1579     1.0  0.52887  0.73765  0.15139  1.0000
  H   H1580     1.0  0.56449  0.74809  0.16133  1.0000
  C   C2004     1.0  0.61327  0.85753  0.10486  1.0000
  H   H1581     1.0  0.60284  0.87382  0.10873  1.0000
  C   C2005     1.0  0.62627  0.96839  0.05216  1.0000
  H   H1582     1.0  0.62026  0.95083  0.05561  1.0000
  H   H1583     1.0  0.46774  0.80246  0.08617  1.0000
  C   C2006     1.0  0.39921  0.98990  0.11689  1.0000
  C   C2007     1.0  0.50147  0.97901  0.03876  1.0000
  C   C2008     1.0  0.41217  0.97199  0.05576  1.0000
  C   C2009     1.0  0.45015  0.98478  0.97618  1.0000
  C   C2010     1.0  0.62548  0.70716  0.12448  1.0000
  H   H1584     1.0  0.44682  0.82511  0.14266  1.0000
  H   H1585     1.0  0.35043  0.50636  0.12121  1.0000
  C   C2011     1.0  0.39828  0.96486  0.09820  1.0000
  H   H1586     1.0  0.52986  0.95512  0.02784  1.0000
  H   H1587     1.0  0.65931  0.75186  0.10944  1.0000
  C   C2012     1.0  0.53185  0.91193  0.06849  1.0000
  C   C2013     1.0  0.55447  0.90972  0.07368  1.0000
  C   C2014     1.0  0.56661  0.93004  0.07255  1.0000
  C   C2015     1.0  0.55641  0.95247  0.06586  1.0000
  C   C2016     1.0  0.53437  0.95450  0.05986  1.0000
  C   C2017     1.0  0.52177  0.93427  0.06160  1.0000
  S   S270      1.0  0.65945  0.94568  0.03195  1.0000
  C   C2018     1.0  0.63824  0.66304  0.17827  1.0000
  S   S271      1.0  0.60988  0.85687  0.02838  1.0000
  H   H1588     1.0  0.50329  0.94483  0.01147  1.0000
  H   H1589     1.0  0.63878  0.79003  0.11771  1.0000
  H   H1590     1.0  0.35507  0.95568  0.09292  1.0000
  H   H1591     1.0  0.46120  0.85429  0.12551  1.0000
  H   H1592     1.0  0.35811  0.73220  0.12244  1.0000
  C   C2019     1.0  0.35716  0.89221  0.12044  1.0000
  C   C2020     1.0  0.34378  0.64732  0.16635  1.0000
  C   C2021     1.0  0.63480  0.80613  0.11025  1.0000
  C   C2022     1.0  0.57369  0.68406  0.15747  1.0000
  H   H1593     1.0  0.45319  0.84660  0.08699  1.0000
  H   H1594     1.0  0.51543  0.80006  0.16011  1.0000
  H   H1595     1.0  0.61056  0.94922  0.99052  1.0000
  H   H1596     1.0  0.61130  0.72529  0.19150  1.0000
  H   H1597     1.0  0.64578  0.64538  0.17497  1.0000
  C   C2023     1.0  0.63416  0.70202  0.13794  1.0000
  C   C2024     1.0  0.59905  0.81257  0.97333  1.0000
  H   H1598     1.0  0.52256  0.89610  0.06930  1.0000
  H   H1599     1.0  0.56278  0.89218  0.07834  1.0000
  H   H1600     1.0  0.58415  0.92833  0.07660  1.0000
  H   H1601     1.0  0.56593  0.96812  0.06515  1.0000
  H   H1602     1.0  0.50445  0.93554  0.05737  1.0000
  C   C2025     1.0  0.61917  0.70806  0.18771  1.0000
  C   C2026     1.0  0.40730  0.89071  0.99141  1.0000
  H   H1603     1.0  0.60293  0.98852  0.02453  1.0000
  C   C2027     1.0  0.63832  0.62671  0.14958  1.0000
  H   H1604     1.0  0.56950  0.96665  0.03669  1.0000
  C   C2028     1.0  0.38390  0.83536  0.97333  1.0000
  H   H1605     1.0  0.39849  0.61552  0.13581  1.0000
  H   H1606     1.0  0.50353  0.91123  0.10780  1.0000
  C   C2029     1.0  0.34657  0.67170  0.16715  1.0000
  C   C2030     1.0  0.63075  0.68959  0.19694  1.0000
  C   C2031     1.0  0.36044  0.80868  0.21156  1.0000
  H   H1607     1.0  0.38306  0.88221  0.08375  1.0000
  C   C2032     1.0  0.42287  0.90169  0.09531  1.0000
  C   C2033     1.0  0.40757  0.89390  0.97655  1.0000
  H   H1608     1.0  0.62329  0.90705  0.98406  1.0000
  H   H1609     1.0  0.42623  0.82884  0.16699  1.0000
  C   C2034     1.0  0.36540  0.86206  0.14072  1.0000
  H   H1610     1.0  0.33253  0.73150  0.20025  1.0000
  Fe  Fe138     1.0  0.63743  0.87469  0.01262  1.0000
  C   C2035     1.0  0.59367  0.67339  0.14857  1.0000
  H   H1611     1.0  0.46120  0.88296  0.97162  1.0000
  C   C2036     1.0  0.61740  0.70425  0.17367  1.0000
  H   H1612     1.0  0.51685  0.76402  0.12149  1.0000
  H   H1613     1.0  0.35916  0.84871  0.14927  1.0000
  H   H1614     1.0  0.46333  0.89716  0.11606  1.0000
  H   H1615     1.0  0.40288  0.85386  0.14503  1.0000
  C   C2037     1.0  0.60648  0.98857  0.98614  1.0000
  C   C2038     1.0  0.58907  0.66128  0.13741  1.0000
  C   C2039     1.0  0.54230  0.91437  0.97228  1.0000
  H   H1616     1.0  0.45428  0.82032  0.97229  1.0000
  H   H1617     1.0  0.40598  0.87293  0.99742  1.0000
  Fe  Fe139     1.0  0.64459  0.80514  0.18256  1.0000
  H   H1618     1.0  0.44273  0.99190  0.03052  1.0000
  C   C2040     1.0  0.56680  0.98642  0.03563  1.0000
  C   C2041     1.0  0.54533  0.67012  0.14430  1.0000
  S   S272      1.0  0.37405  0.75858  0.21158  1.0000
  H   H1619     1.0  0.60812  0.71873  0.16674  1.0000
  C   C2042     1.0  0.38558  0.65381  0.13603  1.0000
  C   C2043     1.0  0.33345  0.51884  0.12109  1.0000
  H   H1620     1.0  0.37608  0.74386  0.06421  1.0000
  C   C2044     1.0  0.44148  0.91596  0.08999  1.0000
  C   C2045     1.0  0.57387  0.81207  0.97684  1.0000
  H   H1621     1.0  0.54484  0.81705  0.14153  1.0000
  C   C2046     1.0  0.55923  0.98720  0.00072  1.0000
  H   H1622     1.0  0.44978  0.81802  0.18784  1.0000
  P   P68       1.0  0.62481  0.67689  0.15057  1.0000
  C   C2047     1.0  0.63534  0.83069  0.08042  1.0000
  C   C2048     1.0  0.45100  0.78069  0.10416  1.0000
  H   H1623     1.0  0.46289  0.97433  0.96894  1.0000
  C   C2049     1.0  0.57541  0.96561  0.99948  1.0000
  H   H1624     1.0  0.61215  0.69709  0.12169  1.0000
  H   H1625     1.0  0.36874  0.69097  0.13502  1.0000
  S   S273      1.0  0.66280  0.80063  0.16027  1.0000
  H   H1626     1.0  0.39826  0.65629  0.14324  1.0000
  C   C2050     1.0  0.54969  0.68228  0.15536  1.0000
  H   H1627     1.0  0.53435  0.69053  0.16229  1.0000
  H   H1628     1.0  0.48574  0.87191  0.07773  1.0000
  H   H1629     1.0  0.61499  0.97268  0.16239  1.0000
  C   C2051     1.0  0.33566  0.73482  0.09400  1.0000
  C   C2052     1.0  0.57835  0.88154  0.98526  1.0000
  C   C2053     1.0  0.56750  0.90227  0.99160  1.0000
  C   C2054     1.0  0.54947  0.91871  0.98513  1.0000
  H   H1630     1.0  0.61927  0.62486  0.15300  1.0000
  H   H1631     1.0  0.39223  0.93193  0.13115  1.0000
  H   H1632     1.0  0.58471  0.79133  0.14091  1.0000
  C   C2055     1.0  0.36705  0.73434  0.07369  1.0000
  C   C2056     1.0  0.47123  0.96773  0.01995  1.0000
  C   C2057     1.0  0.49590  0.95764  0.01906  1.0000
  C   C2058     1.0  0.64446  0.87619  0.97495  1.0000
  C   C2059     1.0  0.34891  0.87572  0.13183  1.0000
  C   C2060     1.0  0.40016  0.98740  0.10240  1.0000
  C   C2061     1.0  0.39641  0.96979  0.12718  1.0000
  H   H1633     1.0  0.46355  0.77661  0.13847  1.0000
  S   S274      1.0  0.64213  0.82867  0.06191  1.0000
  H   H1634     1.0  0.56997  0.94840  0.00453  1.0000
  P   P69       1.0  0.39306  0.91547  0.10279  1.0000
  H   H1635     1.0  0.40822  0.90803  0.01012  1.0000
  H   H1636     1.0  0.55685  0.73810  0.12153  1.0000
  C   C2062     1.0  0.38568  0.63082  0.13186  1.0000
  H   H1637     1.0  0.60407  0.65333  0.13022  1.0000
  H   H1638     1.0  0.59274  0.86915  0.99016  1.0000
  H   H1639     1.0  0.57316  0.90544  0.00154  1.0000
  H   H1640     1.0  0.54107  0.93477  0.99008  1.0000
  C   C2063     1.0  0.35193  0.67052  0.12215  1.0000
  C   C2064     1.0  0.41005  0.93360  0.99099  1.0000
  H   H1641     1.0  0.64927  0.65270  0.19938  1.0000
  Fe  Fe140     1.0  0.64067  0.91258  0.03251  1.0000
  C   C2065     1.0  0.46408  0.90526  0.08369  1.0000
  H   H1642     1.0  0.41057  0.94867  0.99691  1.0000
  H   H1643     1.0  0.57629  0.69384  0.16605  1.0000
  H   H1644     1.0  0.65880  0.71187  0.15122  1.0000
  Fe  Fe141     1.0  0.63291  0.86112  0.04537  1.0000
  H   H1645     1.0  0.41359  0.86488  0.09844  1.0000
  H   H1646     1.0  0.39160  0.70072  0.07229  1.0000
  H   H1647     1.0  0.50360  0.89103  0.97121  1.0000
  H   H1648     1.0  0.60940  0.78189  0.10166  1.0000
  H   H1649     1.0  0.43783  0.76058  0.12393  1.0000
  H   H1650     1.0  0.63212  0.69271  0.20778  1.0000
  C   C2066     1.0  0.62698  0.68173  0.16879  1.0000
  C   C2067     1.0  0.40861  0.91053  0.99859  1.0000
  H   H1651     1.0  0.43862  0.93542  0.09037  1.0000
  C   C2068     1.0  0.39516  0.94461  0.10844  1.0000
  C   C2069     1.0  0.61993  0.83189  0.11656  1.0000
  C   C2070     1.0  0.35090  0.70002  0.21192  1.0000
  C   C2071     1.0  0.50859  0.78042  0.98421  1.0000
  C   C2072     1.0  0.36469  0.69822  0.09085  1.0000
  H   H1652     1.0  0.39568  0.97174  0.13842  1.0000
  H   H1653     1.0  0.59117  0.75178  0.13108  1.0000
  C   C2073     1.0  0.66467  0.86051  0.11289  1.0000
  H   H1654     1.0  0.60200  0.98671  0.06835  1.0000
  C   C2074     1.0  0.56501  0.65960  0.13532  1.0000
  H   H1655     1.0  0.49441  0.80374  0.18417  1.0000
  C   C2075     1.0  0.55800  0.83219  0.09072  1.0000
  C   C2076     1.0  0.55592  0.80789  0.09146  1.0000
  C   C2077     1.0  0.57500  0.79082  0.09566  1.0000
  C   C2078     1.0  0.60207  0.82330  0.09736  1.0000
  C   C2079     1.0  0.57923  0.83958  0.09401  1.0000
  H   H1656     1.0  0.54018  0.83940  0.11914  1.0000
  C   C2080     1.0  0.38206  0.89501  0.11784  1.0000
  H   H1657     1.0  0.43968  0.77350  0.09781  1.0000
  C   C2081     1.0  0.42751  0.87645  0.09446  1.0000
  H   H1658     1.0  0.47809  0.91648  0.07934  1.0000
  H   H1659     1.0  0.54286  0.84569  0.08757  1.0000
  H   H1660     1.0  0.53943  0.80229  0.08888  1.0000
  H   H1661     1.0  0.57331  0.77165  0.09642  1.0000
  H   H1662     1.0  0.57719  0.85916  0.09327  1.0000
  C   C2082     1.0  0.59659  0.79783  0.09868  1.0000
  H   H1663     1.0  0.65833  0.73350  0.21488  1.0000
  H   H1664     1.0  0.49296  0.81972  0.10060  1.0000
  H   H1665     1.0  0.45922  0.96276  0.01311  1.0000
  C   C2083     1.0  0.51206  0.88432  0.00584  1.0000
  C   C2084     1.0  0.48736  0.88968  0.00378  1.0000
  C   C2085     1.0  0.47601  0.87243  0.99887  1.0000
  C   C2086     1.0  0.48932  0.84994  0.99598  1.0000
  C   C2087     1.0  0.51415  0.84437  0.99807  1.0000
  C   C2088     1.0  0.52533  0.86164  0.00325  1.0000
  P   P70       1.0  0.53024  0.81423  0.99570  1.0000
  C   C2089     1.0  0.52642  0.79454  0.01232  1.0000
  C   C2090     1.0  0.51715  0.80311  0.98187  1.0000
  C   C2091     1.0  0.47709  0.99039  0.03893  1.0000
  C   C2092     1.0  0.46192  0.98424  0.02978  1.0000
  C   C2093     1.0  0.65171  0.71540  0.14100  1.0000
  C   C2094     1.0  0.37138  0.89934  0.08176  1.0000
  H   H1666     1.0  0.35582  0.88687  0.06503  1.0000
  C   C2095     1.0  0.54313  0.77320  0.01475  1.0000
  C   C2096     1.0  0.54055  0.75792  0.02765  1.0000
  C   C2097     1.0  0.52119  0.76377  0.03817  1.0000
  C   C2098     1.0  0.50438  0.78482  0.03576  1.0000
  C   C2099     1.0  0.50689  0.80019  0.02290  1.0000
  C   C2100     1.0  0.56274  0.81501  0.99080  1.0000
  C   C2101     1.0  0.57740  0.81771  0.00126  1.0000
  C   C2102     1.0  0.60254  0.81821  0.99769  1.0000
  C   C2103     1.0  0.61332  0.81588  0.98371  1.0000
  C   C2104     1.0  0.41047  0.93693  0.97604  1.0000
  H   H1667     1.0  0.37198  0.67957  0.09432  1.0000
  H   H1668     1.0  0.52084  0.89743  0.00991  1.0000
  H   H1669     1.0  0.47683  0.90683  0.00639  1.0000
  H   H1670     1.0  0.45665  0.87605  0.99773  1.0000
  H   H1671     1.0  0.47998  0.83665  0.99250  1.0000
  H   H1672     1.0  0.54407  0.85766  0.00559  1.0000
  C   C2105     1.0  0.63435  0.72522  0.11429  1.0000
  H   H1673     1.0  0.63627  0.96716  0.18413  1.0000
  C   C2106     1.0  0.64028  0.66707  0.19222  1.0000
  H   H1674     1.0  0.54182  0.88204  0.10955  1.0000
  H   H1675     1.0  0.50980  0.76896  0.99431  1.0000
  H   H1676     1.0  0.55821  0.76840  0.00670  1.0000
  H   H1677     1.0  0.55359  0.74160  0.02952  1.0000
  H   H1678     1.0  0.51918  0.75207  0.04821  1.0000
  H   H1679     1.0  0.48942  0.78937  0.04394  1.0000
  H   H1680     1.0  0.49358  0.81640  0.02135  1.0000
  H   H1681     1.0  0.56941  0.81952  0.01218  1.0000
  H   H1682     1.0  0.61374  0.82077  0.00570  1.0000
  H   H1683     1.0  0.36917  0.60976  0.11950  1.0000
  C   C2107     1.0  0.37586  0.71012  0.07832  1.0000
  C   C2108     1.0  0.55432  0.75564  0.12554  1.0000
  C   C2109     1.0  0.57358  0.76323  0.13096  1.0000
  C   C2110     1.0  0.56999  0.78548  0.13655  1.0000
  C   C2111     1.0  0.54725  0.80017  0.13679  1.0000
  C   C2112     1.0  0.52789  0.79308  0.13105  1.0000
  C   C2113     1.0  0.53157  0.77051  0.12554  1.0000
  P   P71       1.0  0.49836  0.81223  0.13126  1.0000
  C   C2114     1.0  0.47955  0.80010  0.12071  1.0000
  C   C2115     1.0  0.48302  0.81324  0.14930  1.0000
  C   C2116     1.0  0.49612  0.80695  0.16123  1.0000
  C   C2117     1.0  0.48418  0.80895  0.17504  1.0000
  C   C2118     1.0  0.45907  0.81704  0.17710  1.0000
  C   C2119     1.0  0.44583  0.82319  0.16535  1.0000
  C   C2120     1.0  0.45766  0.82112  0.15153  1.0000
  C   C2121     1.0  0.48092  0.80694  0.10586  1.0000
  C   C2122     1.0  0.46671  0.79718  0.09764  1.0000
  C   C2123     1.0  0.44992  0.77346  0.11887  1.0000
  C   C2124     1.0  0.46432  0.78288  0.12712  1.0000
  C   C2125     1.0  0.50050  0.84349  0.12358  1.0000
  C   C2126     1.0  0.47894  0.86012  0.12234  1.0000
  C   C2127     1.0  0.48006  0.88447  0.11683  1.0000
  C   C2128     1.0  0.50269  0.89239  0.11217  1.0000
  C   C2129     1.0  0.52422  0.87595  0.11312  1.0000
  C   C2130     1.0  0.52317  0.85162  0.11875  1.0000
  H   H1684     1.0  0.66197  0.92283  0.07164  1.0000
  C   C2131     1.0  0.39444  0.94720  0.12299  1.0000
  C   C2132     1.0  0.35245  0.64738  0.11780  1.0000
  C   C2133     1.0  0.65209  0.73816  0.11740  1.0000
  C   C2134     1.0  0.51089  0.96327  0.02844  1.0000
  C   C2135     1.0  0.37207  0.91888  0.08944  1.0000
  C   C2136     1.0  0.39014  0.86497  0.13830  1.0000
  C   C2137     1.0  0.64606  0.64981  0.14703  1.0000
  C   C2138     1.0  0.39846  0.88148  0.12696  1.0000
  H   H1685     1.0  0.36846  0.70672  0.20996  1.0000
  C   C2139     1.0  0.59871  0.96620  0.99188  1.0000
  C   C2140     1.0  0.39258  0.97753  0.04756  1.0000
  C   C2141     1.0  0.65538  0.60562  0.14834  1.0000
  H   H1686     1.0  0.62875  0.87249  0.12445  1.0000
  H   H1687     1.0  0.36617  0.81042  0.20018  1.0000
  P   P72       1.0  0.63654  0.98986  0.97636  1.0000
  H   H1688     1.0  0.39913  0.96323  0.08691  1.0000
  C   C2142     1.0  0.63054  0.89931  0.97431  1.0000
  P   P73       1.0  0.52105  0.98363  0.05156  1.0000
  C   C2143     1.0  0.34687  0.74660  0.08147  1.0000
  C   C2144     1.0  0.66066  0.73333  0.13078  1.0000
  C   C2145     1.0  0.49766  0.77256  0.97359  1.0000
  H   H1689     1.0  0.65118  0.78875  0.08788  1.0000
  H   H1690     1.0  0.33997  0.64457  0.11058  1.0000
  H   H1691     1.0  0.64305  0.89393  0.14080  1.0000
  H   H1692     1.0  0.34866  0.84729  0.21214  1.0000
  Fe  Fe142     1.0  0.65950  0.76073  0.16584  1.0000
  C   C2146     1.0  0.62329  0.98753  0.16502  1.0000
  S   S275      1.0  0.66225  0.87576  0.02926  1.0000
  C   C2147     1.0  0.61596  0.98868  0.05935  1.0000
  H   H1693     1.0  0.65154  0.95694  0.00101  1.0000
  C   C2148     1.0  0.35562  0.90177  0.07125  1.0000
  C   C2149     1.0  0.66148  0.88720  0.08372  1.0000
  C   C2150     1.0  0.43462  0.82460  0.97261  1.0000
  C   C2151     1.0  0.33430  0.75293  0.13748  1.0000
  C   C2152     1.0  0.34044  0.92377  0.06826  1.0000
  C   C2153     1.0  0.63526  0.98441  0.17728  1.0000
  C   C2154     1.0  0.57133  0.87721  0.97240  1.0000
  H   H1694     1.0  0.34373  0.54191  0.13500  1.0000
  C   C2155     1.0  0.64801  0.87257  0.12318  1.0000
  H   H1695     1.0  0.47328  0.98109  0.06865  1.0000
  C   C2156     1.0  0.65612  0.88566  0.13270  1.0000
  C   C2157     1.0  0.34040  0.94309  0.07614  1.0000
  C   C2158     1.0  0.65563  0.96052  0.97784  1.0000
  H   H1696     1.0  0.64938  0.58783  0.15046  1.0000
  H   H1697     1.0  0.36418  0.83938  0.97369  1.0000
  C   C2159     1.0  0.35044  0.82952  0.21836  1.0000
  C   C2160     1.0  0.51427  0.81790  0.96885  1.0000
  H   H1698     1.0  0.34412  0.90244  0.11360  1.0000
  P   P74       1.0  0.65762  0.84096  0.09985  1.0000
  C   C2161     1.0  0.65971  0.94866  0.99150  1.0000
  H   H1699     1.0  0.64859  0.89436  0.09223  1.0000
  H   H1700     1.0  0.34043  0.76555  0.07798  1.0000
  H   H1701     1.0  0.40645  0.87854  0.97099  1.0000
  C   C2162     1.0  0.34027  0.73429  0.12867  1.0000
  Fe  Fe143     1.0  0.58036  0.86637  0.40043  1.0000
  S   S276      1.0  0.54591  0.84958  0.40762  1.0000
  S   S277      1.0  0.58647  0.89818  0.41067  1.0000
  S   S278      1.0  0.59104  0.88296  0.37808  1.0000
  C   C2163     1.0  0.54981  0.95189  0.44198  1.0000
  H   H1702     1.0  0.46746  0.98354  0.44967  1.0000
  C   C2164     1.0  0.47017  0.93503  0.34189  1.0000
  S   S279      1.0  0.35492  0.84421  0.31171  1.0000
  H   H1703     1.0  0.45759  0.85882  0.46582  1.0000
  C   C2165     1.0  0.55669  0.81364  0.45911  1.0000
  Fe  Fe144     1.0  0.39721  0.85874  0.41651  1.0000
  S   S280      1.0  0.41270  0.89389  0.41220  1.0000
  S   S281      1.0  0.40862  0.83359  0.43611  1.0000
  Fe  Fe145     1.0  0.36959  0.87035  0.38971  1.0000
  S   S282      1.0  0.38307  0.90647  0.38398  1.0000
  H   H1704     1.0  0.34178  0.76880  0.29508  1.0000
  Fe  Fe146     1.0  0.41929  0.88627  0.38941  1.0000
  S   S283      1.0  0.45378  0.89482  0.37564  1.0000
  Fe  Fe147     1.0  0.37499  0.91051  0.40733  1.0000
  S   S284      1.0  0.35407  0.94476  0.41539  1.0000
  S   S285      1.0  0.40661  0.84945  0.39378  1.0000
  S   S286      1.0  0.35891  0.87592  0.41290  1.0000
  C   C2166     1.0  0.35046  0.85113  0.32965  1.0000
  C   C2167     1.0  0.34390  0.78181  0.31507  1.0000
  H   H1705     1.0  0.33951  0.80273  0.25249  1.0000
  C   C2168     1.0  0.34487  0.85989  0.35868  1.0000
  C   C2169     1.0  0.36805  0.85208  0.35181  1.0000
  C   C2170     1.0  0.37076  0.84750  0.33742  1.0000
  C   C2171     1.0  0.55829  0.92713  0.44085  1.0000
  C   C2172     1.0  0.61555  0.96911  0.41594  1.0000
  H   H1706     1.0  0.38380  0.84885  0.35769  1.0000
  H   H1707     1.0  0.38870  0.84096  0.33229  1.0000
  H   H1708     1.0  0.47120  0.95883  0.43087  1.0000
  C   C2173     1.0  0.56555  0.96660  0.44573  1.0000
  H   H1709     1.0  0.37486  0.87468  0.44593  1.0000
  H   H1710     1.0  0.64736  0.98341  0.44932  1.0000
  H   H1711     1.0  0.34790  0.98424  0.31126  1.0000
  C   C2174     1.0  0.33705  0.78859  0.46788  1.0000
  H   H1712     1.0  0.61052  0.84925  0.44508  1.0000
  C   C2175     1.0  0.58948  0.95669  0.44818  1.0000
  C   C2176     1.0  0.58361  0.86171  0.30426  1.0000
  C   C2177     1.0  0.46927  0.95520  0.34926  1.0000
  H   H1713     1.0  0.58808  0.95954  0.32382  1.0000
  C   C2178     1.0  0.54502  0.83414  0.36831  1.0000
  H   H1714     1.0  0.35775  0.80867  0.37377  1.0000
  C   C2179     1.0  0.37499  0.96165  0.42016  1.0000
  C   C2180     1.0  0.39575  0.94972  0.42627  1.0000
  C   C2181     1.0  0.41427  0.96286  0.42808  1.0000
  H   H1715     1.0  0.42024  0.87876  0.33290  1.0000
  H   H1716     1.0  0.56538  0.85872  0.30292  1.0000
  H   H1717     1.0  0.39750  0.93038  0.42965  1.0000
  H   H1718     1.0  0.43037  0.95346  0.43265  1.0000
  C   C2182     1.0  0.34967  0.77299  0.38302  1.0000
  H   H1719     1.0  0.55962  0.98577  0.44653  1.0000
  C   C2183     1.0  0.52039  0.86263  0.39878  1.0000
  C   C2184     1.0  0.52256  0.88022  0.38688  1.0000
  C   C2185     1.0  0.50223  0.88954  0.37952  1.0000
  C   C2186     1.0  0.47939  0.88214  0.38446  1.0000
  C   C2187     1.0  0.47707  0.86492  0.39654  1.0000
  C   C2188     1.0  0.49762  0.85493  0.40356  1.0000
  H   H1720     1.0  0.53993  0.88643  0.38329  1.0000
  H   H1721     1.0  0.50402  0.90296  0.37024  1.0000
  H   H1722     1.0  0.45950  0.85909  0.40043  1.0000
  H   H1723     1.0  0.49578  0.84143  0.41281  1.0000
  C   C2189     1.0  0.53500  0.87882  0.32406  1.0000
  C   C2190     1.0  0.63579  0.87224  0.44909  1.0000
  H   H1724     1.0  0.55305  0.93705  0.36558  1.0000
  H   H1725     1.0  0.58380  0.92038  0.31588  1.0000
  H   H1726     1.0  0.36300  0.77065  0.39059  1.0000
  H   H1727     1.0  0.52479  0.92803  0.46433  1.0000
  C   C2191     1.0  0.46745  0.86720  0.45631  1.0000
  C   C2192     1.0  0.47835  0.94539  0.41052  1.0000
  C   C2193     1.0  0.40404  0.90748  0.34563  1.0000
  C   C2194     1.0  0.35533  0.78372  0.23433  1.0000
  C   C2195     1.0  0.37124  0.92098  0.32514  1.0000
  H   H1728     1.0  0.61660  0.92465  0.44856  1.0000
  H   H1729     1.0  0.60499  0.84410  0.34373  1.0000
  H   H1730     1.0  0.61630  0.93742  0.40549  1.0000
  H   H1731     1.0  0.61691  0.87837  0.32792  1.0000
  C   C2196     1.0  0.45276  0.93477  0.33266  1.0000
  H   H1732     1.0  0.57318  0.96772  0.34881  1.0000
  H   H1733     1.0  0.42432  0.96010  0.37449  1.0000
  C   C2197     1.0  0.41204  0.98798  0.42379  1.0000
  H   H1734     1.0  0.63754  0.80866  0.30159  1.0000
  H   H1735     1.0  0.64384  0.80870  0.22158  1.0000
  C   C2198     1.0  0.33208  0.93372  0.36747  1.0000
  S   S287      1.0  0.34008  0.86217  0.37733  1.0000
  C   C2199     1.0  0.60995  0.95669  0.40529  1.0000
  C   C2200     1.0  0.41139  0.97674  0.37502  1.0000
  H   H1736     1.0  0.38404  0.93728  0.35627  1.0000
  H   H1737     1.0  0.66308  0.94342  0.30984  1.0000
  C   C2201     1.0  0.47466  0.96941  0.45764  1.0000
  C   C2202     1.0  0.38995  0.90131  0.32358  1.0000
  C   C2203     1.0  0.36835  0.93353  0.33722  1.0000
  H   H1738     1.0  0.47383  0.88277  0.30775  1.0000
  C   C2204     1.0  0.40012  0.84374  0.45319  1.0000
  H   H1739     1.0  0.33465  0.71893  0.24886  1.0000
  H   H1740     1.0  0.59275  0.79454  0.45345  1.0000
  C   C2205     1.0  0.40619  0.89441  0.33390  1.0000
  C   C2206     1.0  0.52360  0.90132  0.31791  1.0000
  H   H1741     1.0  0.48377  0.91915  0.34382  1.0000
  C   C2207     1.0  0.33197  0.78565  0.32866  1.0000
  C   C2208     1.0  0.56755  0.82189  0.37200  1.0000
  H   H1742     1.0  0.53292  0.84008  0.32851  1.0000
  H   H1743     1.0  0.36509  0.99222  0.35319  1.0000
  H   H1744     1.0  0.64026  0.86023  0.28525  1.0000
  H   H1745     1.0  0.34105  0.79424  0.33553  1.0000
  C   C2209     1.0  0.49614  0.93788  0.39958  1.0000
  Fe  Fe148     1.0  0.62889  0.86428  0.38148  1.0000
  H   H1746     1.0  0.39133  0.89095  0.31459  1.0000
  P   P75       1.0  0.34296  0.95743  0.34012  1.0000
  C   C2210     1.0  0.59784  0.93210  0.44700  1.0000
  H   H1747     1.0  0.56842  0.81020  0.38207  1.0000
  C   C2211     1.0  0.58798  0.84131  0.35026  1.0000
  C   C2212     1.0  0.57702  0.92374  0.32676  1.0000
  C   C2213     1.0  0.49086  0.88169  0.31230  1.0000
  H   H1748     1.0  0.49302  0.92010  0.30723  1.0000
  P   P76       1.0  0.56405  0.87664  0.33099  1.0000
  Fe  Fe149     1.0  0.60052  0.91314  0.38856  1.0000
  H   H1749     1.0  0.50063  0.89587  0.42097  1.0000
  H   H1750     1.0  0.34139  0.96577  0.28456  1.0000
  C   C2214     1.0  0.61256  0.87283  0.31819  1.0000
  C   C2215     1.0  0.48529  0.95241  0.42276  1.0000
  H   H1751     1.0  0.64935  0.87314  0.30760  1.0000
  C   C2216     1.0  0.54394  0.85030  0.35574  1.0000
  C   C2217     1.0  0.50213  0.85922  0.31835  1.0000
  C   C2218     1.0  0.58898  0.82535  0.36294  1.0000
  S   S288      1.0  0.64468  0.88244  0.43086  1.0000
  H   H1752     1.0  0.33743  0.73666  0.27105  1.0000
  H   H1753     1.0  0.33945  0.91685  0.36304  1.0000
  H   H1754     1.0  0.49703  0.79227  0.46456  1.0000
  C   C2219     1.0  0.50166  0.90270  0.31203  1.0000
  S   S289      1.0  0.63944  0.89603  0.39016  1.0000
  C   C2220     1.0  0.63104  0.86969  0.30677  1.0000
  H   H1755     1.0  0.49057  0.93298  0.39002  1.0000
  H   H1756     1.0  0.53167  0.91781  0.31752  1.0000
  H   H1757     1.0  0.62611  0.95925  0.42419  1.0000
  H   H1758     1.0  0.34898  0.97396  0.46194  1.0000
  H   H1759     1.0  0.65958  0.89322  0.45671  1.0000
  H   H1760     1.0  0.41724  0.98849  0.33800  1.0000
  C   C2221     1.0  0.38539  0.92720  0.34718  1.0000
  H   H1761     1.0  0.59834  0.85257  0.28314  1.0000
  C   C2222     1.0  0.55717  0.91116  0.35030  1.0000
  C   C2223     1.0  0.38246  0.86411  0.45511  1.0000
  H   H1762     1.0  0.48219  0.95422  0.35690  1.0000
  C   C2224     1.0  0.58852  0.86946  0.31691  1.0000
  C   C2225     1.0  0.62590  0.86249  0.29414  1.0000
  C   C2226     1.0  0.43289  0.97440  0.33858  1.0000
  C   C2227     1.0  0.64164  0.92606  0.32780  1.0000
  C   C2228     1.0  0.63434  0.92474  0.34253  1.0000
  C   C2229     1.0  0.64282  0.93988  0.35071  1.0000
  C   C2230     1.0  0.65986  0.82488  0.23690  1.0000
  H   H1763     1.0  0.60191  0.96826  0.45054  1.0000
  H   H1764     1.0  0.42001  0.95381  0.32431  1.0000
  H   H1765     1.0  0.36004  0.81835  0.44435  1.0000
  P   P77       1.0  0.51871  0.96438  0.43909  1.0000
  H   H1766     1.0  0.43406  0.88508  0.44814  1.0000
  H   H1767     1.0  0.35877  0.92592  0.31707  1.0000
  C   C2231     1.0  0.64640  0.88061  0.45977  1.0000
  H   H1768     1.0  0.52636  0.86047  0.35351  1.0000
  H   H1769     1.0  0.36480  0.66622  0.22371  1.0000
  C   C2232     1.0  0.34690  0.82055  0.43668  1.0000
  H   H1770     1.0  0.54650  0.91544  0.43791  1.0000
  C   C2233     1.0  0.36293  0.78565  0.21955  1.0000
  C   C2234     1.0  0.34674  0.79438  0.37355  1.0000
  H   H1771     1.0  0.53638  0.88349  0.45812  1.0000
  C   C2235     1.0  0.52093  0.93736  0.40087  1.0000
  C   C2236     1.0  0.50495  0.87306  0.44083  1.0000
  C   C2237     1.0  0.37191  0.98701  0.41690  1.0000
  C   C2238     1.0  0.51009  0.95214  0.42415  1.0000
  H   H1772     1.0  0.38266  0.95805  0.38694  1.0000
  H   H1773     1.0  0.60652  0.81622  0.36597  1.0000
  S   S290      1.0  0.61760  0.84535  0.40339  1.0000
  H   H1774     1.0  0.63584  0.91387  0.32149  1.0000
  H   H1775     1.0  0.62259  0.91158  0.34770  1.0000
  H   H1776     1.0  0.63718  0.93850  0.36214  1.0000
  S   S291      1.0  0.64852  0.84301  0.36351  1.0000
  H   H1777     1.0  0.42359  0.92731  0.45697  1.0000
  H   H1778     1.0  0.37479  0.81117  0.41953  1.0000
  C   C2239     1.0  0.38777  0.97540  0.38195  1.0000
  C   C2240     1.0  0.33259  0.77137  0.30568  1.0000
  H   H1779     1.0  0.42407  0.81479  0.46379  1.0000
  H   H1780     1.0  0.54862  0.89793  0.35790  1.0000
  H   H1781     1.0  0.45911  0.94634  0.40934  1.0000
  H   H1782     1.0  0.35733  0.76602  0.24058  1.0000
  H   H1783     1.0  0.52458  0.86885  0.43812  1.0000
  C   C2241     1.0  0.34031  0.94762  0.22977  1.0000
  C   C2242     1.0  0.52421  0.85773  0.32411  1.0000
  C   C2243     1.0  0.33990  0.97294  0.22736  1.0000
  C   C2244     1.0  0.56542  0.85399  0.34655  1.0000
  C   C2245     1.0  0.60226  0.85823  0.29295  1.0000
  C   C2246     1.0  0.52789  0.94475  0.41300  1.0000
  H   H1784     1.0  0.63801  0.78488  0.32564  1.0000
  C   C2247     1.0  0.56869  0.79379  0.43764  1.0000
  C   C2248     1.0  0.54514  0.80102  0.43365  1.0000
  C   C2249     1.0  0.52742  0.81483  0.44227  1.0000
  C   C2250     1.0  0.53319  0.82164  0.45495  1.0000
  H   H1785     1.0  0.45304  0.91886  0.32730  1.0000
  H   H1786     1.0  0.58889  0.89835  0.44220  1.0000
  H   H1787     1.0  0.40956  0.97132  0.45694  1.0000
  C   C2251     1.0  0.49314  0.86237  0.45363  1.0000
  C   C2252     1.0  0.57441  0.79995  0.45042  1.0000
  C   C2253     1.0  0.49137  0.88836  0.43098  1.0000
  C   C2254     1.0  0.46587  0.89291  0.43367  1.0000
  C   C2255     1.0  0.45391  0.88228  0.44630  1.0000
  H   H1788     1.0  0.33779  0.73802  0.38999  1.0000
  Fe  Fe150     1.0  0.62474  0.87888  0.41196  1.0000
  C   C2256     1.0  0.61879  0.85588  0.45317  1.0000
  H   H1789     1.0  0.49381  0.84291  0.31850  1.0000
  C   C2257     1.0  0.33545  0.75464  0.38267  1.0000
  C   C2258     1.0  0.35443  0.98572  0.33310  1.0000
  C   C2259     1.0  0.43413  0.95446  0.33100  1.0000
  H   H1790     1.0  0.58258  0.78374  0.43071  1.0000
  H   H1791     1.0  0.54085  0.79679  0.42356  1.0000
  C   C2260     1.0  0.58224  0.91733  0.44334  1.0000
  C   C2261     1.0  0.65668  0.82054  0.22301  1.0000
  H   H1792     1.0  0.61734  0.98707  0.35087  1.0000
  C   C2262     1.0  0.41027  0.83051  0.46518  1.0000
  H   H1793     1.0  0.45535  0.90414  0.42579  1.0000
  P   P78       1.0  0.51068  0.84069  0.46566  1.0000
  C   C2263     1.0  0.34524  0.80451  0.24111  1.0000
  H   H1794     1.0  0.36201  0.99137  0.24781  1.0000
  C   C2264     1.0  0.45093  0.97543  0.34740  1.0000
  H   H1795     1.0  0.54715  0.94530  0.41341  1.0000
  C   C2265     1.0  0.55948  0.93345  0.35468  1.0000
  C   C2266     1.0  0.57927  0.94608  0.33117  1.0000
  H   H1796     1.0  0.53480  0.93175  0.39235  1.0000
  H   H1797     1.0  0.50945  0.82076  0.43879  1.0000
  H   H1798     1.0  0.52846  0.83179  0.37550  1.0000
  C   C2267     1.0  0.49849  0.95678  0.45526  1.0000
  S   S292      1.0  0.58935  0.95299  0.38138  1.0000
  C   C2268     1.0  0.59657  0.96916  0.39446  1.0000
  C   C2269     1.0  0.57076  0.95080  0.34518  1.0000
  H   H1799     1.0  0.41673  0.90225  0.35360  1.0000
  H   H1800     1.0  0.64940  0.81622  0.24607  1.0000
  C   C2270     1.0  0.34285  0.82755  0.23316  1.0000
  H   H1801     1.0  0.36170  0.78761  0.31169  1.0000
  C   C2271     1.0  0.56634  0.90590  0.33640  1.0000
  C   C2272     1.0  0.35537  0.81646  0.42256  1.0000
  H   H1802     1.0  0.66251  0.83278  0.33453  1.0000
  H   H1803     1.0  0.65679  0.98160  0.38578  1.0000
  C   C2273     1.0  0.41090  0.93382  0.46576  1.0000
  H   H1804     1.0  0.35416  0.93574  0.22385  1.0000
  H   H1805     1.0  0.34581  0.81840  0.40118  1.0000
  C   C2274     1.0  0.40297  0.95880  0.46582  1.0000
  C   C2275     1.0  0.34879  0.67725  0.21971  1.0000
  C   C2276     1.0  0.65865  0.95647  0.34419  1.0000
  C   C2277     1.0  0.65491  0.78994  0.31975  1.0000
  H   H1806     1.0  0.35371  0.98047  0.21962  1.0000
  C   C2278     1.0  0.65462  0.80334  0.30622  1.0000
  C   C2279     1.0  0.61299  0.84757  0.46775  1.0000
  C   C2280     1.0  0.34743  0.99285  0.45729  1.0000
  C   C2281     1.0  0.50664  0.93808  0.46575  1.0000
  C   C2282     1.0  0.65697  0.94284  0.32120  1.0000
  H   H1807     1.0  0.65459  0.95720  0.24501  1.0000
  H   H1808     1.0  0.54122  0.99154  0.41388  1.0000
  H   H1809     1.0  0.53429  0.99297  0.36621  1.0000
  C   C2283     1.0  0.33907  0.82051  0.41225  1.0000
  H   H1810     1.0  0.66434  0.98583  0.42396  1.0000
  Fe  Fe151     1.0  0.58817  0.87327  0.54363  1.0000
  S   S293      1.0  0.55215  0.87271  0.55761  1.0000
  H   H1811     1.0  0.48598  0.81269  0.71436  1.0000
  S   S294      1.0  0.58963  0.89112  0.52117  1.0000
  Fe  Fe152     1.0  0.43306  0.85268  0.53387  1.0000
  S   S295      1.0  0.39787  0.83662  0.53597  1.0000
  S   S296      1.0  0.47058  0.83049  0.53247  1.0000
  Fe  Fe153     1.0  0.40794  0.90430  0.52916  1.0000
  S   S297      1.0  0.37091  0.89277  0.53124  1.0000
  S   S298      1.0  0.41347  0.94249  0.52035  1.0000
  Fe  Fe154     1.0  0.38304  0.86647  0.54997  1.0000
  S   S299      1.0  0.35393  0.86114  0.56920  1.0000
  Fe  Fe155     1.0  0.38881  0.86428  0.51717  1.0000
  S   S300      1.0  0.36868  0.86203  0.49826  1.0000
  S   S301      1.0  0.41905  0.88073  0.54899  1.0000
  S   S302      1.0  0.42506  0.87759  0.51401  1.0000
  H   H1812     1.0  0.45630  0.94117  0.49059  1.0000
  C   C2284     1.0  0.39120  0.91915  0.59493  1.0000
  S   S303      1.0  0.61714  0.84354  0.49651  1.0000
  S   S304      1.0  0.35895  0.86164  0.63602  1.0000
  H   H1813     1.0  0.52459  0.83035  0.49493  1.0000
  H   H1814     1.0  0.36688  0.93009  0.61301  1.0000
  C   C2285     1.0  0.38340  0.85660  0.48100  1.0000
  C   C2286     1.0  0.40214  0.83708  0.47903  1.0000
  Fe  Fe156     1.0  0.64354  0.86545  0.54315  1.0000
  C   C2287     1.0  0.33545  0.86086  0.61214  1.0000
  H   H1815     1.0  0.36417  0.95661  0.49684  1.0000
  H   H1816     1.0  0.61305  0.73643  0.71326  1.0000
  C   C2288     1.0  0.61878  0.98125  0.47652  1.0000
  C   C2289     1.0  0.55962  0.87587  0.48979  1.0000
  C   C2290     1.0  0.35630  0.86081  0.58771  1.0000
  C   C2291     1.0  0.37847  0.86133  0.59297  1.0000
  C   C2292     1.0  0.37909  0.86148  0.60778  1.0000
  C   C2293     1.0  0.35754  0.86142  0.61744  1.0000
  C   C2294     1.0  0.39383  0.91616  0.58043  1.0000
  C   C2295     1.0  0.36837  0.92822  0.60176  1.0000
  H   H1817     1.0  0.39512  0.86157  0.58565  1.0000
  H   H1818     1.0  0.39632  0.86179  0.61174  1.0000
  C   C2296     1.0  0.38529  0.98406  0.71679  1.0000
  H   H1819     1.0  0.38787  0.89212  0.65421  1.0000
  H   H1820     1.0  0.62744  0.83592  0.57867  1.0000
  C   C2297     1.0  0.40251  0.91731  0.47704  1.0000
  H   H1821     1.0  0.47821  0.84952  0.49204  1.0000
  C   C2298     1.0  0.41867  0.96198  0.53213  1.0000
  C   C2299     1.0  0.41847  0.95461  0.54681  1.0000
  C   C2300     1.0  0.42300  0.97088  0.55585  1.0000
  H   H1822     1.0  0.64404  0.72066  0.69414  1.0000
  H   H1823     1.0  0.49784  0.91758  0.48625  1.0000
  H   H1824     1.0  0.41522  0.93637  0.55110  1.0000
  H   H1825     1.0  0.42289  0.96525  0.56718  1.0000
  C   C2301     1.0  0.52950  0.86209  0.55001  1.0000
  C   C2302     1.0  0.53548  0.84948  0.53801  1.0000
  C   C2303     1.0  0.51712  0.84025  0.53250  1.0000
  C   C2304     1.0  0.49279  0.84395  0.53881  1.0000
  C   C2305     1.0  0.48678  0.85701  0.55062  1.0000
  C   C2306     1.0  0.50518  0.86572  0.55635  1.0000
  H   H1826     1.0  0.55432  0.84633  0.53324  1.0000
  H   H1827     1.0  0.52171  0.83005  0.52344  1.0000
  H   H1828     1.0  0.46816  0.85949  0.55572  1.0000
  H   H1829     1.0  0.50065  0.87499  0.56581  1.0000
  C   C2307     1.0  0.64983  0.72509  0.70378  1.0000
  S   S305      1.0  0.64975  0.88321  0.52019  1.0000
  H   H1830     1.0  0.41143  0.90879  0.57520  1.0000
  C   C2308     1.0  0.59393  0.97872  0.47896  1.0000
  H   H1831     1.0  0.56756  0.95364  0.48468  1.0000
  C   C2309     1.0  0.36901  0.93278  0.67850  1.0000
  H   H1832     1.0  0.45316  0.88307  0.69664  1.0000
  C   C2310     1.0  0.37723  0.81844  0.71753  1.0000
  H   H1833     1.0  0.64080  0.88091  0.57543  1.0000
  H   H1834     1.0  0.64330  0.89137  0.59962  1.0000
  C   C2311     1.0  0.62374  0.85581  0.47840  1.0000
  C   C2312     1.0  0.49030  0.82247  0.47731  1.0000
  C   C2313     1.0  0.64028  0.87258  0.47436  1.0000
  C   C2314     1.0  0.35372  0.80424  0.49098  1.0000
  C   C2315     1.0  0.34796  0.93458  0.59409  1.0000
  H   H1835     1.0  0.36462  0.87833  0.69909  1.0000
  H   H1836     1.0  0.37881  0.91285  0.49679  1.0000
  S   S306      1.0  0.60873  0.95094  0.52033  1.0000
  H   H1837     1.0  0.61398  0.67558  0.57137  1.0000
  H   H1838     1.0  0.38417  0.98288  0.50710  1.0000
  H   H1839     1.0  0.40936  0.82621  0.48823  1.0000
  C   C2316     1.0  0.62926  0.93766  0.48249  1.0000
  C   C2317     1.0  0.64011  0.98169  0.58288  1.0000
  P   P79       1.0  0.35336  0.92721  0.70803  1.0000
  C   C2318     1.0  0.36042  0.78010  0.48813  1.0000
  H   H1840     1.0  0.38007  0.86314  0.67591  1.0000
  Fe  Fe157     1.0  0.62076  0.86216  0.51582  1.0000
  C   C2319     1.0  0.48050  0.91948  0.52655  1.0000
  C   C2320     1.0  0.50056  0.90539  0.51980  1.0000
  C   C2321     1.0  0.52424  0.90775  0.52214  1.0000
  C   C2322     1.0  0.52797  0.92376  0.53150  1.0000
  C   C2323     1.0  0.50784  0.93754  0.53857  1.0000
  C   C2324     1.0  0.48412  0.93561  0.53580  1.0000
  P   P80       1.0  0.51203  0.95784  0.55101  1.0000
  C   C2325     1.0  0.48842  0.95551  0.56601  1.0000
  C   C2326     1.0  0.54120  0.94846  0.55806  1.0000
  C   C2327     1.0  0.54297  0.93144  0.57036  1.0000
  C   C2328     1.0  0.56491  0.92558  0.57650  1.0000
  C   C2329     1.0  0.58527  0.93666  0.57046  1.0000
  C   C2330     1.0  0.58397  0.95294  0.55798  1.0000
  C   C2331     1.0  0.56223  0.95843  0.55159  1.0000
  H   H1841     1.0  0.65406  0.95264  0.56082  1.0000
  S   S307      1.0  0.61699  0.84210  0.53814  1.0000
  C   C2332     1.0  0.45316  0.95122  0.59001  1.0000
  C   C2333     1.0  0.46220  0.93103  0.58269  1.0000
  C   C2334     1.0  0.47976  0.93315  0.57075  1.0000
  H   H1842     1.0  0.58271  0.97134  0.59764  1.0000
  C   C2335     1.0  0.52377  0.97537  0.49948  1.0000
  C   C2336     1.0  0.47927  0.97566  0.57342  1.0000
  H   H1843     1.0  0.40886  0.89796  0.47711  1.0000
  C   C2337     1.0  0.38182  0.89892  0.66446  1.0000
  C   C2338     1.0  0.49142  0.93219  0.47831  1.0000
  H   H1844     1.0  0.46208  0.91761  0.52481  1.0000
  H   H1845     1.0  0.49773  0.89227  0.51301  1.0000
  H   H1846     1.0  0.53965  0.89647  0.51708  1.0000
  H   H1847     1.0  0.54644  0.92485  0.53347  1.0000
  H   H1848     1.0  0.46840  0.94635  0.54099  1.0000
  H   H1849     1.0  0.52763  0.92230  0.57514  1.0000
  H   H1850     1.0  0.56623  0.91206  0.58579  1.0000
  H   H1851     1.0  0.60237  0.93196  0.57511  1.0000
  H   H1852     1.0  0.38095  0.93667  0.65585  1.0000
  H   H1853     1.0  0.56196  0.97049  0.54166  1.0000
  H   H1854     1.0  0.45413  0.98942  0.59071  1.0000
  H   H1855     1.0  0.64687  0.98894  0.50042  1.0000
  H   H1856     1.0  0.43932  0.94971  0.59914  1.0000
  H   H1857     1.0  0.45561  0.91372  0.58621  1.0000
  H   H1858     1.0  0.48676  0.91731  0.56527  1.0000
  C   C2339     1.0  0.51214  0.98835  0.48805  1.0000
  H   H1859     1.0  0.64903  0.87863  0.48244  1.0000
  H   H1860     1.0  0.36580  0.95225  0.67884  1.0000
  C   C2340     1.0  0.46229  0.87171  0.70508  1.0000
  C   C2341     1.0  0.35752  0.82957  0.70997  1.0000
  C   C2342     1.0  0.53232  0.84629  0.48964  1.0000
  C   C2343     1.0  0.54841  0.85609  0.49659  1.0000
  C   C2344     1.0  0.36860  0.89127  0.68981  1.0000
  H   H1861     1.0  0.65786  0.95685  0.67577  1.0000
  C   C2345     1.0  0.45678  0.79531  0.49469  1.0000
  C   C2346     1.0  0.45979  0.81812  0.49801  1.0000
  C   C2347     1.0  0.37773  0.92400  0.66537  1.0000
  H   H1862     1.0  0.55307  0.84782  0.50702  1.0000
  H   H1863     1.0  0.34832  0.73478  0.69783  1.0000
  H   H1864     1.0  0.64678  0.79901  0.56769  1.0000
  H   H1865     1.0  0.44375  0.78496  0.50139  1.0000
  H   H1866     1.0  0.44906  0.82537  0.50727  1.0000
  C   C2348     1.0  0.49661  0.79969  0.57479  1.0000
  C   C2349     1.0  0.49079  0.78316  0.58671  1.0000
  C   C2350     1.0  0.50843  0.76384  0.59105  1.0000
  C   C2351     1.0  0.53183  0.76091  0.58340  1.0000
  C   C2352     1.0  0.53771  0.77729  0.57129  1.0000
  C   C2353     1.0  0.52001  0.79689  0.56720  1.0000
  P   P81       1.0  0.56785  0.77391  0.56125  1.0000
  C   C2354     1.0  0.58667  0.79362  0.56682  1.0000
  C   C2355     1.0  0.58228  0.74265  0.56442  1.0000
  C   C2356     1.0  0.59408  0.73476  0.57675  1.0000
  C   C2357     1.0  0.60546  0.71065  0.57923  1.0000
  C   C2358     1.0  0.60506  0.69423  0.56947  1.0000
  C   C2359     1.0  0.59321  0.70187  0.55724  1.0000
  C   C2360     1.0  0.58182  0.72597  0.55471  1.0000
  C   C2361     1.0  0.61236  0.78793  0.56500  1.0000
  C   C2362     1.0  0.62696  0.80305  0.56939  1.0000
  C   C2363     1.0  0.61608  0.82399  0.57555  1.0000
  C   C2364     1.0  0.59063  0.82994  0.57724  1.0000
  C   C2365     1.0  0.57595  0.81487  0.57288  1.0000
  C   C2366     1.0  0.56521  0.78124  0.54233  1.0000
  C   C2367     1.0  0.54451  0.77676  0.53667  1.0000
  C   C2368     1.0  0.54290  0.78163  0.52197  1.0000
  C   C2369     1.0  0.56200  0.79084  0.51279  1.0000
  C   C2370     1.0  0.58268  0.79517  0.51832  1.0000
  C   C2371     1.0  0.58433  0.79038  0.53301  1.0000
  H   H1867     1.0  0.48298  0.81469  0.57136  1.0000
  H   H1868     1.0  0.47262  0.78540  0.59257  1.0000
  H   H1869     1.0  0.50393  0.75110  0.60035  1.0000
  H   H1870     1.0  0.54514  0.74583  0.58697  1.0000
  H   H1871     1.0  0.52428  0.80998  0.55810  1.0000
  H   H1872     1.0  0.59451  0.74726  0.58443  1.0000
  H   H1873     1.0  0.61467  0.70474  0.58871  1.0000
  C   C2372     1.0  0.35077  0.93122  0.57954  1.0000
  H   H1874     1.0  0.59294  0.68914  0.54965  1.0000
  H   H1875     1.0  0.57279  0.73147  0.54516  1.0000
  H   H1876     1.0  0.62116  0.77205  0.55997  1.0000
  H   H1877     1.0  0.37546  0.91914  0.56161  1.0000
  C   C2373     1.0  0.65761  0.87848  0.59485  1.0000
  H   H1878     1.0  0.58224  0.84665  0.58155  1.0000
  H   H1879     1.0  0.55632  0.82028  0.57401  1.0000
  H   H1880     1.0  0.52955  0.76953  0.54358  1.0000
  H   H1881     1.0  0.52666  0.77861  0.51773  1.0000
  H   H1882     1.0  0.56080  0.79475  0.50141  1.0000
  H   H1883     1.0  0.59752  0.80227  0.51122  1.0000
  H   H1884     1.0  0.60060  0.79377  0.53699  1.0000
  H   H1885     1.0  0.59900  0.91726  0.48792  1.0000
  C   C2374     1.0  0.65183  0.95973  0.52808  1.0000
  C   C2375     1.0  0.37761  0.95073  0.48824  1.0000
  C   C2376     1.0  0.58676  0.95566  0.48296  1.0000
  C   C2377     1.0  0.38563  0.92574  0.48817  1.0000
  C   C2378     1.0  0.33497  0.86003  0.59744  1.0000
  C   C2379     1.0  0.60443  0.93514  0.48467  1.0000
  H   H1886     1.0  0.57745  0.83230  0.70774  1.0000
  H   H1887     1.0  0.51997  0.95713  0.50361  1.0000
  H   H1888     1.0  0.62613  0.95593  0.60001  1.0000
  C   C2380     1.0  0.47035  0.78607  0.48264  1.0000
  C   C2381     1.0  0.46883  0.84669  0.70436  1.0000
  H   H1889     1.0  0.44217  0.97483  0.47260  1.0000
  C   C2382     1.0  0.48073  0.83199  0.71520  1.0000
  C   C2383     1.0  0.53893  0.87611  0.46900  1.0000
  C   C2384     1.0  0.65607  0.87248  0.58112  1.0000
  C   C2385     1.0  0.37357  0.92201  0.57278  1.0000
  H   H1890     1.0  0.39527  0.81438  0.71179  1.0000
  C   C2386     1.0  0.38697  0.96757  0.47731  1.0000
  Fe  Fe158     1.0  0.61784  0.91091  0.52699  1.0000
  H   H1891     1.0  0.57281  0.88278  0.49496  1.0000
  C   C2387     1.0  0.36440  0.91645  0.69086  1.0000
  C   C2388     1.0  0.55483  0.88595  0.47606  1.0000
  H   H1892     1.0  0.33459  0.83932  0.48453  1.0000
  C   C2389     1.0  0.52746  0.85621  0.47573  1.0000
  C   C2390     1.0  0.46807  0.94538  0.48075  1.0000
  H   H1893     1.0  0.60003  0.96090  0.55309  1.0000
  C   C2391     1.0  0.37741  0.88256  0.67670  1.0000
  H   H1894     1.0  0.65929  0.94150  0.52568  1.0000
  H   H1895     1.0  0.64240  0.92155  0.48426  1.0000
  S   S308      1.0  0.61427  0.89524  0.55000  1.0000
  C   C2392     1.0  0.62730  0.96857  0.52655  1.0000
  C   C2393     1.0  0.63671  0.96072  0.47837  1.0000
  C   C2394     1.0  0.35206  0.77226  0.47659  1.0000
  H   H1896     1.0  0.40673  0.91392  0.60096  1.0000
  H   H1897     1.0  0.46776  0.76853  0.47994  1.0000
  C   C2395     1.0  0.62159  0.97101  0.59196  1.0000
  H   H1898     1.0  0.36035  0.83392  0.69848  1.0000
  C   C2396     1.0  0.47643  0.83171  0.48937  1.0000
  C   C2397     1.0  0.42319  0.98546  0.52654  1.0000
  H   H1899     1.0  0.46474  0.83866  0.69537  1.0000
  C   C2398     1.0  0.46167  0.97352  0.58536  1.0000
  H   H1900     1.0  0.35747  0.75360  0.47428  1.0000
  C   C2399     1.0  0.33433  0.83555  0.71737  1.0000
  C   C2400     1.0  0.45994  0.96421  0.47051  1.0000
  C   C2401     1.0  0.63236  0.73396  0.71454  1.0000
  H   H1901     1.0  0.37231  0.76760  0.49479  1.0000
  C   C2402     1.0  0.48702  0.79960  0.47395  1.0000
  C   C2403     1.0  0.59689  0.97966  0.59062  1.0000
  H   H1902     1.0  0.60027  0.83452  0.47079  1.0000
  C   C2404     1.0  0.54041  0.98593  0.50556  1.0000
  C   C2405     1.0  0.46763  0.88206  0.71666  1.0000
  H   H1903     1.0  0.49921  0.98028  0.48336  1.0000
  C   C2406     1.0  0.50951  0.98897  0.54235  1.0000
  C   C2407     1.0  0.33881  0.82064  0.48226  1.0000
  H   H1904     1.0  0.40300  0.90178  0.71053  1.0000
  C   C2408     1.0  0.34849  0.97764  0.70101  1.0000
  H   H1905     1.0  0.33542  0.93587  0.57333  1.0000
  H   H1906     1.0  0.34172  0.98183  0.57957  1.0000
  H   H1907     1.0  0.48420  0.98408  0.52788  1.0000
  H   H1908     1.0  0.54978  0.97576  0.51429  1.0000
  C   C2409     1.0  0.36157  0.95717  0.70829  1.0000
  H   H1909     1.0  0.42359  0.99112  0.51518  1.0000
  H   H1910     1.0  0.53273  0.83358  0.71357  1.0000
  H   H1911     1.0  0.56425  0.90080  0.47074  1.0000
  H   H1912     1.0  0.33405  0.97560  0.69490  1.0000
  H   H1913     1.0  0.36052  0.81052  0.49978  1.0000
  C   C2410     1.0  0.61754  0.99214  0.52956  1.0000
  H   H1914     1.0  0.56165  0.81834  0.46889  1.0000
  H   H1915     1.0  0.35940  0.77014  0.71694  1.0000
  H   H1916     1.0  0.35949  0.88540  0.47040  1.0000
  C   C2411     1.0  0.38005  0.96054  0.71621  1.0000
  H   H1917     1.0  0.46270  0.90148  0.71719  1.0000
  C   C2412     1.0  0.37386  0.87023  0.46896  1.0000
  C   C2413     1.0  0.66311  0.95822  0.68617  1.0000
  H   H1918     1.0  0.66440  0.92871  0.60643  1.0000
  C   C2414     1.0  0.66386  0.98110  0.69035  1.0000
  H   H1919     1.0  0.48518  0.99323  0.56978  1.0000
  C   C2415     1.0  0.56970  0.82761  0.71868  1.0000
  Fe  Fe159     1.0  0.63535  0.79508  0.79936  1.0000
  S   S309      1.0  0.62333  0.75814  0.79966  1.0000
  S   S310      1.0  0.62368  0.82008  0.81699  1.0000
  C   C2416     1.0  0.42382  0.82854  0.95975  1.0000
  S   S311      1.0  0.63432  0.76606  0.76427  1.0000
  C   C2417     1.0  0.65783  0.81847  0.83626  1.0000
  Fe  Fe160     1.0  0.60277  0.77514  0.78113  1.0000
  S   S312      1.0  0.56139  0.77983  0.78010  1.0000
  H   H1920     1.0  0.48813  0.95860  0.88973  1.0000
  S   S313      1.0  0.61352  0.81203  0.78145  1.0000
  Fe  Fe161     1.0  0.58999  0.91232  0.89065  1.0000
  S   S314      1.0  0.54926  0.91843  0.89039  1.0000
  S   S315      1.0  0.60523  0.94118  0.89906  1.0000
  S   S316      1.0  0.61506  0.91391  0.87020  1.0000
  Fe  Fe162     1.0  0.42728  0.74801  0.78483  1.0000
  S   S317      1.0  0.42160  0.78851  0.77935  1.0000
  S   S318      1.0  0.46574  0.72729  0.78664  1.0000
  Fe  Fe163     1.0  0.37192  0.74487  0.78665  1.0000
  S   S319      1.0  0.36321  0.78578  0.78158  1.0000
  H   H1921     1.0  0.57822  0.91433  0.82856  1.0000
  Fe  Fe164     1.0  0.39541  0.78218  0.76469  1.0000
  S   S320      1.0  0.39923  0.79946  0.74157  1.0000
  Fe  Fe165     1.0  0.39016  0.78811  0.79691  1.0000
  S   S321      1.0  0.38471  0.81747  0.81205  1.0000
  S   S322      1.0  0.40307  0.74129  0.76893  1.0000
  S   S323      1.0  0.39679  0.74762  0.80322  1.0000
  C   C2418     1.0  0.56632  0.93271  0.94005  1.0000
  Fe  Fe166     1.0  0.45608  0.83667  0.90598  1.0000
  S   S324      1.0  0.42909  0.81033  0.91238  1.0000
  S   S325      1.0  0.49585  0.82568  0.90874  1.0000
  Fe  Fe167     1.0  0.41811  0.87777  0.89562  1.0000
  S   S326      1.0  0.38753  0.85483  0.90143  1.0000
  S   S327      1.0  0.41705  0.91535  0.88320  1.0000
  Fe  Fe168     1.0  0.40520  0.84186  0.92181  1.0000
  S   S328      1.0  0.38394  0.83885  0.94409  1.0000
  Fe  Fe169     1.0  0.41423  0.82536  0.89147  1.0000
  S   S329      1.0  0.40691  0.79808  0.87722  1.0000
  S   S330      1.0  0.43322  0.86737  0.91663  1.0000
  S   S331      1.0  0.44353  0.84910  0.88445  1.0000
  C   C2419     1.0  0.39094  0.81197  0.83016  1.0000
  C   C2420     1.0  0.39127  0.83179  0.83776  1.0000
  C   C2421     1.0  0.39639  0.82796  0.85213  1.0000
  C   C2422     1.0  0.40055  0.80425  0.85913  1.0000
  C   C2423     1.0  0.39948  0.78455  0.85162  1.0000
  C   C2424     1.0  0.39527  0.78831  0.83715  1.0000
  H   H1922     1.0  0.38798  0.85019  0.83244  1.0000
  H   H1923     1.0  0.39709  0.84330  0.85777  1.0000
  H   H1924     1.0  0.40204  0.76623  0.85704  1.0000
  H   H1925     1.0  0.39518  0.77297  0.83141  1.0000
  C   C2425     1.0  0.37375  0.81253  0.73246  1.0000
  C   C2426     1.0  0.54430  0.82836  0.72206  1.0000
  C   C2427     1.0  0.38566  0.86697  0.74133  1.0000
  C   C2428     1.0  0.59476  0.96984  0.84366  1.0000
  C   C2429     1.0  0.57075  0.99121  0.87386  1.0000
  H   H1926     1.0  0.65263  0.97185  0.89512  1.0000
  H   H1927     1.0  0.59809  0.88517  0.93862  1.0000
  H   H1928     1.0  0.54129  0.83959  0.94278  1.0000
  H   H1929     1.0  0.37682  0.95768  0.92408  1.0000
  H   H1930     1.0  0.60753  0.81070  0.96251  1.0000
  H   H1931     1.0  0.59033  0.99207  0.89181  1.0000
  H   H1932     1.0  0.48343  0.87569  0.73645  1.0000
  H   H1933     1.0  0.50718  0.97490  0.83712  1.0000
  C   C2430     1.0  0.42707  0.97418  0.93639  1.0000
  H   H1934     1.0  0.50120  0.82137  0.94817  1.0000
  H   H1935     1.0  0.35588  0.95431  0.87443  1.0000
  C   C2431     1.0  0.40135  0.98502  0.89247  1.0000
  H   H1936     1.0  0.36497  0.68526  0.77663  1.0000
  C   C2432     1.0  0.47402  0.88124  0.96207  1.0000
  C   C2433     1.0  0.41013  0.96417  0.88557  1.0000
  C   C2434     1.0  0.40704  0.94088  0.89254  1.0000
  C   C2435     1.0  0.39534  0.93849  0.90654  1.0000
  C   C2436     1.0  0.38602  0.95943  0.91330  1.0000
  H   H1937     1.0  0.41885  0.96619  0.87468  1.0000
  H   H1938     1.0  0.39299  0.92058  0.91204  1.0000
  C   C2437     1.0  0.53498  0.89234  0.89570  1.0000
  C   C2438     1.0  0.50956  0.89451  0.89602  1.0000
  C   C2439     1.0  0.49771  0.87387  0.89956  1.0000
  C   C2440     1.0  0.51107  0.85111  0.90338  1.0000
  C   C2441     1.0  0.53646  0.84893  0.90338  1.0000
  C   C2442     1.0  0.54847  0.86953  0.89938  1.0000
  H   H1939     1.0  0.49907  0.91205  0.89314  1.0000
  H   H1940     1.0  0.47818  0.87570  0.89935  1.0000
  H   H1941     1.0  0.54683  0.83136  0.90641  1.0000
  H   H1942     1.0  0.56808  0.86769  0.89909  1.0000
  C   C2443     1.0  0.53540  0.76429  0.78229  1.0000
  C   C2444     1.0  0.53692  0.73886  0.78481  1.0000
  C   C2445     1.0  0.51546  0.72774  0.78624  1.0000
  C   C2446     1.0  0.49239  0.74187  0.78495  1.0000
  C   C2447     1.0  0.49103  0.76724  0.78238  1.0000
  C   C2448     1.0  0.51231  0.77834  0.78125  1.0000
  H   H1943     1.0  0.55457  0.72780  0.78565  1.0000
  H   H1944     1.0  0.51676  0.70809  0.78825  1.0000
  H   H1945     1.0  0.47363  0.77834  0.78110  1.0000
  H   H1946     1.0  0.51088  0.79799  0.77938  1.0000
  C   C2449     1.0  0.63615  0.83018  0.83100  1.0000
  C   C2450     1.0  0.62263  0.84978  0.83772  1.0000
  H   H1947     1.0  0.61897  0.87166  0.85510  1.0000
  H   H1948     1.0  0.60615  0.85930  0.83359  1.0000
  P   P82       1.0  0.50142  0.82334  0.74093  1.0000
  H   H1949     1.0  0.54538  0.94532  0.83760  1.0000
  C   C2451     1.0  0.51465  0.88372  0.94923  1.0000
  H   H1950     1.0  0.51917  0.87426  0.92763  1.0000
  C   C2452     1.0  0.60177  0.82662  0.93178  1.0000
  H   H1951     1.0  0.44780  0.87031  0.95041  1.0000
  C   C2453     1.0  0.35783  0.67954  0.83765  1.0000
  C   C2454     1.0  0.40347  0.70992  0.86254  1.0000
  H   H1952     1.0  0.45879  0.93481  0.96032  1.0000
  C   C2455     1.0  0.33190  0.89497  0.91553  1.0000
  C   C2456     1.0  0.34786  0.66314  0.84845  1.0000
  H   H1953     1.0  0.57590  0.97169  0.87373  1.0000
  S   S332      1.0  0.33706  0.72645  0.79082  1.0000
  C   C2457     1.0  0.35118  0.89550  0.73356  1.0000
  C   C2458     1.0  0.46964  0.94041  0.93774  1.0000
  C   C2459     1.0  0.46396  0.95284  0.92459  1.0000
  C   C2460     1.0  0.44274  0.96981  0.92392  1.0000
  H   H1954     1.0  0.40917  0.91903  0.95737  1.0000
  C   C2461     1.0  0.49524  0.78723  0.96057  1.0000
  C   C2462     1.0  0.57001  0.96754  0.84362  1.0000
  C   C2463     1.0  0.33851  0.66147  0.77507  1.0000
  C   C2464     1.0  0.39836  0.83388  0.96003  1.0000
  C   C2465     1.0  0.49146  0.83610  0.75763  1.0000
  C   C2466     1.0  0.34428  0.69045  0.82656  1.0000
  C   C2467     1.0  0.36286  0.96763  0.96339  1.0000
  H   H1955     1.0  0.36485  0.94861  0.96776  1.0000
  C   C2468     1.0  0.48229  0.96095  0.85444  1.0000
  H   H1956     1.0  0.47141  0.66362  0.81070  1.0000
  C   C2469     1.0  0.34616  0.96898  0.88019  1.0000
  H   H1957     1.0  0.48588  0.92713  0.93826  1.0000
  H   H1958     1.0  0.59991  0.98517  0.84779  1.0000
  H   H1959     1.0  0.39022  0.94519  0.72207  1.0000
  C   C2470     1.0  0.36091  0.87666  0.74335  1.0000
  C   C2471     1.0  0.35038  0.81781  0.73980  1.0000
  C   C2472     1.0  0.36218  0.74616  0.73658  1.0000
  C   C2473     1.0  0.63981  0.73960  0.72699  1.0000
  H   H1960     1.0  0.36635  0.90911  0.88838  1.0000
  C   C2474     1.0  0.58280  0.92997  0.83269  1.0000
  C   C2475     1.0  0.64969  0.87980  0.94879  1.0000
  C   C2476     1.0  0.50553  0.85117  0.76267  1.0000
  C   C2477     1.0  0.55604  0.75204  0.84564  1.0000
  C   C2478     1.0  0.56830  0.75237  0.83177  1.0000
  C   C2479     1.0  0.55596  0.74914  0.82048  1.0000
  C   C2480     1.0  0.53146  0.74530  0.82306  1.0000
  C   C2481     1.0  0.51912  0.74459  0.83697  1.0000
  C   C2482     1.0  0.53142  0.74854  0.84822  1.0000
  P   P83       1.0  0.48709  0.74116  0.83981  1.0000
  C   C2483     1.0  0.48213  0.71624  0.83088  1.0000
  C   C2484     1.0  0.47719  0.73282  0.85851  1.0000
  C   C2485     1.0  0.45485  0.74384  0.86508  1.0000
  C   C2486     1.0  0.44747  0.73734  0.87957  1.0000
  C   C2487     1.0  0.46209  0.71935  0.88756  1.0000
  C   C2488     1.0  0.48399  0.70768  0.88100  1.0000
  C   C2489     1.0  0.49143  0.71424  0.86651  1.0000
  C   C2490     1.0  0.50105  0.69698  0.82830  1.0000
  C   C2491     1.0  0.49712  0.67797  0.82113  1.0000
  C   C2492     1.0  0.47423  0.67791  0.81667  1.0000
  C   C2493     1.0  0.45515  0.69668  0.81955  1.0000
  C   C2494     1.0  0.45904  0.71573  0.82668  1.0000
  C   C2495     1.0  0.47129  0.76983  0.83226  1.0000
  C   C2496     1.0  0.46656  0.77317  0.81795  1.0000
  C   C2497     1.0  0.45536  0.79571  0.81195  1.0000
  C   C2498     1.0  0.44934  0.81527  0.82006  1.0000
  C   C2499     1.0  0.45451  0.81227  0.83420  1.0000
  C   C2500     1.0  0.46544  0.78966  0.84025  1.0000
  H   H1961     1.0  0.56552  0.75491  0.85436  1.0000
  H   H1962     1.0  0.58726  0.75554  0.82968  1.0000
  H   H1963     1.0  0.56527  0.75004  0.80966  1.0000
  H   H1964     1.0  0.52202  0.74327  0.81415  1.0000
  H   H1965     1.0  0.52204  0.74941  0.85892  1.0000
  H   H1966     1.0  0.44311  0.75754  0.85911  1.0000
  H   H1967     1.0  0.43044  0.74647  0.88460  1.0000
  H   H1968     1.0  0.45642  0.71446  0.89882  1.0000
  H   H1969     1.0  0.49525  0.69358  0.88717  1.0000
  H   H1970     1.0  0.50839  0.70494  0.86155  1.0000
  H   H1971     1.0  0.51895  0.69676  0.83160  1.0000
  H   H1972     1.0  0.51196  0.66351  0.81878  1.0000
  H   H1973     1.0  0.54135  0.81824  0.79727  1.0000
  H   H1974     1.0  0.43769  0.69702  0.81565  1.0000
  H   H1975     1.0  0.44430  0.73052  0.82847  1.0000
  H   H1976     1.0  0.47151  0.75845  0.81136  1.0000
  H   H1977     1.0  0.45117  0.79795  0.80105  1.0000
  H   H1978     1.0  0.44013  0.83255  0.81548  1.0000
  H   H1979     1.0  0.44956  0.82733  0.84058  1.0000
  H   H1980     1.0  0.46931  0.78762  0.85116  1.0000
  H   H1981     1.0  0.43519  0.82717  0.94963  1.0000
  C   C2501     1.0  0.38860  0.98272  0.90619  1.0000
  Fe  Fe170     1.0  0.63086  0.91107  0.90953  1.0000
  C   C2502     1.0  0.49806  0.86028  0.77581  1.0000
  C   C2503     1.0  0.55820  0.83145  0.81318  1.0000
  C   C2504     1.0  0.54126  0.81924  0.80858  1.0000
  C   C2505     1.0  0.52465  0.80780  0.81859  1.0000
  C   C2506     1.0  0.52515  0.80836  0.83322  1.0000
  C   C2507     1.0  0.54193  0.82084  0.83796  1.0000
  C   C2508     1.0  0.55834  0.83251  0.82777  1.0000
  P   P84       1.0  0.54303  0.82239  0.85677  1.0000
  C   C2509     1.0  0.52205  0.80465  0.86861  1.0000
  C   C2510     1.0  0.57380  0.81168  0.86124  1.0000
  C   C2511     1.0  0.58096  0.81795  0.87372  1.0000
  C   C2512     1.0  0.60477  0.81026  0.87720  1.0000
  C   C2513     1.0  0.62146  0.79579  0.86844  1.0000
  C   C2514     1.0  0.61441  0.78919  0.85612  1.0000
  C   C2515     1.0  0.59077  0.79730  0.85243  1.0000
  C   C2516     1.0  0.49689  0.80820  0.86719  1.0000
  C   C2517     1.0  0.48083  0.79504  0.87668  1.0000
  C   C2518     1.0  0.48969  0.77802  0.88758  1.0000
  C   C2519     1.0  0.51467  0.77395  0.88896  1.0000
  C   C2520     1.0  0.53077  0.78715  0.87956  1.0000
  C   C2521     1.0  0.53642  0.85457  0.85887  1.0000
  C   C2522     1.0  0.51229  0.86630  0.86167  1.0000
  C   C2523     1.0  0.50771  0.89135  0.86267  1.0000
  C   C2524     1.0  0.52718  0.90477  0.86129  1.0000
  C   C2525     1.0  0.55118  0.89328  0.85871  1.0000
  C   C2526     1.0  0.55578  0.86849  0.85717  1.0000
  H   H1982     1.0  0.57170  0.83963  0.80548  1.0000
  H   H1983     1.0  0.51186  0.79796  0.81495  1.0000
  H   H1984     1.0  0.51284  0.79858  0.84071  1.0000
  H   H1985     1.0  0.57180  0.84182  0.83111  1.0000
  H   H1986     1.0  0.56825  0.82928  0.88056  1.0000
  H   H1987     1.0  0.61054  0.81610  0.88647  1.0000
  H   H1988     1.0  0.64015  0.79050  0.87091  1.0000
  H   H1989     1.0  0.62766  0.77880  0.84901  1.0000
  H   H1990     1.0  0.58615  0.79287  0.84251  1.0000
  H   H1991     1.0  0.48952  0.82109  0.85876  1.0000
  H   H1992     1.0  0.46136  0.79828  0.87576  1.0000
  H   H1993     1.0  0.47710  0.76841  0.89515  1.0000
  H   H1994     1.0  0.52147  0.76117  0.89764  1.0000
  H   H1995     1.0  0.54990  0.78380  0.88115  1.0000
  H   H1996     1.0  0.49689  0.85644  0.86335  1.0000
  H   H1997     1.0  0.48911  0.90012  0.86524  1.0000
  H   H1998     1.0  0.52385  0.92376  0.86301  1.0000
  H   H1999     1.0  0.56631  0.90341  0.85847  1.0000
  H   H2000     1.0  0.57459  0.86021  0.85497  1.0000
  C   C2527     1.0  0.50416  0.74901  0.74920  1.0000
  C   C2528     1.0  0.48010  0.74566  0.74833  1.0000
  C   C2529     1.0  0.46280  0.76569  0.74462  1.0000
  H   H2001     1.0  0.44405  0.76313  0.74412  1.0000
  C   C2530     1.0  0.49356  0.79273  0.74293  1.0000
  C   C2531     1.0  0.51087  0.77242  0.74659  1.0000
  C   C2532     1.0  0.58518  0.82083  0.72941  1.0000
  H   H2002     1.0  0.48643  0.78130  0.95242  1.0000
  C   C2533     1.0  0.54996  0.81544  0.74688  1.0000
  C   C2534     1.0  0.57529  0.81468  0.74350  1.0000
  C   C2535     1.0  0.40080  0.87623  0.72957  1.0000
  H   H2003     1.0  0.36806  0.74001  0.83749  1.0000
  C   C2536     1.0  0.34943  0.73617  0.74912  1.0000
  H   H2004     1.0  0.62412  0.96841  0.95217  1.0000
  C   C2537     1.0  0.46919  0.83139  0.76563  1.0000
  C   C2538     1.0  0.46158  0.84085  0.77864  1.0000
  C   C2539     1.0  0.65379  0.86636  0.96214  1.0000
  H   H2005     1.0  0.45551  0.80440  0.73941  1.0000
  H   H2006     1.0  0.35335  0.88798  0.94789  1.0000
  H   H2007     1.0  0.51739  0.73355  0.75248  1.0000
  H   H2008     1.0  0.47472  0.72762  0.75093  1.0000
  C   C2540     1.0  0.50356  0.80989  0.95819  1.0000
  C   C2541     1.0  0.60733  0.93210  0.83314  1.0000
  H   H2009     1.0  0.52938  0.77448  0.74790  1.0000
  H   H2010     1.0  0.54261  0.81059  0.75784  1.0000
  H   H2011     1.0  0.58723  0.80929  0.75186  1.0000
  H   H2012     1.0  0.37625  0.68343  0.83771  1.0000
  H   H2013     1.0  0.57128  0.80649  0.93398  1.0000
  H   H2014     1.0  0.62631  0.74637  0.73539  1.0000
  H   H2015     1.0  0.45765  0.82036  0.76191  1.0000
  H   H2016     1.0  0.44437  0.83709  0.78472  1.0000
  C   C2542     1.0  0.63000  0.85702  0.84987  1.0000
  Fe  Fe171     1.0  0.63246  0.94045  0.87965  1.0000
  S   S333      1.0  0.61345  0.88177  0.90227  1.0000
  S   S334      1.0  0.63178  0.92169  0.93183  1.0000
  H   H2017     1.0  0.34276  0.86367  0.93039  1.0000
  Fe  Fe172     1.0  0.64009  0.88529  0.88215  1.0000
  C   C2543     1.0  0.51307  0.97293  0.87251  1.0000
  C   C2544     1.0  0.36478  0.72877  0.87386  1.0000
  C   C2545     1.0  0.38777  0.71476  0.87491  1.0000
  H   H2018     1.0  0.47724  0.86527  0.92863  1.0000
  C   C2546     1.0  0.61329  0.95213  0.83854  1.0000
  Fe  Fe173     1.0  0.64658  0.80162  0.76619  1.0000
  H   H2019     1.0  0.41057  0.98708  0.93544  1.0000
  H   H2020     1.0  0.39297  0.85183  0.74869  1.0000
  C   C2547     1.0  0.46944  0.78912  0.74194  1.0000
  C   C2548     1.0  0.47934  0.86736  0.72759  1.0000
  C   C2549     1.0  0.47616  0.85503  0.78382  1.0000
  C   C2550     1.0  0.53497  0.92702  0.92605  1.0000
  H   H2021     1.0  0.47590  0.94917  0.91491  1.0000
  C   C2551     1.0  0.53643  0.95015  0.91849  1.0000
  C   C2552     1.0  0.49218  0.96242  0.87826  1.0000
  C   C2553     1.0  0.46640  0.87405  0.95011  1.0000
  C   C2554     1.0  0.35297  0.99225  0.87648  1.0000
  C   C2555     1.0  0.56776  0.95576  0.93244  1.0000
  P   P85       1.0  0.54614  0.99074  0.85010  1.0000
  C   C2556     1.0  0.34595  0.68255  0.77879  1.0000
  H   H2022     1.0  0.43826  0.97949  0.91371  1.0000
  C   C2557     1.0  0.37323  0.73314  0.84803  1.0000
  S   S335      1.0  0.66003  0.85242  0.87141  1.0000
  C   C2558     1.0  0.39609  0.71893  0.84912  1.0000
  C   C2559     1.0  0.38260  0.98102  0.96180  1.0000
  C   C2560     1.0  0.45417  0.94483  0.95024  1.0000
  H   H2023     1.0  0.52549  0.95654  0.90975  1.0000
  H   H2024     1.0  0.46111  0.94742  0.87381  1.0000
  H   H2025     1.0  0.63230  0.95365  0.83915  1.0000
  H   H2026     1.0  0.60486  0.82034  0.72684  1.0000
  H   H2027     1.0  0.58092  0.96649  0.93475  1.0000
  H   H2028     1.0  0.35644  0.87404  0.85262  1.0000
  H   H2029     1.0  0.42137  0.69923  0.86335  1.0000
  H   H2030     1.0  0.62172  0.91807  0.82951  1.0000
  H   H2031     1.0  0.35196  0.64816  0.76999  1.0000
  H   H2032     1.0  0.47041  0.86205  0.79400  1.0000
  H   H2033     1.0  0.52281  0.91606  0.92291  1.0000
  C   C2561     1.0  0.55319  0.89355  0.96580  1.0000
  H   H2034     1.0  0.61509  0.81190  0.92796  1.0000
  C   C2562     1.0  0.55274  0.96458  0.92171  1.0000
  H   H2035     1.0  0.62833  0.85110  0.93064  1.0000
  H   H2036     1.0  0.57853  0.92617  0.94812  1.0000
  C   C2563     1.0  0.63599  0.90307  0.94820  1.0000
  C   C2564     1.0  0.34331  0.92256  0.93543  1.0000
  C   C2565     1.0  0.51871  0.97773  0.85762  1.0000
  H   H2037     1.0  0.38329  0.88298  0.86953  1.0000
  C   C2566     1.0  0.50674  0.87640  0.93731  1.0000
  C   C2567     1.0  0.59203  0.86807  0.93774  1.0000
  H   H2038     1.0  0.35898  0.77600  0.87704  1.0000
  C   C2568     1.0  0.60924  0.84871  0.93329  1.0000
  S   S336      1.0  0.63859  0.97633  0.86676  1.0000
  C   C2569     1.0  0.36624  0.90488  0.72166  1.0000
  C   C2570     1.0  0.47689  0.95624  0.86926  1.0000
  C   C2571     1.0  0.34171  0.81203  0.88009  1.0000
  H   H2039     1.0  0.47044  0.95603  0.84750  1.0000
  P   P86       1.0  0.54587  0.88976  0.94835  1.0000
  C   C2572     1.0  0.49808  0.88596  0.96171  1.0000
  C   C2573     1.0  0.65122  0.84490  0.85544  1.0000
  C   C2574     1.0  0.56419  0.94758  0.83792  1.0000
  H   H2040     1.0  0.40805  0.71499  0.83951  1.0000
  H   H2041     1.0  0.34749  0.81336  0.75128  1.0000
  C   C2575     1.0  0.34944  0.76187  0.72649  1.0000
  C   C2576     1.0  0.53421  0.82240  0.73625  1.0000
  C   C2577     1.0  0.62619  0.91257  0.96103  1.0000
  H   H2042     1.0  0.52865  0.92749  0.96723  1.0000
  C   C2578     1.0  0.56003  0.84271  0.94000  1.0000
  C   C2579     1.0  0.62423  0.98772  0.94909  1.0000
  C   C2580     1.0  0.54947  0.91829  0.93717  1.0000
  H   H2043     1.0  0.39346  0.70777  0.88533  1.0000
  H   H2044     1.0  0.38198  0.74223  0.73484  1.0000
  C   C2581     1.0  0.36403  0.89056  0.87040  1.0000
  C   C2582     1.0  0.43276  0.96181  0.94970  1.0000
  H   H2045     1.0  0.35929  0.72432  0.75709  1.0000
  C   C2583     1.0  0.56725  0.86530  0.94112  1.0000
  H   H2046     1.0  0.35547  0.81513  0.88643  1.0000
  C   C2584     1.0  0.48285  0.87144  0.93780  1.0000
  C   C2585     1.0  0.57715  0.82362  0.93514  1.0000
  C   C2586     1.0  0.50313  0.97161  0.84862  1.0000
  H   H2047     1.0  0.61528  0.93033  0.96076  1.0000
  C   C2587     1.0  0.39119  0.89518  0.71979  1.0000
  Fe  Fe174     1.0  0.65614  0.75135  0.78288  1.0000
  H   H2048     1.0  0.52484  0.97690  0.87979  1.0000
  H   H2049     1.0  0.33287  0.95391  0.92081  1.0000
  H   H2050     1.0  0.50934  0.87137  0.77979  1.0000
  H   H2051     1.0  0.55422  0.98225  0.91560  1.0000
  H   H2052     1.0  0.34910  0.86901  0.75228  1.0000
  H   H2053     1.0  0.66470  0.84851  0.96254  1.0000
  H   H2054     1.0  0.39944  0.98667  0.72297  1.0000
  C   C2588     1.0  0.34627  0.89714  0.93817  1.0000
  H   H2055     1.0  0.35214  0.70293  0.81804  1.0000
  C   C2589     1.0  0.64814  0.99103  0.89144  1.0000
  H   H2056     1.0  0.52237  0.85583  0.75657  1.0000
  C   C2590     1.0  0.34894  0.88565  0.86087  1.0000
  C   C2591     1.0  0.66471  0.73658  0.72866  1.0000
  H   H2057     1.0  0.62468  0.99162  0.75411  1.0000
  H   H2058     1.0  0.35851  0.65448  0.85698  1.0000
  C   C2592     1.0  0.48583  0.84219  0.72698  1.0000
  H   H2059     1.0  0.65773  0.87248  0.93900  1.0000
  H   H2060     1.0  0.35277  0.73232  0.88354  1.0000
  C   C2593     1.0  0.34038  0.88340  0.92826  1.0000
  S   S337      1.0  0.65972  0.91231  0.89032  1.0000
  H   H2061     1.0  0.34815  0.93319  0.94304  1.0000
  C   C2594     1.0  0.35757  0.73855  0.86041  1.0000
  H   H2062     1.0  0.56335  0.80939  0.96860  1.0000
  H   H2063     1.0  0.41980  0.86816  0.72790  1.0000
  S   S338      1.0  0.65914  0.83064  0.74860  1.0000
  H   H2064     1.0  0.65862  0.79101  0.73154  1.0000
  H   H2065     1.0  0.61474  0.98613  0.92803  1.0000
  H   H2066     1.0  0.63658  0.99180  0.72812  1.0000
  C   C2595     1.0  0.34014  0.97879  0.95931  1.0000
  C   C2596     1.0  0.35442  0.90545  0.88107  1.0000
  H   H2067     1.0  0.52014  0.83572  0.96706  1.0000
  H   H2068     1.0  0.58066  0.86149  0.96749  1.0000
  P   P87       1.0  0.41259  0.96652  0.96598  1.0000
  H   H2069     1.0  0.33569  0.80419  0.81136  1.0000
  H   H2070     1.0  0.34169  0.79536  0.83681  1.0000
  C   C2597     1.0  0.34351  0.78962  0.87477  1.0000
  C   C2598     1.0  0.33463  0.93425  0.92273  1.0000
  H   H2071     1.0  0.33179  0.90213  0.73516  1.0000
  C   C2599     1.0  0.33163  0.78381  0.83226  1.0000
  Fe  Fe175     1.0  0.75878  0.34657  0.16067  1.0000
  S   S339      1.0  0.79408  0.32531  0.16721  1.0000
  S   S340      1.0  0.72640  0.33255  0.15358  1.0000
  Fe  Fe176     1.0  0.77353  0.39575  0.16569  1.0000
  S   S341      1.0  0.80971  0.37786  0.17265  1.0000
  S   S342      1.0  0.75891  0.43631  0.16373  1.0000
  Fe  Fe177     1.0  0.81181  0.35613  0.15410  1.0000
  S   S343      1.0  0.84749  0.35060  0.13943  1.0000
  Fe  Fe178     1.0  0.78887  0.34889  0.18509  1.0000
  H   H2072     1.0  0.68308  0.30833  0.17876  1.0000
  S   S344      1.0  0.77695  0.37586  0.14642  1.0000
  S   S345      1.0  0.75225  0.36831  0.17938  1.0000
  S   S346      1.0  0.68035  0.16467  0.15901  1.0000
  S   S347      1.0  0.70329  0.22374  0.15558  1.0000
  C   C2600     1.0  0.89327  0.44104  0.11930  1.0000
  C   C2601     1.0  0.81615  0.47066  0.16837  1.0000
  H   H2073     1.0  0.87525  0.33253  0.21526  1.0000
  Fe  Fe179     1.0  0.91945  0.39720  0.03708  1.0000
  S   S348      1.0  0.88498  0.38423  0.03363  1.0000
  S   S349      1.0  0.92861  0.43174  0.02437  1.0000
  Fe  Fe180     1.0  0.93811  0.35024  0.05447  1.0000
  S   S350      1.0  0.90538  0.33282  0.05199  1.0000
  S   S351      1.0  0.96636  0.32987  0.06831  1.0000
  Fe  Fe181     1.0  0.90969  0.34987  0.02895  1.0000
  S   S352      1.0  0.91192  0.33086  0.00903  1.0000
  Fe  Fe182     1.0  0.88391  0.36892  0.05692  1.0000
  S   S353      1.0  0.84849  0.37394  0.07184  1.0000
  S   S354      1.0  0.94422  0.36388  0.03128  1.0000
  S   S355      1.0  0.91635  0.38532  0.06069  1.0000
  C   C2602     1.0  0.93590  0.45248  0.03457  1.0000
  C   C2603     1.0  0.74210  0.38751  0.10488  1.0000
  H   H2074     1.0  0.94331  0.42599  0.05268  1.0000
  C   C2604     1.0  0.74095  0.24738  0.19490  1.0000
  H   H2075     1.0  0.82763  0.48145  0.19451  1.0000
  S   S356      1.0  0.78876  0.33321  0.20851  1.0000
  H   H2076     1.0  0.74860  0.48869  0.16109  1.0000
  H   H2077     1.0  0.87835  0.47900  0.12052  1.0000
  H   H2078     1.0  0.87141  0.39968  0.97847  1.0000
  H   H2079     1.0  0.86476  0.39080  0.17028  1.0000
  H   H2080     1.0  0.84073  0.42704  0.10200  1.0000
  H   H2081     1.0  0.71944  0.28044  0.18656  1.0000
  C   C2605     1.0  0.94270  0.44488  0.04827  1.0000
  C   C2606     1.0  0.77062  0.40172  0.20714  1.0000
  C   C2607     1.0  0.75798  0.23681  0.20438  1.0000
  C   C2608     1.0  0.87193  0.46635  0.01548  1.0000
  C   C2609     1.0  0.87745  0.44030  0.07274  1.0000
  C   C2610     1.0  0.93532  0.47687  0.02879  1.0000
  H   H2082     1.0  0.92984  0.48276  0.01823  1.0000
  C   C2611     1.0  0.83378  0.17273  0.18532  1.0000
  H   H2083     1.0  0.94779  0.39953  0.99550  1.0000
  C   C2612     1.0  0.77746  0.45879  0.16488  1.0000
  C   C2613     1.0  0.80186  0.45242  0.16752  1.0000
  H   H2084     1.0  0.93248  0.44342  0.99546  1.0000
  H   H2085     1.0  0.80957  0.43341  0.16911  1.0000
  H   H2086     1.0  0.71337  0.08353  0.13441  1.0000
  C   C2614     1.0  0.84764  0.35833  0.12068  1.0000
  C   C2615     1.0  0.87000  0.35593  0.11177  1.0000
  C   C2616     1.0  0.87060  0.36093  0.09679  1.0000
  C   C2617     1.0  0.84881  0.36851  0.09062  1.0000
  C   C2618     1.0  0.82654  0.37138  0.09954  1.0000
  C   C2619     1.0  0.82593  0.36616  0.11448  1.0000
  H   H2087     1.0  0.88689  0.34980  0.11644  1.0000
  H   H2088     1.0  0.88788  0.35858  0.09002  1.0000
  H   H2089     1.0  0.80959  0.37728  0.09488  1.0000
  H   H2090     1.0  0.80858  0.36777  0.12111  1.0000
  C   C2620     1.0  0.72048  0.30212  0.15414  1.0000
  C   C2621     1.0  0.73793  0.28195  0.15744  1.0000
  C   C2622     1.0  0.73232  0.25815  0.15775  1.0000
  C   C2623     1.0  0.70900  0.25419  0.15525  1.0000
  C   C2624     1.0  0.69149  0.27436  0.15204  1.0000
  C   C2625     1.0  0.69739  0.29817  0.15124  1.0000
  H   H2091     1.0  0.75573  0.28469  0.15972  1.0000
  H   H2092     1.0  0.74613  0.24269  0.16002  1.0000
  H   H2093     1.0  0.98784  0.37529  0.01657  1.0000
  H   H2094     1.0  0.88928  0.41833  0.09152  1.0000
  C   C2626     1.0  0.95330  0.41229  0.11543  1.0000
  C   C2627     1.0  0.91558  0.33875  0.97961  1.0000
  C   C2628     1.0  0.90575  0.34816  0.99249  1.0000
  C   C2629     1.0  0.89020  0.37044  0.99197  1.0000
  C   C2630     1.0  0.88383  0.38270  0.97874  1.0000
  H   H2095     1.0  0.89686  0.41746  0.16226  1.0000
  H   H2096     1.0  0.92770  0.32159  0.97991  1.0000
  H   H2097     1.0  0.88248  0.37789  0.00177  1.0000
  C   C2631     1.0  0.80259  0.47926  0.12188  1.0000
  H   H2098     1.0  0.86869  0.39346  0.13935  1.0000
  H   H2099     1.0  0.86154  0.49120  0.03141  1.0000
  C   C2632     1.0  0.69163  0.22000  0.20875  1.0000
  H   H2100     1.0  0.74310  0.16307  0.21781  1.0000
  P   P88       1.0  0.91689  0.44742  0.10487  1.0000
  C   C2633     1.0  0.79333  0.40558  0.21040  1.0000
  P   P89       1.0  0.82973  0.43387  0.21206  1.0000
  C   C2634     1.0  0.69729  0.08384  0.14224  1.0000
  C   C2635     1.0  0.75429  0.42131  0.20173  1.0000
  C   C2636     1.0  0.86961  0.48899  0.02058  1.0000
  C   C2637     1.0  0.66919  0.14102  0.21245  1.0000
  C   C2638     1.0  0.83319  0.46599  0.10282  1.0000
  H   H2101     1.0  0.84016  0.34024  0.20081  1.0000
  H   H2102     1.0  0.98093  0.43522  0.99621  1.0000
  C   C2639     1.0  0.67106  0.24574  0.19009  1.0000
  C   C2640     1.0  0.82848  0.27876  0.19833  1.0000
  C   C2641     1.0  0.84808  0.28013  0.18754  1.0000
  C   C2642     1.0  0.87078  0.26619  0.18952  1.0000
  C   C2643     1.0  0.87385  0.25090  0.20229  1.0000
  C   C2644     1.0  0.67862  0.04054  0.99482  1.0000
  H   H2103     1.0  0.74813  0.45993  0.19515  1.0000
  C   C2645     1.0  0.81296  0.43622  0.11921  1.0000
  C   C2646     1.0  0.94000  0.42088  0.10377  1.0000
  H   H2104     1.0  0.83504  0.46551  0.17038  1.0000
  H   H2105     1.0  0.81099  0.28985  0.19686  1.0000
  H   H2106     1.0  0.84575  0.29234  0.17776  1.0000
  H   H2107     1.0  0.88611  0.26757  0.18124  1.0000
  H   H2108     1.0  0.89167  0.24050  0.20375  1.0000
  H   H2109     1.0  0.84176  0.15450  0.18304  1.0000
  C   C2647     1.0  0.82526  0.31650  0.06533  1.0000
  C   C2648     1.0  0.82253  0.29631  0.05885  1.0000
  C   C2649     1.0  0.80699  0.27990  0.06579  1.0000
  C   C2650     1.0  0.79426  0.28360  0.07925  1.0000
  C   C2651     1.0  0.79695  0.30384  0.08586  1.0000
  C   C2652     1.0  0.81253  0.32027  0.07874  1.0000
  P   P90       1.0  0.78128  0.30855  0.10347  1.0000
  C   C2653     1.0  0.75796  0.28879  0.10872  1.0000
  C   C2654     1.0  0.80272  0.30142  0.11668  1.0000
  C   C2655     1.0  0.79455  0.29308  0.13089  1.0000
  C   C2656     1.0  0.81099  0.28695  0.14112  1.0000
  C   C2657     1.0  0.83560  0.28976  0.13737  1.0000
  C   C2658     1.0  0.84386  0.29827  0.12332  1.0000
  C   C2659     1.0  0.82755  0.30407  0.11300  1.0000
  C   C2660     1.0  0.73295  0.29829  0.10947  1.0000
  C   C2661     1.0  0.71517  0.28311  0.11459  1.0000
  C   C2662     1.0  0.72218  0.25838  0.11894  1.0000
  C   C2663     1.0  0.74698  0.24874  0.11813  1.0000
  C   C2664     1.0  0.76482  0.26383  0.11301  1.0000
  C   C2665     1.0  0.76684  0.33981  0.10387  1.0000
  C   C2666     1.0  0.76259  0.35513  0.09117  1.0000
  C   C2667     1.0  0.75061  0.37900  0.09170  1.0000
  C   C2668     1.0  0.74557  0.37214  0.11753  1.0000
  C   C2669     1.0  0.75812  0.34849  0.11705  1.0000
  H   H2110     1.0  0.83733  0.32930  0.06003  1.0000
  H   H2111     1.0  0.83249  0.29342  0.04847  1.0000
  H   H2112     1.0  0.80484  0.26426  0.06075  1.0000
  H   H2113     1.0  0.78235  0.27065  0.08437  1.0000
  H   H2114     1.0  0.81488  0.33608  0.08354  1.0000
  H   H2115     1.0  0.77540  0.29149  0.13413  1.0000
  H   H2116     1.0  0.80449  0.28054  0.15203  1.0000
  H   H2117     1.0  0.84818  0.28600  0.14539  1.0000
  H   H2118     1.0  0.86279  0.30118  0.12050  1.0000
  H   H2119     1.0  0.83449  0.31109  0.10233  1.0000
  H   H2120     1.0  0.72703  0.31745  0.10640  1.0000
  H   H2121     1.0  0.70544  0.34148  0.18201  1.0000
  C   C2670     1.0  0.66688  0.25811  0.21385  1.0000
  H   H2122     1.0  0.75228  0.22963  0.12176  1.0000
  H   H2123     1.0  0.78399  0.25618  0.11268  1.0000
  H   H2124     1.0  0.76828  0.34876  0.08084  1.0000
  H   H2125     1.0  0.73839  0.37846  0.12777  1.0000
  H   H2126     1.0  0.76056  0.33689  0.12700  1.0000
  C   C2671     1.0  0.87130  0.41211  0.13546  1.0000
  C   C2672     1.0  0.88289  0.46340  0.00156  1.0000
  H   H2127     1.0  0.95369  0.45611  0.06687  1.0000
  C   C2673     1.0  0.84619  0.19253  0.17998  1.0000
  C   C2674     1.0  0.79942  0.45497  0.12648  1.0000
  C   C2675     1.0  0.82999  0.44170  0.10745  1.0000
  C   C2676     1.0  0.73261  0.27244  0.19388  1.0000
  C   C2677     1.0  0.93272  0.43491  0.98592  1.0000
  C   C2678     1.0  0.97062  0.39123  0.11505  1.0000
  C   C2679     1.0  0.88431  0.42049  0.17182  1.0000
  C   C2680     1.0  0.68614  0.22443  0.19465  1.0000
  C   C2681     1.0  0.86701  0.16472  0.21457  1.0000
  C   C2682     1.0  0.97468  0.37854  0.10306  1.0000
  H   H2128     1.0  0.84599  0.47034  0.14019  1.0000
  C   C2683     1.0  0.85562  0.43134  0.14118  1.0000
  H   H2129     1.0  0.80139  0.16093  0.19742  1.0000
  H   H2130     1.0  0.68390  0.31367  0.14850  1.0000
  H   H2131     1.0  0.69351  0.21130  0.18721  1.0000
  C   C2684     1.0  0.72620  0.15702  0.18573  1.0000
  C   C2685     1.0  0.82761  0.48440  0.20551  1.0000
  H   H2132     1.0  0.84523  0.23142  0.17855  1.0000
  H   H2133     1.0  0.73485  0.17939  0.16593  1.0000
  P   P91       1.0  0.90778  0.47917  0.97509  1.0000
  H   H2134     1.0  0.68396  0.05822  0.19460  1.0000
  H   H2135     1.0  0.87045  0.20158  0.20575  1.0000
  H   H2136     1.0  0.93523  0.41468  0.08231  1.0000
  H   H2137     1.0  0.69162  0.36617  0.20209  1.0000
  C   C2686     1.0  0.90104  0.45402  0.08907  1.0000
  C   C2687     1.0  0.74145  0.28721  0.20213  1.0000
  C   C2688     1.0  0.83747  0.33333  0.21203  1.0000
  C   C2689     1.0  0.86815  0.30333  0.99494  1.0000
  C   C2690     1.0  0.83323  0.32900  0.97786  1.0000
  C   C2691     1.0  0.74156  0.16712  0.20648  1.0000
  C   C2692     1.0  0.98635  0.32402  0.01428  1.0000
  C   C2693     1.0  0.97262  0.30851  0.02378  1.0000
  C   C2694     1.0  0.98341  0.29312  0.03474  1.0000
  H   H2138     1.0  0.67962  0.06211  0.13114  1.0000
  H   H2139     1.0  0.97944  0.41880  0.06760  1.0000
  C   C2695     1.0  0.89213  0.48300  0.99277  1.0000
  C   C2696     1.0  0.73564  0.07644  0.20215  1.0000
  H   H2140     1.0  0.78650  0.45063  0.13573  1.0000
  C   C2697     1.0  0.94463  0.40832  0.09163  1.0000
  C   C2698     1.0  0.81898  0.48502  0.10972  1.0000
  H   H2141     1.0  0.98777  0.36199  0.10279  1.0000
  C   C2699     1.0  0.67417  0.01713  0.97598  1.0000
  C   C2700     1.0  0.72891  0.15243  0.20027  1.0000
  H   H2142     1.0  0.87246  0.15759  0.20441  1.0000
  C   C2701     1.0  0.69547  0.09709  0.15386  1.0000
  C   C2702     1.0  0.88916  0.43597  0.08514  1.0000
  C   C2703     1.0  0.94827  0.48239  0.09688  1.0000
  C   C2704     1.0  0.83574  0.21604  0.18280  1.0000
  H   H2143     1.0  0.71012  0.10702  0.15505  1.0000
  H   H2144     1.0  0.90039  0.45082  0.17629  1.0000
  H   H2145     1.0  0.91829  0.47257  0.13040  1.0000
  H   H2146     1.0  0.97717  0.33647  0.00627  1.0000
  H   H2147     1.0  0.95334  0.30899  0.02296  1.0000
  H   H2148     1.0  0.97244  0.28194  0.04246  1.0000
  C   C2705     1.0  0.81283  0.21983  0.19090  1.0000
  H   H2149     1.0  0.94998  0.42171  0.12488  1.0000
  H   H2150     1.0  0.73707  0.41822  0.19870  1.0000
  H   H2151     1.0  0.86861  0.46592  0.05450  1.0000
  H   H2152     1.0  0.73538  0.30672  0.20110  1.0000
  C   C2706     1.0  0.81092  0.17643  0.19347  1.0000
  H   H2153     1.0  0.86884  0.42603  0.06962  1.0000
  H   H2154     1.0  0.83598  0.39776  0.19188  1.0000
  C   C2707     1.0  0.66537  0.16494  0.21586  1.0000
  C   C2708     1.0  0.68938  0.33783  0.18934  1.0000
  C   C2709     1.0  0.99812  0.32951  0.06356  1.0000
  C   C2710     1.0  0.86673  0.29629  0.98156  1.0000
  C   C2711     1.0  0.87716  0.46281  0.06428  1.0000
  C   C2712     1.0  0.74999  0.19038  0.18335  1.0000
  C   C2713     1.0  0.85104  0.42896  0.19623  1.0000
  C   C2714     1.0  0.83158  0.26384  0.21121  1.0000
  H   H2155     1.0  0.67365  0.27158  0.14985  1.0000
  H   H2156     1.0  0.71878  0.07854  0.18284  1.0000
  C   C2715     1.0  0.73689  0.17588  0.17725  1.0000
  C   C2716     1.0  0.76633  0.25173  0.21288  1.0000
  H   H2157     1.0  0.98372  0.41414  0.02678  1.0000
  H   H2158     1.0  0.75088  0.08550  0.19694  1.0000
  H   H2159     1.0  0.98061  0.38448  0.12414  1.0000
  H   H2160     1.0  0.99577  0.35606  0.04499  1.0000
  H   H2161     1.0  0.73262  0.40592  0.10531  1.0000
  C   C2717     1.0  0.69577  0.99619  0.21794  1.0000
  H   H2162     1.0  0.80588  0.38994  0.21425  1.0000
  C   C2718     1.0  0.99424  0.46633  0.00174  1.0000
  H   H2163     1.0  0.73392  0.23657  0.18827  1.0000
  C   C2719     1.0  0.86996  0.44328  0.19199  1.0000
  C   C2720     1.0  0.94811  0.48628  0.05047  1.0000
  C   C2721     1.0  0.94183  0.41017  0.98585  1.0000
  C   C2722     1.0  0.89984  0.47693  0.08077  1.0000
  C   C2723     1.0  0.92289  0.44835  0.97396  1.0000
  H   H2164     1.0  0.94769  0.37954  0.97378  1.0000
  P   P92       1.0  0.76980  0.20458  0.20582  1.0000
  C   C2724     1.0  0.76749  0.48360  0.16314  1.0000
  H   H2165     1.0  0.70337  0.03854  0.97543  1.0000
  C   C2725     1.0  0.84974  0.30955  0.97273  1.0000
  C   C2726     1.0  0.71758  0.07249  0.19421  1.0000
  C   C2727     1.0  0.69776  0.06104  0.20095  1.0000
  C   C2728     1.0  0.69566  0.05382  0.21578  1.0000
  C   C2729     1.0  0.86587  0.18969  0.21538  1.0000
  H   H2166     1.0  0.86577  0.45087  0.02239  1.0000
  H   H2167     1.0  0.95177  0.47532  0.08668  1.0000
  H   H2168     1.0  0.90158  0.40162  0.12006  1.0000
  C   C2730     1.0  0.88808  0.48121  0.06837  1.0000
  C   C2731     1.0  0.79984  0.42923  0.20837  1.0000
  C   C2732     1.0  0.73405  0.06870  0.21682  1.0000
  H   H2169     1.0  0.72107  0.13750  0.20677  1.0000
  C   C2733     1.0  0.85239  0.32338  0.99969  1.0000
  H   H2170     1.0  0.88195  0.29375  0.00150  1.0000
  H   H2171     1.0  0.86382  0.18968  0.17356  1.0000
  H   H2172     1.0  0.80493  0.23828  0.19264  1.0000
  H   H2173     1.0  0.96467  0.37702  0.08215  1.0000
  H   H2174     1.0  0.67281  0.10884  0.17252  1.0000
  H   H2175     1.0  0.84090  0.42754  0.14947  1.0000
  C   C2734     1.0  0.96164  0.38705  0.09139  1.0000
  C   C2735     1.0  0.83480  0.33608  0.99121  1.0000
  C   C2736     1.0  0.88628  0.43927  0.17971  1.0000
  C   C2737     1.0  0.76052  0.44486  0.19977  1.0000
  C   C2738     1.0  0.67436  0.09823  0.16368  1.0000
  C   C2739     1.0  0.93220  0.47223  0.10791  1.0000
  C   C2740     1.0  0.80018  0.20004  0.19625  1.0000
  H   H2176     1.0  0.70301  0.20333  0.21229  1.0000
  C   C2741     1.0  0.68220  0.23691  0.21832  1.0000
  C   C2742     1.0  0.89004  0.41687  0.12454  1.0000
  H   H2177     1.0  0.68821  0.05292  0.99904  1.0000
  C   C2743     1.0  0.87691  0.46026  0.12481  1.0000
  C   C2744     1.0  0.68698  0.03261  0.98148  1.0000
  C   C2745     1.0  0.92924  0.48090  0.12134  1.0000
  C   C2746     1.0  0.94886  0.46183  0.05621  1.0000
  H   H2178     1.0  0.70794  0.00664  0.21061  1.0000
  H   H2179     1.0  0.75854  0.20460  0.17654  1.0000
  H   H2180     1.0  0.88457  0.44571  0.99783  1.0000
  C   C2747     1.0  0.82845  0.46466  0.21640  1.0000
  C   C2748     1.0  0.84971  0.40967  0.18849  1.0000
  H   H2181     1.0  0.85417  0.32929  0.00985  1.0000
  H   H2182     1.0  0.71577  0.14593  0.18109  1.0000
  H   H2183     1.0  0.98325  0.46607  0.01209  1.0000
  C   C2749     1.0  0.86618  0.40555  0.17629  1.0000
  H   H2184     1.0  0.81056  0.41740  0.12286  1.0000
  H   H2185     1.0  0.78767  0.46719  0.20096  1.0000
  H   H2186     1.0  0.74775  0.39085  0.08187  1.0000
  H   H2187     1.0  0.82266  0.35168  0.99490  1.0000
  C   C2750     1.0  0.75188  0.18655  0.19810  1.0000
  H   H2188     1.0  0.99806  0.43386  0.12539  1.0000
  H   H2189     1.0  0.87208  0.45769  0.19804  1.0000
  C   C2751     1.0  0.85848  0.45543  0.13591  1.0000
  Fe  Fe183     1.0  0.66873  0.20534  0.15744  1.0000
  C   C2752     1.0  0.85427  0.24960  0.21326  1.0000
  H   H2190     1.0  0.69594  0.29061  0.11550  1.0000
  H   H2191     1.0  0.84663  0.46996  0.09381  1.0000
  C   C2753     1.0  0.78318  0.44885  0.20303  1.0000
  C   C2754     1.0  0.67794  0.07183  0.14038  1.0000
  H   H2192     1.0  0.70840  0.24675  0.12324  1.0000
  H   H2193     1.0  0.87916  0.28076  0.97806  1.0000
  C   C2755     1.0  0.75825  0.27683  0.21167  1.0000
  H   H2194     1.0  0.90818  0.49153  0.08359  1.0000
  H   H2195     1.0  0.87588  0.40137  0.21690  1.0000
  H   H2196     1.0  0.81939  0.33899  0.97147  1.0000
  H   H2197     1.0  0.66718  0.99548  0.02775  1.0000
  H   H2198     1.0  0.76586  0.38342  0.20856  1.0000
  H   H2199     1.0  0.76512  0.28834  0.21805  1.0000
  C   C2756     1.0  0.81426  0.32859  0.21836  1.0000
  C   C2757     1.0  0.99288  0.44897  0.99274  1.0000
  H   H2200     1.0  0.99451  0.26891  0.98045  1.0000
  H   H2201     1.0  0.81131  0.49030  0.08034  1.0000
  C   C2758     1.0  0.68157  0.35174  0.20066  1.0000
  H   H2202     1.0  0.99391  0.47452  0.13385  1.0000
  C   C2759     1.0  0.67656  0.31918  0.18745  1.0000
  H   H2203     1.0  0.99617  0.44802  0.07946  1.0000
  H   H2204     1.0  0.66744  0.24889  0.17905  1.0000
  C   C2760     1.0  0.94208  0.39900  0.97356  1.0000
  Fe  Fe184     1.0  0.71520  0.13253  0.26918  1.0000
  S   S357      1.0  0.75126  0.10799  0.26575  1.0000
  S   S358      1.0  0.69448  0.15913  0.25321  1.0000
  Fe  Fe185     1.0  0.71326  0.12298  0.30168  1.0000
  S   S359      1.0  0.74921  0.09837  0.30075  1.0000
  H   H2205     1.0  0.81472  0.38427  0.25876  1.0000
  Fe  Fe186     1.0  0.76266  0.12631  0.28317  1.0000
  S   S360      1.0  0.80061  0.13908  0.28048  1.0000
  Fe  Fe187     1.0  0.73475  0.08209  0.28362  1.0000
  S   S361      1.0  0.73459  0.04073  0.28820  1.0000
  S   S362      1.0  0.72757  0.15200  0.28548  1.0000
  S   S363      1.0  0.69796  0.10562  0.28567  1.0000
  Fe  Fe188     1.0  0.91877  0.26182  0.28492  1.0000
  S   S364      1.0  0.91107  0.30221  0.27905  1.0000
  S   S365      1.0  0.95798  0.24241  0.28066  1.0000
  Fe  Fe189     1.0  0.86361  0.25709  0.29148  1.0000
  S   S366      1.0  0.85269  0.29779  0.28630  1.0000
  S   S367      1.0  0.83168  0.23500  0.29901  1.0000
  Fe  Fe190     1.0  0.88118  0.29472  0.26727  1.0000
  S   S368      1.0  0.87971  0.31449  0.24467  1.0000
  Fe  Fe191     1.0  0.88339  0.30185  0.29859  1.0000
  S   S369      1.0  0.88107  0.33261  0.31234  1.0000
  S   S370      1.0  0.89061  0.25398  0.27178  1.0000
  S   S371      1.0  0.89247  0.26172  0.30520  1.0000
  Fe  Fe192     1.0  0.92016  0.35202  0.41982  1.0000
  S   S372      1.0  0.93654  0.38595  0.41135  1.0000
  S   S373      1.0  0.92693  0.33403  0.44204  1.0000
  Fe  Fe193     1.0  0.90322  0.34720  0.39068  1.0000
  S   S374      1.0  0.91770  0.38127  0.38014  1.0000
  S   S375      1.0  0.88978  0.31963  0.37914  1.0000
  Fe  Fe194     1.0  0.95046  0.36735  0.39183  1.0000
  C   C2761     1.0  0.90314  0.21891  0.43765  1.0000
  Fe  Fe195     1.0  0.90224  0.39687  0.40065  1.0000
  S   S376      1.0  0.88112  0.43455  0.40155  1.0000
  S   S377      1.0  0.93713  0.33238  0.40106  1.0000
  S   S378      1.0  0.88464  0.36389  0.41043  1.0000
  H   H2206     1.0  0.70840  0.05906  0.35313  1.0000
  H   H2207     1.0  0.92444  0.27913  0.23383  1.0000
  C   C2762     1.0  0.68800  0.12736  0.23453  1.0000
  C   C2763     1.0  0.92479  0.45288  0.39532  1.0000
  C   C2764     1.0  0.89954  0.45791  0.39920  1.0000
  C   C2765     1.0  0.68455  0.08652  0.36418  1.0000
  H   H2208     1.0  0.93317  0.43454  0.39370  1.0000
  H   H2209     1.0  0.71873  0.18067  0.34786  1.0000
  H   H2210     1.0  0.67731  0.17911  0.35508  1.0000
  H   H2211     1.0  0.92742  0.48843  0.42720  1.0000
  H   H2212     1.0  0.77680  0.22758  0.25686  1.0000
  H   H2213     1.0  0.97657  0.40981  0.39132  1.0000
  H   H2214     1.0  0.86057  0.45162  0.33060  1.0000
  H   H2215     1.0  0.68080  0.03242  0.27602  1.0000
  H   H2216     1.0  0.95212  0.46431  0.29299  1.0000
  H   H2217     1.0  0.96705  0.25377  0.30849  1.0000
  C   C2766     1.0  0.98284  0.38148  0.34390  1.0000
  C   C2767     1.0  0.88922  0.32347  0.36036  1.0000
  C   C2768     1.0  0.88917  0.30293  0.35336  1.0000
  C   C2769     1.0  0.88748  0.30533  0.33857  1.0000
  C   C2770     1.0  0.88486  0.32847  0.33075  1.0000
  C   C2771     1.0  0.88510  0.34904  0.33772  1.0000
  C   C2772     1.0  0.88760  0.34654  0.35242  1.0000
  H   H2218     1.0  0.88985  0.28514  0.35945  1.0000
  H   H2219     1.0  0.88730  0.28938  0.33334  1.0000
  H   H2220     1.0  0.88309  0.36702  0.33176  1.0000
  H   H2221     1.0  0.88743  0.36252  0.35770  1.0000
  C   C2773     1.0  0.73372  0.01731  0.27741  1.0000
  C   C2774     1.0  0.73534  0.02145  0.26246  1.0000
  C   C2775     1.0  0.81213  0.23020  0.24472  1.0000
  C   C2776     1.0  0.93923  0.47175  0.39328  1.0000
  H   H2222     1.0  0.73727  0.03950  0.25709  1.0000
  C   C2777     1.0  0.87288  0.45345  0.33815  1.0000
  C   C2778     1.0  0.88971  0.47008  0.33463  1.0000
  H   H2223     1.0  0.70434  0.24712  0.38648  1.0000
  C   C2779     1.0  0.74823  0.20063  0.23391  1.0000
  C   C2780     1.0  0.68720  0.11559  0.33746  1.0000
  H   H2224     1.0  0.87184  0.47306  0.44064  1.0000
  H   H2225     1.0  0.71092  0.08486  0.32956  1.0000
  C   C2781     1.0  0.80846  0.16663  0.28502  1.0000
  C   C2782     1.0  0.83249  0.17210  0.28103  1.0000
  C   C2783     1.0  0.83972  0.19335  0.28472  1.0000
  C   C2784     1.0  0.82309  0.20922  0.29273  1.0000
  C   C2785     1.0  0.79898  0.20390  0.29657  1.0000
  C   C2786     1.0  0.79164  0.18288  0.29268  1.0000
  H   H2226     1.0  0.84574  0.15960  0.27523  1.0000
  H   H2227     1.0  0.85833  0.19707  0.28171  1.0000
  H   H2228     1.0  0.78589  0.21610  0.30265  1.0000
  H   H2229     1.0  0.77310  0.17904  0.29582  1.0000
  C   C2787     1.0  0.68437  0.15134  0.23785  1.0000
  H   H2230     1.0  0.93466  0.16346  0.41825  1.0000
  H   H2231     1.0  0.69692  0.11282  0.24160  1.0000
  H   H2232     1.0  0.72120  0.03676  0.32881  1.0000
  H   H2233     1.0  0.88523  0.43229  0.37204  1.0000
  C   C2788     1.0  0.90079  0.28154  0.43875  1.0000
  C   C2789     1.0  0.85415  0.31980  0.23481  1.0000
  C   C2790     1.0  0.83087  0.31544  0.24117  1.0000
  C   C2791     1.0  0.81107  0.31962  0.23295  1.0000
  P   P93       1.0  0.66918  0.04072  0.22480  1.0000
  H   H2234     1.0  0.82911  0.45449  0.23921  1.0000
  H   H2235     1.0  0.82807  0.30907  0.25244  1.0000
  C   C2792     1.0  0.78977  0.17963  0.23021  1.0000
  C   C2793     1.0  0.90990  0.34682  0.45699  1.0000
  C   C2794     1.0  0.92578  0.17896  0.42362  1.0000
  H   H2236     1.0  0.95751  0.44750  0.34545  1.0000
  H   H2237     1.0  0.85823  0.42699  0.35444  1.0000
  C   C2795     1.0  0.83430  0.23972  0.24358  1.0000
  C   C2796     1.0  0.69847  0.07735  0.35211  1.0000
  H   H2238     1.0  0.94427  0.20473  0.40894  1.0000
  C   C2797     1.0  0.79358  0.23550  0.25578  1.0000
  H   H2239     1.0  0.79315  0.31602  0.23796  1.0000
  H   H2240     1.0  0.87464  0.47322  0.46617  1.0000
  H   H2241     1.0  0.94949  0.42401  0.28003  1.0000
  C   C2798     1.0  0.82843  0.46923  0.23057  1.0000
  P   P94       1.0  0.85897  0.23090  0.23005  1.0000
  H   H2242     1.0  0.96728  0.30206  0.31766  1.0000
  C   C2799     1.0  0.89630  0.25781  0.23193  1.0000
  H   H2243     1.0  0.97996  0.40063  0.44260  1.0000
  C   C2800     1.0  0.74021  0.23305  0.37685  1.0000
  C   C2801     1.0  0.82170  0.40663  0.23868  1.0000
  C   C2802     1.0  0.67260  0.16996  0.22864  1.0000
  C   C2803     1.0  0.74712  0.19235  0.24849  1.0000
  H   H2244     1.0  0.94244  0.33682  0.35567  1.0000
  H   H2245     1.0  0.69285  0.05850  0.30995  1.0000
  C   C2804     1.0  0.97428  0.23768  0.42626  1.0000
  C   C2805     1.0  0.82810  0.38844  0.24972  1.0000
  H   H2246     1.0  0.88153  0.30468  0.45425  1.0000
  H   H2247     1.0  0.69448  0.11385  0.39012  1.0000
  C   C2806     1.0  0.91869  0.26121  0.23590  1.0000
  C   C2807     1.0  0.93308  0.24188  0.24312  1.0000
  C   C2808     1.0  0.92510  0.21907  0.24631  1.0000
  C   C2809     1.0  0.90269  0.21559  0.24236  1.0000
  C   C2810     1.0  0.94434  0.41762  0.45028  1.0000
  C   C2811     1.0  0.83720  0.25542  0.25330  1.0000
  C   C2812     1.0  0.81861  0.26067  0.26437  1.0000
  C   C2813     1.0  0.79692  0.25057  0.26569  1.0000
  C   C2814     1.0  0.85395  0.18283  0.24092  1.0000
  C   C2815     1.0  0.90380  0.45895  0.35799  1.0000
  H   H2248     1.0  0.85639  0.36054  0.25727  1.0000
  C   C2816     1.0  0.69986  0.09186  0.33876  1.0000
  H   H2249     1.0  0.91415  0.27291  0.44583  1.0000
  H   H2250     1.0  0.95001  0.24477  0.24666  1.0000
  H   H2251     1.0  0.93603  0.20432  0.25223  1.0000
  H   H2252     1.0  0.85376  0.26360  0.25241  1.0000
  H   H2253     1.0  0.82119  0.27223  0.27212  1.0000
  H   H2254     1.0  0.78289  0.25420  0.27452  1.0000
  C   C2817     1.0  0.98213  0.28498  0.42878  1.0000
  H   H2255     1.0  0.80397  0.16000  0.24928  1.0000
  H   H2256     1.0  0.86921  0.48583  0.40388  1.0000
  H   H2257     1.0  0.93391  0.32370  0.33316  1.0000
  H   H2258     1.0  0.68506  0.02457  0.34397  1.0000
  C   C2818     1.0  0.94136  0.40204  0.34358  1.0000
  H   H2259     1.0  0.74747  0.25004  0.37646  1.0000
  C   C2819     1.0  0.67394  0.03536  0.25402  1.0000
  C   C2820     1.0  0.95536  0.25723  0.42423  1.0000
  C   C2821     1.0  0.95953  0.28085  0.42555  1.0000
  P   P95       1.0  0.92697  0.25275  0.41840  1.0000
  C   C2822     1.0  0.93019  0.25549  0.39909  1.0000
  C   C2823     1.0  0.91991  0.22257  0.42537  1.0000
  H   H2260     1.0  0.97181  0.21930  0.42511  1.0000
  C   C2824     1.0  0.67217  0.04378  0.26737  1.0000
  C   C2825     1.0  0.98082  0.32227  0.35286  1.0000
  H   H2261     1.0  0.90916  0.43743  0.27155  1.0000
  C   C2826     1.0  0.87148  0.43964  0.35158  1.0000
  C   C2827     1.0  0.91454  0.24491  0.39214  1.0000
  C   C2828     1.0  0.91668  0.24720  0.37722  1.0000
  C   C2829     1.0  0.93433  0.26017  0.36910  1.0000
  C   C2830     1.0  0.94976  0.27096  0.37592  1.0000
  C   C2831     1.0  0.94774  0.26870  0.39086  1.0000
  C   C2832     1.0  0.95577  0.48437  0.44108  1.0000
  C   C2833     1.0  0.73867  0.00007  0.32688  1.0000
  H   H2262     1.0  0.80328  0.41653  0.23932  1.0000
  C   C2834     1.0  0.66599  0.03389  0.31523  1.0000
  H   H2263     1.0  0.89412  0.23401  0.44327  1.0000
  H   H2264     1.0  0.84929  0.18945  0.25128  1.0000
  H   H2265     1.0  0.71327  0.05168  0.23501  1.0000
  H   H2266     1.0  0.94534  0.29621  0.42398  1.0000
  H   H2267     1.0  0.92666  0.40687  0.32369  1.0000
  H   H2268     1.0  0.91511  0.46132  0.36597  1.0000
  H   H2269     1.0  0.94249  0.43005  0.44057  1.0000
  H   H2270     1.0  0.73039  0.19663  0.25553  1.0000
  C   C2835     1.0  0.96496  0.46085  0.35014  1.0000
  H   H2271     1.0  0.90031  0.23539  0.39826  1.0000
  H   H2272     1.0  0.90416  0.23956  0.37195  1.0000
  H   H2273     1.0  0.93559  0.26256  0.35752  1.0000
  S   S379      1.0  0.98903  0.36203  0.38119  1.0000
  H   H2274     1.0  0.95953  0.27770  0.39590  1.0000
  C   C2836     1.0  0.92538  0.41827  0.46152  1.0000
  C   C2837     1.0  0.72005  0.01757  0.33202  1.0000
  H   H2275     1.0  0.88635  0.28391  0.40479  1.0000
  C   C2838     1.0  0.67555  0.00782  0.22618  1.0000
  H   H2276     1.0  0.67902  0.01801  0.31276  1.0000
  H   H2277     1.0  0.69995  0.08831  0.41306  1.0000
  C   C2839     1.0  0.72116  0.18924  0.37764  1.0000
  C   C2840     1.0  0.76956  0.19438  0.22467  1.0000
  H   H2278     1.0  0.88703  0.37456  0.44487  1.0000
  C   C2841     1.0  0.70636  0.20960  0.38288  1.0000
  C   C2842     1.0  0.85913  0.19898  0.22855  1.0000
  C   C2843     1.0  0.90251  0.27550  0.42475  1.0000
  H   H2279     1.0  0.89675  0.19791  0.24524  1.0000
  C   C2844     1.0  0.86689  0.30572  0.42058  1.0000
  C   C2845     1.0  0.82004  0.16627  0.33936  1.0000
  C   C2846     1.0  0.79813  0.17825  0.33460  1.0000
  C   C2847     1.0  0.79272  0.20361  0.33395  1.0000
  C   C2848     1.0  0.80943  0.21710  0.33778  1.0000
  C   C2849     1.0  0.83176  0.20524  0.34230  1.0000
  C   C2850     1.0  0.83672  0.17967  0.34330  1.0000
  P   P96       1.0  0.85398  0.22205  0.34715  1.0000
  C   C2851     1.0  0.88268  0.21739  0.33572  1.0000
  C   C2852     1.0  0.84365  0.25456  0.34498  1.0000
  C   C2853     1.0  0.84043  0.26845  0.35653  1.0000
  C   C2854     1.0  0.83251  0.29358  0.35447  1.0000
  C   C2855     1.0  0.82828  0.30511  0.34085  1.0000
  C   C2856     1.0  0.83196  0.29154  0.32928  1.0000
  C   C2857     1.0  0.83967  0.26641  0.33132  1.0000
  C   C2858     1.0  0.90259  0.22824  0.33820  1.0000
  C   C2859     1.0  0.92507  0.22456  0.32963  1.0000
  C   C2860     1.0  0.92767  0.21050  0.31830  1.0000
  C   C2861     1.0  0.90776  0.20020  0.31551  1.0000
  C   C2862     1.0  0.88529  0.20374  0.32411  1.0000
  C   C2863     1.0  0.85773  0.21095  0.36561  1.0000
  C   C2864     1.0  0.83758  0.21400  0.37616  1.0000
  C   C2865     1.0  0.84020  0.20584  0.39053  1.0000
  C   C2866     1.0  0.86284  0.19418  0.39444  1.0000
  C   C2867     1.0  0.88279  0.19037  0.38396  1.0000
  C   C2868     1.0  0.88022  0.19851  0.36958  1.0000
  H   H2280     1.0  0.82427  0.14661  0.33974  1.0000
  H   H2281     1.0  0.78554  0.16791  0.33117  1.0000
  H   H2282     1.0  0.77587  0.21290  0.33008  1.0000
  H   H2283     1.0  0.80491  0.23672  0.33692  1.0000
  H   H2284     1.0  0.85376  0.17015  0.34682  1.0000
  H   H2285     1.0  0.84459  0.26031  0.36704  1.0000
  H   H2286     1.0  0.83067  0.30434  0.36331  1.0000
  H   H2287     1.0  0.82306  0.32471  0.33916  1.0000
  H   H2288     1.0  0.82940  0.30059  0.31864  1.0000
  H   H2289     1.0  0.84265  0.25620  0.32222  1.0000
  H   H2290     1.0  0.90057  0.23987  0.34661  1.0000
  H   H2291     1.0  0.94027  0.23322  0.33143  1.0000
  C   C2869     1.0  0.86873  0.38002  0.23711  1.0000
  H   H2292     1.0  0.90954  0.19013  0.30637  1.0000
  H   H2293     1.0  0.86993  0.19641  0.32132  1.0000
  H   H2294     1.0  0.81991  0.22296  0.37325  1.0000
  H   H2295     1.0  0.82465  0.20856  0.39863  1.0000
  H   H2296     1.0  0.86485  0.18788  0.40558  1.0000
  H   H2297     1.0  0.90024  0.18096  0.38697  1.0000
  H   H2298     1.0  0.89581  0.19491  0.36165  1.0000
  C   C2870     1.0  0.73746  0.15107  0.33674  1.0000
  C   C2871     1.0  0.74719  0.12640  0.33779  1.0000
  C   C2872     1.0  0.74528  0.11204  0.35102  1.0000
  C   C2873     1.0  0.73347  0.12227  0.36320  1.0000
  C   C2874     1.0  0.72363  0.14712  0.36227  1.0000
  C   C2875     1.0  0.72592  0.16145  0.34891  1.0000
  P   P97       1.0  0.70897  0.16109  0.37797  1.0000
  C   C2876     1.0  0.71514  0.14139  0.39423  1.0000
  H   H2299     1.0  0.88669  0.36912  0.23639  1.0000
  C   C2877     1.0  0.74571  0.19088  0.37223  1.0000
  C   C2878     1.0  0.75512  0.21277  0.37175  1.0000
  H   H2300     1.0  0.66916  0.18841  0.23139  1.0000
  H   H2301     1.0  0.68423  0.01756  0.25260  1.0000
  C   C2879     1.0  0.98374  0.37778  0.32959  1.0000
  C   C2880     1.0  0.72824  0.14850  0.40422  1.0000
  C   C2881     1.0  0.73095  0.13403  0.41730  1.0000
  C   C2882     1.0  0.72073  0.11237  0.42048  1.0000
  C   C2883     1.0  0.70804  0.10501  0.41052  1.0000
  C   C2884     1.0  0.70507  0.11951  0.39751  1.0000
  C   C2885     1.0  0.67202  0.11025  0.36284  1.0000
  H   H2302     1.0  0.96285  0.28161  0.36960  1.0000
  H   H2303     1.0  0.93506  0.46035  0.31841  1.0000
  C   C2886     1.0  0.76735  0.17796  0.25396  1.0000
  H   H2304     1.0  0.95874  0.46779  0.39016  1.0000
  H   H2305     1.0  0.96096  0.46519  0.44007  1.0000
  H   H2306     1.0  0.98228  0.31579  0.45164  1.0000
  H   H2307     1.0  0.75565  0.11826  0.32829  1.0000
  H   H2308     1.0  0.75225  0.09275  0.35177  1.0000
  H   H2309     1.0  0.73201  0.11051  0.37319  1.0000
  C   C2887     1.0  0.99483  0.30300  0.33135  1.0000
  H   H2310     1.0  0.75756  0.17528  0.36833  1.0000
  H   H2311     1.0  0.77397  0.21399  0.36738  1.0000
  H   H2312     1.0  0.86241  0.12952  0.22627  1.0000
  C   C2888     1.0  0.97896  0.35591  0.29811  1.0000
  C   C2889     1.0  0.69957  0.01042  0.34088  1.0000
  H   H2313     1.0  0.73589  0.16542  0.40214  1.0000
  H   H2314     1.0  0.74051  0.13981  0.42515  1.0000
  H   H2315     1.0  0.72217  0.10145  0.43077  1.0000
  H   H2316     1.0  0.75408  0.00574  0.31961  1.0000
  C   C2890     1.0  0.67603  0.16769  0.37786  1.0000
  C   C2891     1.0  0.95705  0.32713  0.34894  1.0000
  H   H2317     1.0  0.86377  0.39163  0.46640  1.0000
  S   S380      1.0  0.68908  0.13511  0.32124  1.0000
  H   H2318     1.0  0.73224  0.21151  0.22982  1.0000
  P   P98       1.0  0.99256  0.35827  0.46403  1.0000
  C   C2892     1.0  0.89777  0.19547  0.44284  1.0000
  H   H2319     1.0  0.99393  0.35570  0.41213  1.0000
  H   H2320     1.0  0.81641  0.26408  0.21962  1.0000
  H   H2321     1.0  0.97387  0.35697  0.43685  1.0000
  C   C2893     1.0  0.99593  0.40679  0.38765  1.0000
  H   H2322     1.0  0.66740  0.15886  0.40082  1.0000
  C   C2894     1.0  0.96351  0.38665  0.32203  1.0000
  H   H2323     1.0  0.85091  0.14563  0.24967  1.0000
  P   P99       1.0  0.96643  0.38605  0.30288  1.0000
  C   C2895     1.0  0.99367  0.35561  0.43483  1.0000
  C   C2896     1.0  0.86242  0.39820  0.22604  1.0000
  C   C2897     1.0  0.85159  0.37511  0.24892  1.0000
  C   C2898     1.0  0.89129  0.36665  0.45544  1.0000
  H   H2324     1.0  0.85424  0.31561  0.41338  1.0000
  C   C2899     1.0  0.93119  0.20238  0.41839  1.0000
  C   C2900     1.0  0.97511  0.31946  0.28772  1.0000
  C   C2901     1.0  0.94236  0.39906  0.32916  1.0000
  C   C2902     1.0  0.86537  0.31165  0.43451  1.0000
  H   H2325     1.0  0.92489  0.41114  0.34908  1.0000
  C   C2903     1.0  0.93700  0.39598  0.29629  1.0000
  C   C2904     1.0  0.91657  0.38477  0.30247  1.0000
  C   C2905     1.0  0.89371  0.39260  0.29760  1.0000
  C   C2906     1.0  0.89104  0.41158  0.28648  1.0000
  C   C2907     1.0  0.91124  0.42283  0.28025  1.0000
  C   C2908     1.0  0.93414  0.41509  0.28511  1.0000
  H   H2326     1.0  0.76649  0.17165  0.26527  1.0000
  H   H2327     1.0  0.80940  0.21834  0.23721  1.0000
  C   C2909     1.0  0.78859  0.17152  0.24486  1.0000
  H   H2328     1.0  0.90890  0.43133  0.46061  1.0000
  C   C2910     1.0  0.85503  0.15792  0.24006  1.0000
  H   H2329     1.0  0.94483  0.20839  0.31131  1.0000
  H   H2330     1.0  0.85156  0.32615  0.43815  1.0000
  C   C2911     1.0  0.88677  0.44257  0.36152  1.0000
  C   C2912     1.0  0.99621  0.47080  0.36284  1.0000
  C   C2913     1.0  0.88221  0.29945  0.44361  1.0000
  S   S381      1.0  0.68361  0.06792  0.38076  1.0000
  C   C2914     1.0  0.97105  0.30766  0.32751  1.0000
  H   H2331     1.0  0.91832  0.36980  0.31101  1.0000
  H   H2332     1.0  0.87810  0.38367  0.30234  1.0000
  H   H2333     1.0  0.87333  0.41736  0.28263  1.0000
  C   C2915     1.0  0.96171  0.39359  0.35088  1.0000
  H   H2334     1.0  0.68331  0.10376  0.21935  1.0000
  C   C2916     1.0  0.96683  0.38254  0.46332  1.0000
  C   C2917     1.0  0.67291  0.12446  0.34944  1.0000
  H   H2335     1.0  0.96400  0.30844  0.28352  1.0000
  C   C2918     1.0  0.66581  0.17637  0.36510  1.0000
  C   C2919     1.0  0.96532  0.40035  0.45134  1.0000
  C   C2920     1.0  0.97930  0.31219  0.46309  1.0000
  C   C2921     1.0  0.83878  0.41156  0.22672  1.0000
  C   C2922     1.0  0.95219  0.31977  0.33628  1.0000
  C   C2923     1.0  0.98477  0.24738  0.28753  1.0000
  C   C2924     1.0  0.99681  0.24179  0.42976  1.0000
  C   C2925     1.0  0.88534  0.28770  0.41571  1.0000
  H   H2336     1.0  0.88513  0.27324  0.22671  1.0000
  C   C2926     1.0  0.90572  0.47247  0.34440  1.0000
  C   C2927     1.0  0.90908  0.17551  0.43585  1.0000
  H   H2337     1.0  0.96116  0.39643  0.36198  1.0000
  C   C2928     1.0  0.88811  0.23496  0.23510  1.0000
  H   H2338     1.0  0.73831  0.16196  0.32637  1.0000
  H   H2339     1.0  0.90498  0.15735  0.43995  1.0000
  C   C2929     1.0  0.68017  0.12224  0.22194  1.0000
  C   C2930     1.0  0.96449  0.34149  0.29280  1.0000
  H   H2340     1.0  0.73602  0.00539  0.24293  1.0000
  C   C2931     1.0  0.98626  0.45369  0.35685  1.0000
  C   C2932     1.0  0.98778  0.40658  0.29476  1.0000
  C   C2933     1.0  0.71421  0.05735  0.22361  1.0000
  C   C2934     1.0  0.73126  0.99368  0.28421  1.0000
  H   H2341     1.0  0.96947  0.27669  0.46241  1.0000
  C   C2935     1.0  0.94099  0.47742  0.31351  1.0000
  H   H2342     1.0  0.94515  0.34714  0.29224  1.0000
  C   C2936     1.0  0.98428  0.25202  0.30167  1.0000
  S   S382      1.0  0.67124  0.09337  0.44764  1.0000
  C   C2937     1.0  0.73465  0.00207  0.25447  1.0000
  H   H2343     1.0  0.88487  0.19279  0.45235  1.0000
  H   H2344     1.0  0.67018  0.01938  0.36871  1.0000
  C   C2938     1.0  0.71588  0.23143  0.38246  1.0000
  H   H2345     1.0  0.68642  0.23335  0.22928  1.0000
  H   H2346     1.0  0.98433  0.32878  0.36246  1.0000
  H   H2347     1.0  0.98516  0.30347  0.42935  1.0000
  H   H2348     1.0  0.74807  0.07166  0.22301  1.0000
  H   H2349     1.0  0.68749  0.20868  0.38730  1.0000
  H   H2350     1.0  0.99496  0.43485  0.35757  1.0000
  C   C2939     1.0  0.85733  0.32891  0.22023  1.0000
  H   H2351     1.0  0.69583  0.00477  0.46213  1.0000
  H   H2352     1.0  0.80639  0.17437  0.22337  1.0000
  H   H2353     1.0  0.98330  0.42783  0.31265  1.0000
  C   C2940     1.0  0.87292  0.49042  0.45944  1.0000
  C   C2941     1.0  0.88879  0.48188  0.40102  1.0000
  C   C2942     1.0  0.82758  0.49311  0.23373  1.0000
  C   C2943     1.0  0.95098  0.47946  0.29914  1.0000
  P   P100      1.0  0.99350  0.47944  0.45833  1.0000
  C   C2944     1.0  0.99247  0.42526  0.30205  1.0000
  C   C2945     1.0  0.86148  0.14887  0.22688  1.0000
  C   C2946     1.0  0.87811  0.37627  0.46764  1.0000
  C   C2947     1.0  0.95338  0.48512  0.34953  1.0000
  C   C2948     1.0  0.67382  0.05672  0.31364  1.0000
  H   H2354     1.0  0.88996  0.48129  0.32439  1.0000
  H   H2355     1.0  0.77934  0.24402  0.22034  1.0000
  C   C2949     1.0  0.87115  0.49021  0.44491  1.0000
  H   H2356     1.0  0.99645  0.38975  0.27512  1.0000
  Fe  Fe196     1.0  0.88821  0.35668  0.54829  1.0000
  S   S383      1.0  0.92452  0.36872  0.54870  1.0000
  S   S384      1.0  0.86773  0.33657  0.56756  1.0000
  Fe  Fe197     1.0  0.88810  0.37356  0.51628  1.0000
  S   S385      1.0  0.92449  0.38675  0.51424  1.0000
  S   S386      1.0  0.86835  0.37982  0.49651  1.0000
  Fe  Fe198     1.0  0.93564  0.35237  0.52822  1.0000
  C   C2950     1.0  0.98213  0.32972  0.47175  1.0000
  Fe  Fe199     1.0  0.91045  0.40239  0.53474  1.0000
  S   S387      1.0  0.92433  0.43698  0.53762  1.0000
  S   S388      1.0  0.90044  0.33748  0.52862  1.0000
  S   S389      1.0  0.87280  0.39201  0.53595  1.0000
  Fe  Fe200     1.0  0.75038  0.07063  0.66122  1.0000
  S   S390      1.0  0.71100  0.07911  0.66987  1.0000
  S   S391      1.0  0.76915  0.03136  0.65904  1.0000
  Fe  Fe201     1.0  0.75637  0.12563  0.65576  1.0000
  S   S392      1.0  0.71674  0.13704  0.66395  1.0000
  S   S393      1.0  0.77862  0.15584  0.64483  1.0000
  Fe  Fe202     1.0  0.72299  0.10661  0.68161  1.0000
  H   H2357     1.0  0.91273  0.40215  0.48253  1.0000
  Fe  Fe203     1.0  0.70824  0.10873  0.65143  1.0000
  C   C2951     1.0  0.97893  0.36888  0.62655  1.0000
  S   S394      1.0  0.76314  0.09629  0.67424  1.0000
  S   S395      1.0  0.74715  0.09905  0.64202  1.0000
  Fe  Fe204     1.0  0.87592  0.28695  0.67980  1.0000
  S   S396      1.0  0.89240  0.24774  0.68371  1.0000
  S   S397      1.0  0.84966  0.30755  0.69608  1.0000
  Fe  Fe205     1.0  0.89568  0.29030  0.64792  1.0000
  S   S398      1.0  0.91302  0.25076  0.64965  1.0000
  S   S399      1.0  0.90402  0.31974  0.62941  1.0000
  Fe  Fe206     1.0  0.87778  0.24289  0.66339  1.0000
  S   S400      1.0  0.85935  0.20802  0.66666  1.0000
  Fe  Fe207     1.0  0.92608  0.25849  0.66977  1.0000
  S   S401      1.0  0.96498  0.24358  0.67517  1.0000
  S   S402      1.0  0.85962  0.28203  0.66012  1.0000
  S   S403      1.0  0.91055  0.29801  0.66747  1.0000
  C   C2952     1.0  0.70686  0.01718  0.70358  1.0000
  H   H2358     1.0  0.93929  0.31299  0.68765  1.0000
  C   C2953     1.0  0.75548  0.02586  0.69578  1.0000
  C   C2954     1.0  0.67887  0.17447  0.62626  1.0000
  C   C2955     1.0  0.98162  0.46466  0.47545  1.0000
  H   H2359     1.0  0.97112  0.29529  0.66752  1.0000
  H   H2360     1.0  0.90943  0.40757  0.65112  1.0000
  C   C2956     1.0  0.68660  0.01665  0.57732  1.0000
  C   C2957     1.0  0.67717  0.05375  0.63003  1.0000
  S   S404      1.0  0.68689  0.11004  0.57232  1.0000
  H   H2361     1.0  0.83206  0.03817  0.63571  1.0000
  C   C2958     1.0  0.71710  0.18249  0.61203  1.0000
  H   H2362     1.0  0.71792  0.02327  0.66480  1.0000
  H   H2363     1.0  0.77410  0.02943  0.69235  1.0000
  C   C2959     1.0  0.83944  0.48671  0.50213  1.0000
  C   C2960     1.0  0.70294  0.11270  0.59803  1.0000
  C   C2961     1.0  0.70062  0.11330  0.61290  1.0000
  H   H2364     1.0  0.72057  0.11397  0.59184  1.0000
  H   H2365     1.0  0.71636  0.11500  0.61799  1.0000
  C   C2962     1.0  0.79999  0.17095  0.65153  1.0000
  C   C2963     1.0  0.81014  0.16197  0.66423  1.0000
  C   C2964     1.0  0.82802  0.17372  0.66868  1.0000
  C   C2965     1.0  0.83579  0.19487  0.66068  1.0000
  C   C2966     1.0  0.82523  0.20420  0.64814  1.0000
  C   C2967     1.0  0.80764  0.19218  0.64355  1.0000
  H   H2366     1.0  0.80460  0.14568  0.67049  1.0000
  H   H2367     1.0  0.83602  0.16626  0.67838  1.0000
  H   H2368     1.0  0.83099  0.22034  0.64181  1.0000
  H   H2369     1.0  0.80002  0.19933  0.63369  1.0000
  H   H2370     1.0  0.68281  0.16600  0.56171  1.0000
  C   C2968     1.0  0.71359  0.15428  0.70708  1.0000
  C   C2969     1.0  0.94702  0.47163  0.57451  1.0000
  H   H2371     1.0  0.72368  0.15424  0.69651  1.0000
  C   C2970     1.0  0.94569  0.31043  0.69806  1.0000
  H   H2372     1.0  0.92892  0.32106  0.47210  1.0000
  C   C2971     1.0  0.90591  0.46543  0.53869  1.0000
  C   C2972     1.0  0.88220  0.47046  0.53466  1.0000
  C   C2973     1.0  0.78850  0.24035  0.59529  1.0000
  H   H2373     1.0  0.87415  0.45625  0.53117  1.0000
  H   H2374     1.0  0.93405  0.48005  0.54669  1.0000
  H   H2375     1.0  0.97314  0.38246  0.52211  1.0000
  C   C2974     1.0  0.88388  0.36648  0.48140  1.0000
  H   H2376     1.0  0.88276  0.42526  0.50094  1.0000
  C   C2975     1.0  0.68275  0.11046  0.59114  1.0000
  C   C2976     1.0  0.90245  0.34668  0.48291  1.0000
  H   H2377     1.0  0.97437  0.38380  0.63303  1.0000
  H   H2378     1.0  0.78560  0.10883  0.61562  1.0000
  H   H2379     1.0  0.90699  0.33894  0.49345  1.0000
  C   C2977     1.0  0.87777  0.33188  0.58476  1.0000
  C   C2978     1.0  0.89625  0.34392  0.58775  1.0000
  C   C2979     1.0  0.90341  0.34067  0.60160  1.0000
  C   C2980     1.0  0.89315  0.32420  0.61242  1.0000
  C   C2981     1.0  0.87490  0.31177  0.60939  1.0000
  C   C2982     1.0  0.86699  0.31589  0.59566  1.0000
  H   H2380     1.0  0.90525  0.35542  0.57929  1.0000
  H   H2381     1.0  0.91732  0.35061  0.60378  1.0000
  H   H2382     1.0  0.86674  0.29915  0.61764  1.0000
  H   H2383     1.0  0.85267  0.30645  0.59343  1.0000
  C   C2983     1.0  0.75058  0.07359  0.57016  1.0000
  C   C2984     1.0  0.77019  0.06317  0.56112  1.0000
  C   C2985     1.0  0.78445  0.04150  0.56601  1.0000
  C   C2986     1.0  0.77894  0.03015  0.57989  1.0000
  C   C2987     1.0  0.75890  0.04022  0.58892  1.0000
  C   C2988     1.0  0.74518  0.06234  0.58406  1.0000
  P   P101      1.0  0.75252  0.02570  0.60694  1.0000
  C   C2989     1.0  0.68775  0.03210  0.47644  1.0000
  C   C2990     1.0  0.77770  0.02933  0.61616  1.0000
  H   H2384     1.0  0.67942  0.10493  0.49691  1.0000
  H   H2385     1.0  0.70161  0.23871  0.55517  1.0000
  C   C2991     1.0  0.81723  0.03579  0.62998  1.0000
  C   C2992     1.0  0.79896  0.05536  0.62709  1.0000
  C   C2993     1.0  0.77937  0.05224  0.62007  1.0000
  H   H2386     1.0  0.79025  0.01347  0.58359  1.0000
  S   S405      1.0  0.67650  0.01838  0.53866  1.0000
  H   H2387     1.0  0.83030  0.99799  0.62799  1.0000
  H   H2388     1.0  0.93200  0.43853  0.49180  1.0000
  C   C2994     1.0  0.85705  0.31467  0.71238  1.0000
  C   C2995     1.0  0.72346  0.03838  0.61580  1.0000
  C   C2996     1.0  0.70251  0.04206  0.60866  1.0000
  C   C2997     1.0  0.67948  0.04978  0.61571  1.0000
  C   C2998     1.0  0.98812  0.28526  0.67078  1.0000
  C   C2999     1.0  0.69791  0.05010  0.63725  1.0000
  C   C3000     1.0  0.72097  0.04231  0.63022  1.0000
  C   C3001     1.0  0.95824  0.45738  0.47738  1.0000
  H   H2389     1.0  0.73025  0.07098  0.59091  1.0000
  C   C3002     1.0  0.95924  0.31210  0.56592  1.0000
  C   C3003     1.0  0.98979  0.26014  0.67506  1.0000
  H   H2390     1.0  0.89240  0.40191  0.60929  1.0000
  H   H2391     1.0  0.79966  0.07273  0.63074  1.0000
  H   H2392     1.0  0.76521  0.06752  0.61797  1.0000
  H   H2393     1.0  0.78511  0.44914  0.71089  1.0000
  C   C3004     1.0  0.93288  0.38264  0.70863  1.0000
  C   C3005     1.0  0.79639  0.00982  0.61884  1.0000
  H   H2394     1.0  0.88918  0.36489  0.70212  1.0000
  C   C3006     1.0  0.97014  0.36886  0.68456  1.0000
  H   H2395     1.0  0.70400  0.03894  0.59763  1.0000
  C   C3007     1.0  0.98993  0.37353  0.52610  1.0000
  C   C3008     1.0  0.74971  0.99394  0.60731  1.0000
  H   H2396     1.0  0.69611  0.05373  0.64824  1.0000
  H   H2397     1.0  0.73669  0.03927  0.63610  1.0000
  C   C3009     1.0  0.90286  0.40953  0.61589  1.0000
  C   C3010     1.0  0.97712  0.32466  0.48666  1.0000
  C   C3011     1.0  0.75471  0.15393  0.59435  1.0000
  C   C3012     1.0  0.91950  0.42567  0.60991  1.0000
  H   H2398     1.0  0.96107  0.26793  0.48883  1.0000
  C   C3013     1.0  0.99312  0.35523  0.68661  1.0000
  H   H2399     1.0  0.89586  0.30418  0.70797  1.0000
  C   C3014     1.0  0.94971  0.44469  0.49037  1.0000
  H   H2400     1.0  0.77426  0.07190  0.55033  1.0000
  S   S406      1.0  0.97301  0.33057  0.52506  1.0000
  P   P102      1.0  0.67538  0.01211  0.70843  1.0000
  H   H2401     1.0  0.93502  0.41291  0.56365  1.0000
  H   H2402     1.0  0.85318  0.46817  0.56438  1.0000
  C   C3015     1.0  0.70287  0.22063  0.56108  1.0000
  C   C3016     1.0  0.71108  0.18583  0.63755  1.0000
  H   H2403     1.0  0.74431  0.19126  0.62414  1.0000
  C   C3017     1.0  0.93417  0.29368  0.58598  1.0000
  C   C3018     1.0  0.93767  0.30274  0.57153  1.0000
  C   C3019     1.0  0.92925  0.42827  0.63380  1.0000
  H   H2404     1.0  0.72868  0.23275  0.60389  1.0000
  C   C3020     1.0  0.93200  0.42254  0.71637  1.0000
  C   C3021     1.0  0.95203  0.29429  0.59488  1.0000
  H   H2405     1.0  0.69692  0.05263  0.57120  1.0000
  C   C3022     1.0  0.93286  0.43478  0.61900  1.0000
  C   C3023     1.0  0.67155  0.99350  0.48094  1.0000
  C   C3024     1.0  0.70614  0.17400  0.57623  1.0000
  H   H2406     1.0  0.95157  0.32836  0.61318  1.0000
  H   H2407     1.0  0.69926  0.05563  0.70624  1.0000
  C   C3025     1.0  0.87072  0.44244  0.50126  1.0000
  C   C3026     1.0  0.78198  0.20085  0.59000  1.0000
  H   H2408     1.0  0.74126  0.99533  0.54991  1.0000
  C   C3027     1.0  0.69226  0.17975  0.56473  1.0000
  C   C3028     1.0  0.87126  0.40782  0.57402  1.0000
  H   H2409     1.0  0.67079  0.02311  0.58448  1.0000
  C   C3029     1.0  0.71681  0.21489  0.57260  1.0000
  H   H2410     1.0  0.78950  0.18363  0.58607  1.0000
  C   C3030     1.0  0.96615  0.33769  0.61511  1.0000
  C   C3031     1.0  0.96034  0.35732  0.62319  1.0000
  C   C3032     1.0  0.75435  0.00509  0.65976  1.0000
  C   C3033     1.0  0.96417  0.43951  0.50157  1.0000
  C   C3034     1.0  0.72114  0.02569  0.56006  1.0000
  H   H2411     1.0  0.91713  0.28701  0.59041  1.0000
  H   H2412     1.0  0.92337  0.30307  0.56477  1.0000
  H   H2413     1.0  0.75657  0.26288  0.60418  1.0000
  H   H2414     1.0  0.72123  0.47503  0.68954  1.0000
  H   H2415     1.0  0.94834  0.28814  0.60618  1.0000
  H   H2416     1.0  0.73175  0.03889  0.55378  1.0000
  C   C3035     1.0  0.81289  0.22976  0.69618  1.0000
  C   C3036     1.0  0.79591  0.27311  0.70822  1.0000
  H   H2417     1.0  0.90989  0.35321  0.65090  1.0000
  H   H2418     1.0  0.67647  0.17767  0.64874  1.0000
  H   H2419     1.0  0.95568  0.45822  0.56754  1.0000
  C   C3037     1.0  0.98733  0.44674  0.49977  1.0000
  H   H2420     1.0  0.71823  0.18904  0.64708  1.0000
  C   C3038     1.0  0.83191  0.46522  0.50952  1.0000
  S   S407      1.0  0.70553  0.10741  0.70466  1.0000
  H   H2421     1.0  0.97020  0.38627  0.55318  1.0000
  H   H2422     1.0  0.94135  0.36306  0.62707  1.0000
  C   C3039     1.0  0.76100  0.14411  0.58128  1.0000
  H   H2423     1.0  0.84226  0.42751  0.56237  1.0000
  H   H2424     1.0  0.94859  0.37048  0.48411  1.0000
  H   H2425     1.0  0.69430  0.09209  0.47287  1.0000
  C   C3040     1.0  0.67787  0.11223  0.62106  1.0000
  H   H2426     1.0  0.84156  0.42631  0.51450  1.0000
  H   H2427     1.0  0.96178  0.31938  0.55475  1.0000
  C   C3041     1.0  0.89124  0.40962  0.58107  1.0000
  H   H2428     1.0  0.79975  0.03350  0.55903  1.0000
  H   H2429     1.0  0.76643  0.46756  0.68915  1.0000
  H   H2430     1.0  0.70720  0.15584  0.58191  1.0000
  H   H2431     1.0  0.99496  0.33973  0.69478  1.0000
  C   C3042     1.0  0.71855  0.19147  0.58030  1.0000
  H   H2432     1.0  0.90208  0.39322  0.58540  1.0000
  C   C3043     1.0  0.87825  0.46384  0.49386  1.0000
  C   C3044     1.0  0.75702  0.20585  0.59507  1.0000
  C   C3045     1.0  0.74790  0.22847  0.60000  1.0000
  H   H2433     1.0  0.73943  0.09041  0.56643  1.0000
  H   H2434     1.0  0.93740  0.44060  0.71448  1.0000
  H   H2435     1.0  0.82938  0.37976  0.71306  1.0000
  H   H2436     1.0  0.98846  0.40976  0.65660  1.0000
  H   H2437     1.0  0.80240  0.29102  0.68676  1.0000
  H   H2438     1.0  0.95106  0.39929  0.67189  1.0000
  C   C3046     1.0  0.98881  0.49011  0.53306  1.0000
  H   H2439     1.0  0.99460  0.39952  0.48004  1.0000
  C   C3047     1.0  0.89938  0.40297  0.63068  1.0000
  H   H2440     1.0  0.79523  0.09068  0.59269  1.0000
  P   P103      1.0  0.73663  0.18365  0.59518  1.0000
  H   H2441     1.0  0.88825  0.47156  0.57661  1.0000
  C   C3048     1.0  0.96861  0.38855  0.67364  1.0000
  C   C3049     1.0  0.93987  0.40608  0.70627  1.0000
  H   H2442     1.0  0.88644  0.39052  0.63515  1.0000
  C   C3050     1.0  0.84747  0.44306  0.50898  1.0000
  H   H2443     1.0  0.75997  0.14836  0.61684  1.0000
  C   C3051     1.0  0.91246  0.41243  0.63965  1.0000
  C   C3052     1.0  0.80279  0.27369  0.69347  1.0000
  C   C3053     1.0  0.68761  0.17944  0.63848  1.0000
  H   H2444     1.0  0.67983  0.20747  0.54821  1.0000
  C   C3054     1.0  0.91507  0.33668  0.47076  1.0000
  C   C3055     1.0  0.94899  0.33045  0.70463  1.0000
  C   C3056     1.0  0.81606  0.01308  0.62575  1.0000
  C   C3057     1.0  0.69061  0.20306  0.55714  1.0000
  C   C3058     1.0  0.77541  0.12128  0.58072  1.0000
  H   H2445     1.0  0.97924  0.43148  0.54321  1.0000
  H   H2446     1.0  0.74202  0.06288  0.69977  1.0000
  H   H2447     1.0  0.97085  0.41024  0.60138  1.0000
  C   C3059     1.0  0.96713  0.28501  0.48406  1.0000
  H   H2448     1.0  0.69465  0.46423  0.71194  1.0000
  C   C3060     1.0  0.70303  0.13378  0.71347  1.0000
  H   H2449     1.0  0.94294  0.35487  0.66533  1.0000
  H   H2450     1.0  0.90644  0.47858  0.60443  1.0000
  C   C3061     1.0  0.90545  0.35705  0.66190  1.0000
  C   C3062     1.0  0.88111  0.35893  0.66813  1.0000
  C   C3063     1.0  0.87543  0.36206  0.68259  1.0000
  C   C3064     1.0  0.89401  0.36348  0.69083  1.0000
  C   C3065     1.0  0.91853  0.36182  0.68465  1.0000
  C   C3066     1.0  0.92414  0.35807  0.67016  1.0000
  P   P104      1.0  0.94275  0.36106  0.69567  1.0000
  H   H2451     1.0  0.96440  0.46774  0.52728  1.0000
  H   H2452     1.0  0.98112  0.21994  0.62114  1.0000
  H   H2453     1.0  0.74774  0.99536  0.58459  1.0000
  C   C3067     1.0  0.76381  0.14097  0.60669  1.0000
  C   C3068     1.0  0.81122  0.25203  0.68745  1.0000
  H   H2454     1.0  0.89609  0.46311  0.48771  1.0000
  H   H2455     1.0  0.71990  0.19052  0.70951  1.0000
  H   H2456     1.0  0.67699  0.05597  0.49289  1.0000
  C   C3069     1.0  0.75483  0.46239  0.69886  1.0000
  H   H2457     1.0  0.86680  0.35675  0.66193  1.0000
  H   H2458     1.0  0.85670  0.36219  0.68758  1.0000
  C   C3070     1.0  0.71144  0.17482  0.71447  1.0000
  H   H2459     1.0  0.93929  0.43570  0.64076  1.0000
  C   C3071     1.0  0.78401  0.10833  0.59312  1.0000
  H   H2460     1.0  0.78002  0.11374  0.57064  1.0000
  H   H2461     1.0  0.75494  0.15404  0.57150  1.0000
  S   S408      1.0  0.67603  0.08876  0.53704  1.0000
  C   C3072     1.0  0.67534  0.09979  0.47525  1.0000
  H   H2462     1.0  0.81995  0.21306  0.69148  1.0000
  C   C3073     1.0  0.85748  0.42892  0.56806  1.0000
  C   C3074     1.0  0.86360  0.45179  0.56923  1.0000
  C   C3075     1.0  0.88363  0.45361  0.57626  1.0000
  C   C3076     1.0  0.89767  0.43244  0.58225  1.0000
  H   H2463     1.0  0.80072  0.25355  0.59554  1.0000
  P   P105      1.0  0.92447  0.43410  0.59076  1.0000
  C   C3077     1.0  0.95014  0.41365  0.58334  1.0000
  C   C3078     1.0  0.76362  0.24560  0.60016  1.0000
  C   C3079     1.0  0.77844  0.11835  0.60604  1.0000
  H   H2464     1.0  0.81702  0.25244  0.67607  1.0000
  C   C3080     1.0  0.68602  0.00949  0.47222  1.0000
  H   H2465     1.0  0.95748  0.42966  0.51162  1.0000
  C   C3081     1.0  0.73738  0.04476  0.69979  1.0000
  C   C3082     1.0  0.97045  0.40516  0.59087  1.0000
  C   C3083     1.0  0.99057  0.39006  0.58475  1.0000
  C   C3084     1.0  0.99062  0.38346  0.57110  1.0000
  C   C3085     1.0  0.97035  0.39151  0.56370  1.0000
  C   C3086     1.0  0.95031  0.40663  0.56972  1.0000
  H   H2466     1.0  0.80856  0.21168  0.71749  1.0000
  C   C3087     1.0  0.72895  0.00614  0.66279  1.0000
  H   H2467     1.0  0.79026  0.29015  0.71272  1.0000
  C   C3088     1.0  0.80620  0.22910  0.71093  1.0000
  C   C3089     1.0  0.70133  0.03342  0.56982  1.0000
  C   C3090     1.0  0.95057  0.28672  0.70491  1.0000
  C   C3091     1.0  0.98751  0.44791  0.54257  1.0000
  C   C3092     1.0  0.72584  0.18717  0.62444  1.0000
  C   C3093     1.0  0.79765  0.21802  0.59018  1.0000
  H   H2468     1.0  0.72618  0.22878  0.57539  1.0000
  H   H2469     1.0  0.94599  0.44703  0.61465  1.0000
  C   C3094     1.0  0.94792  0.38371  0.47469  1.0000
  H   H2470     1.0  0.81697  0.21395  0.58648  1.0000
  C   C3095     1.0  0.79736  0.25077  0.71706  1.0000
  C   C3096     1.0  0.93148  0.46497  0.58684  1.0000
  H   H2471     1.0  0.86664  0.39003  0.57301  1.0000
  C   C3097     1.0  0.72937  0.46668  0.69909  1.0000
  H   H2472     1.0  0.97909  0.33782  0.49365  1.0000
  C   C3098     1.0  0.98972  0.39450  0.66495  1.0000
  H   H2473     1.0  0.81396  0.46570  0.51562  1.0000
  H   H2474     1.0  0.68644  0.17150  0.60389  1.0000
  C   C3099     1.0  0.69351  0.17600  0.61308  1.0000
  C   C3100     1.0  0.88125  0.31189  0.71544  1.0000
  C   C3101     1.0  0.91936  0.48310  0.59521  1.0000
  S   S409      1.0  0.67433  0.11294  0.63984  1.0000
  C   C3102     1.0  0.97417  0.30293  0.58922  1.0000
  H   H2475     1.0  0.66759  0.12178  0.68283  1.0000
  C   C3103     1.0  0.97744  0.31222  0.57468  1.0000
  C   C3104     1.0  0.96962  0.30244  0.49276  1.0000
  C   C3105     1.0  0.97902  0.46849  0.53358  1.0000
  H   H2476     1.0  0.99389  0.31963  0.56997  1.0000
  C   C3106     1.0  0.91609  0.48389  0.54327  1.0000
  P   P106      1.0  0.99773  0.30299  0.60061  1.0000
  C   C3107     1.0  0.71313  0.04055  0.70349  1.0000
  C   C3108     1.0  0.76537  0.45169  0.71118  1.0000
  H   H2477     1.0  0.96566  0.29885  0.50429  1.0000
  C   C3109     1.0  0.95899  0.28278  0.71833  1.0000
  H   H2478     1.0  0.94777  0.27136  0.69978  1.0000
  C   C3110     1.0  0.99483  0.34807  0.52811  1.0000
  H   H2479     1.0  0.68104  0.03695  0.67934  1.0000
  H   H2480     1.0  0.68762  0.99921  0.60458  1.0000
  C   C3111     1.0  0.67538  0.03871  0.48944  1.0000
  C   C3112     1.0  0.92746  0.40170  0.47383  1.0000
  C   C3113     1.0  0.99055  0.32964  0.61008  1.0000
  H   H2481     1.0  0.95140  0.41181  0.69673  1.0000
  C   C3114     1.0  0.99623  0.45897  0.48673  1.0000
  C   C3115     1.0  0.71440  0.46053  0.71169  1.0000
  C   C3116     1.0  0.72646  0.00114  0.55788  1.0000
  C   C3117     1.0  0.95793  0.32634  0.71802  1.0000
  H   H2482     1.0  0.98412  0.25360  0.60156  1.0000
  H   H2483     1.0  0.78725  0.40111  0.71781  1.0000
  C   C3118     1.0  0.99035  0.25515  0.61165  1.0000
  C   C3119     1.0  0.98892  0.23584  0.62265  1.0000
  C   C3120     1.0  0.66694  0.10699  0.48891  1.0000
  C   C3121     1.0  0.86264  0.48610  0.49414  1.0000
  H   H2484     1.0  0.90227  0.49203  0.50725  1.0000
  H   H2485     1.0  0.99486  0.22289  0.64455  1.0000
  C   C3122     1.0  0.99680  0.23737  0.63580  1.0000
  H   H2486     1.0  0.69850  0.04464  0.46958  1.0000
  H   H2487     1.0  0.66768  0.21628  0.70837  1.0000
  C   C3123     1.0  0.74940  0.00259  0.69567  1.0000
  H   H2488     1.0  0.94668  0.46111  0.46884  1.0000
  C   C3124     1.0  0.72520  0.99820  0.69956  1.0000
  C   C3125     1.0  0.97200  0.28988  0.46922  1.0000
  Fe  Fe208     1.0  0.80160  0.33288  0.78897  1.0000
  S   S410      1.0  0.84215  0.32050  0.78866  1.0000
  S   S411      1.0  0.78305  0.29955  0.78776  1.0000
  Fe  Fe209     1.0  0.80937  0.38655  0.78773  1.0000
  S   S412      1.0  0.85027  0.37720  0.78663  1.0000
  S   S413      1.0  0.78932  0.42523  0.78998  1.0000
  Fe  Fe210     1.0  0.84653  0.35107  0.77119  1.0000
  S   S414      1.0  0.87523  0.34275  0.75233  1.0000
  Fe  Fe211     1.0  0.84249  0.34713  0.80426  1.0000
  S   S415      1.0  0.86891  0.33723  0.82133  1.0000
  S   S416      1.0  0.80608  0.36282  0.77073  1.0000
  S   S417      1.0  0.80154  0.35728  0.80614  1.0000
  Fe  Fe212     1.0  0.88909  0.36157  0.89916  1.0000
  S   S418      1.0  0.92818  0.36132  0.88963  1.0000
  S   S419      1.0  0.85808  0.35641  0.88687  1.0000
  Fe  Fe213     1.0  0.89954  0.37613  0.92791  1.0000
  S   S420      1.0  0.93915  0.37762  0.92026  1.0000
  S   S421      1.0  0.88434  0.38885  0.94954  1.0000
  Fe  Fe214     1.0  0.92619  0.39562  0.89962  1.0000
  S   S422      1.0  0.94182  0.42758  0.88712  1.0000
  Fe  Fe215     1.0  0.93782  0.34320  0.91107  1.0000
  S   S423      1.0  0.96958  0.31302  0.91261  1.0000
  S   S424      1.0  0.88642  0.39752  0.90783  1.0000
  S   S425      1.0  0.89871  0.34005  0.92009  1.0000
  C   C3126     1.0  0.93059  0.45305  0.89606  1.0000
  C   C3127     1.0  0.92037  0.45004  0.91035  1.0000
  H   H2489     1.0  0.91931  0.43198  0.91593  1.0000
  C   C3128     1.0  0.90232  0.39299  0.80967  1.0000
  C   C3129     1.0  0.67254  0.02389  0.75039  1.0000
  H   H2490     1.0  0.97709  0.44887  0.91774  1.0000
  H   H2491     1.0  0.68208  0.08632  0.89094  1.0000
  H   H2492     1.0  0.95883  0.46848  0.93926  1.0000
  P   P107      1.0  0.76380  0.43183  0.73987  1.0000
  H   H2493     1.0  0.90410  0.46816  0.92867  1.0000
  C   C3130     1.0  0.80109  0.45356  0.78572  1.0000
  C   C3131     1.0  0.82144  0.45645  0.77558  1.0000
  C   C3132     1.0  0.95089  0.44875  0.81320  1.0000
  H   H2494     1.0  0.69052  0.09895  0.93325  1.0000
  C   C3133     1.0  0.78876  0.47409  0.79210  1.0000
  H   H2495     1.0  0.83132  0.44088  0.77069  1.0000
  H   H2496     1.0  0.80217  0.05946  0.91381  1.0000
  H   H2497     1.0  0.96111  0.34144  0.72319  1.0000
  C   C3134     1.0  0.86534  0.34318  0.83947  1.0000
  C   C3135     1.0  0.84230  0.34875  0.84718  1.0000
  C   C3136     1.0  0.84041  0.35279  0.86165  1.0000
  C   C3137     1.0  0.86146  0.35148  0.86857  1.0000
  C   C3138     1.0  0.88448  0.34606  0.86083  1.0000
  C   C3139     1.0  0.88638  0.34188  0.84639  1.0000
  H   H2498     1.0  0.82594  0.34971  0.84204  1.0000
  H   H2499     1.0  0.82250  0.35691  0.86753  1.0000
  H   H2500     1.0  0.90083  0.34472  0.86603  1.0000
  H   H2501     1.0  0.90428  0.33751  0.84055  1.0000
  C   C3140     1.0  0.86765  0.33004  0.73770  1.0000
  C   C3141     1.0  0.84337  0.33180  0.73493  1.0000
  H   H2502     1.0  0.86370  0.26706  0.93374  1.0000
  C   C3142     1.0  0.81491  0.26504  0.75669  1.0000
  S   S426      1.0  0.69635  0.20143  0.73707  1.0000
  C   C3143     1.0  0.88651  0.31953  0.72806  1.0000
  H   H2503     1.0  0.82866  0.33962  0.74232  1.0000
  C   C3144     1.0  0.79480  0.05261  0.90542  1.0000
  H   H2504     1.0  0.90529  0.31741  0.73031  1.0000
  C   C3145     1.0  0.75256  0.29465  0.78689  1.0000
  C   C3146     1.0  0.74856  0.27171  0.78394  1.0000
  C   C3147     1.0  0.72470  0.26660  0.78351  1.0000
  C   C3148     1.0  0.70450  0.28441  0.78604  1.0000
  C   C3149     1.0  0.70844  0.30728  0.78915  1.0000
  C   C3150     1.0  0.73235  0.31241  0.78956  1.0000
  H   H2505     1.0  0.76402  0.25778  0.78195  1.0000
  H   H2506     1.0  0.69290  0.32110  0.79125  1.0000
  H   H2507     1.0  0.73515  0.32993  0.79212  1.0000
  C   C3151     1.0  0.68984  0.03828  0.93318  1.0000
  H   H2508     1.0  0.70478  0.01761  0.91595  1.0000
  C   C3152     1.0  0.81218  0.41727  0.74532  1.0000
  H   H2509     1.0  0.85529  0.24801  0.96318  1.0000
  C   C3153     1.0  0.96111  0.43616  0.82532  1.0000
  C   C3154     1.0  0.72310  0.37173  0.76626  1.0000
  C   C3155     1.0  0.73784  0.38392  0.77276  1.0000
  C   C3156     1.0  0.74991  0.40235  0.76477  1.0000
  H   H2510     1.0  0.80732  0.42657  0.75480  1.0000
  C   C3157     1.0  0.91027  0.39247  0.73138  1.0000
  H   H2511     1.0  0.71377  0.35744  0.77245  1.0000
  H   H2512     1.0  0.74021  0.37893  0.78398  1.0000
  H   H2513     1.0  0.76159  0.41136  0.76991  1.0000
  C   C3158     1.0  0.74990  0.20225  0.79447  1.0000
  C   C3159     1.0  0.73752  0.18247  0.79420  1.0000
  C   C3160     1.0  0.72107  0.17537  0.80592  1.0000
  C   C3161     1.0  0.71707  0.18798  0.81793  1.0000
  C   C3162     1.0  0.72953  0.20781  0.81830  1.0000
  C   C3163     1.0  0.74598  0.21488  0.80648  1.0000
  P   P108      1.0  0.72295  0.22468  0.83357  1.0000
  C   C3164     1.0  0.72247  0.20247  0.84931  1.0000
  C   C3165     1.0  0.74595  0.24425  0.83346  1.0000
  C   C3166     1.0  0.74488  0.26638  0.82439  1.0000
  C   C3167     1.0  0.76222  0.28197  0.82427  1.0000
  C   C3168     1.0  0.78092  0.27556  0.83307  1.0000
  C   C3169     1.0  0.78208  0.25366  0.84218  1.0000
  C   C3170     1.0  0.76462  0.23807  0.84245  1.0000
  C   C3171     1.0  0.70274  0.20371  0.86022  1.0000
  C   C3172     1.0  0.70272  0.18622  0.87224  1.0000
  C   C3173     1.0  0.72214  0.16720  0.87340  1.0000
  C   C3174     1.0  0.74165  0.16557  0.86249  1.0000
  C   C3175     1.0  0.74173  0.18301  0.85043  1.0000
  C   C3176     1.0  0.69423  0.24470  0.83283  1.0000
  H   H2514     1.0  0.69855  0.26218  0.85110  1.0000
  C   C3177     1.0  0.82733  0.36515  0.92127  1.0000
  H   H2515     1.0  0.76905  0.15563  0.76018  1.0000
  H   H2516     1.0  0.90526  0.36046  0.79942  1.0000
  C   C3178     1.0  0.69839  0.00836  0.87026  1.0000
  H   H2517     1.0  0.76206  0.20827  0.78522  1.0000
  H   H2518     1.0  0.74005  0.17313  0.78473  1.0000
  H   H2519     1.0  0.71081  0.16056  0.80555  1.0000
  H   H2520     1.0  0.70389  0.18256  0.82681  1.0000
  H   H2521     1.0  0.75552  0.23033  0.80634  1.0000
  H   H2522     1.0  0.73076  0.27157  0.81729  1.0000
  H   H2523     1.0  0.76137  0.29894  0.81719  1.0000
  H   H2524     1.0  0.79454  0.28757  0.83275  1.0000
  H   H2525     1.0  0.79657  0.24879  0.84903  1.0000
  H   H2526     1.0  0.76583  0.22140  0.84969  1.0000
  H   H2527     1.0  0.79034  0.46882  0.83172  1.0000
  C   C3179     1.0  0.84011  0.25678  0.73454  1.0000
  H   H2528     1.0  0.72177  0.15349  0.88265  1.0000
  H   H2529     1.0  0.75658  0.15067  0.86332  1.0000
  H   H2530     1.0  0.75683  0.18140  0.84196  1.0000
  P   P109      1.0  0.79087  0.25010  0.73626  1.0000
  C   C3180     1.0  0.91239  0.40499  0.81891  1.0000
  C   C3181     1.0  0.80087  0.40290  0.72457  1.0000
  C   C3182     1.0  0.92044  0.44590  0.85220  1.0000
  C   C3183     1.0  0.72218  0.28466  0.74910  1.0000
  H   H2531     1.0  0.86052  0.38216  0.72885  1.0000
  H   H2532     1.0  0.90377  0.25473  0.92017  1.0000
  C   C3184     1.0  0.83851  0.32640  0.94254  1.0000
  C   C3185     1.0  0.69558  0.09191  0.88234  1.0000
  H   H2533     1.0  0.68252  0.02295  0.93957  1.0000
  C   C3186     1.0  0.98189  0.44359  0.82936  1.0000
  H   H2534     1.0  0.84256  0.25135  0.72388  1.0000
  C   C3187     1.0  0.68760  0.15481  0.73453  1.0000
  C   C3188     1.0  0.84426  0.40555  0.82603  1.0000
  H   H2535     1.0  0.98391  0.45664  0.87610  1.0000
  H   H2536     1.0  0.96178  0.36222  0.82542  1.0000
  C   C3189     1.0  0.85225  0.41140  0.83826  1.0000
  C   C3190     1.0  0.93498  0.35916  0.81197  1.0000
  C   C3191     1.0  0.82310  0.34171  0.91979  1.0000
  C   C3192     1.0  0.71110  0.05531  0.91086  1.0000
  H   H2537     1.0  0.73170  0.39964  0.73228  1.0000
  C   C3193     1.0  0.83524  0.42404  0.81590  1.0000
  C   C3194     1.0  0.87809  0.28836  0.94716  1.0000
  P   P110      1.0  0.84839  0.30091  0.95525  1.0000
  H   H2538     1.0  0.84309  0.48206  0.76270  1.0000
  H   H2539     1.0  0.96263  0.26435  0.72361  1.0000
  C   C3195     1.0  0.84276  0.49160  0.85098  1.0000
  H   H2540     1.0  0.85721  0.43999  0.84991  1.0000
  C   C3196     1.0  0.85055  0.43582  0.84055  1.0000
  C   C3197     1.0  0.86000  0.26389  0.73963  1.0000
  C   C3198     1.0  0.76933  0.29706  0.74162  1.0000
  H   H2541     1.0  0.74882  0.17768  0.73950  1.0000
  H   H2542     1.0  0.84126  0.38728  0.93424  1.0000
  C   C3199     1.0  0.83351  0.44841  0.81816  1.0000
  C   C3200     1.0  0.72927  0.00196  0.89171  1.0000
  H   H2543     1.0  0.85982  0.39698  0.84594  1.0000
  H   H2544     1.0  0.78229  0.23084  0.96538  1.0000
  C   C3201     1.0  0.98754  0.36814  0.86579  1.0000
  H   H2545     1.0  0.79539  0.30513  0.95467  1.0000
  H   H2546     1.0  0.94077  0.27042  0.92484  1.0000
  C   C3202     1.0  0.90256  0.26606  0.92868  1.0000
  C   C3203     1.0  0.70573  0.11934  0.86111  1.0000
  C   C3204     1.0  0.81729  0.25757  0.74299  1.0000
  P   P111      1.0  0.72712  0.05181  0.89317  1.0000
  C   C3205     1.0  0.71925  0.07877  0.88086  1.0000
  H   H2547     1.0  0.98497  0.36244  0.87720  1.0000
  Fe  Fe216     1.0  0.67131  0.20770  0.75760  1.0000
  H   H2548     1.0  0.91217  0.35825  0.72340  1.0000
  C   C3206     1.0  0.78760  0.48855  0.83067  1.0000
  H   H2549     1.0  0.95251  0.39022  0.86587  1.0000
  H   H2550     1.0  0.84545  0.38671  0.82418  1.0000
  C   C3207     1.0  0.68897  0.11221  0.87262  1.0000
  H   H2551     1.0  0.99703  0.38879  0.82503  1.0000
  H   H2552     1.0  0.84345  0.46319  0.94795  1.0000
  H   H2553     1.0  0.87503  0.44239  0.87994  1.0000
  C   C3208     1.0  0.85728  0.27188  0.75313  1.0000
  C   C3209     1.0  0.75978  0.04731  0.89402  1.0000
  C   C3210     1.0  0.77577  0.03480  0.88383  1.0000
  C   C3211     1.0  0.80106  0.03118  0.88448  1.0000
  C   C3212     1.0  0.81057  0.04005  0.89528  1.0000
  H   H2554     1.0  0.79524  0.46993  0.73603  1.0000
  C   C3213     1.0  0.76950  0.05627  0.90480  1.0000
  C   C3214     1.0  0.92487  0.43749  0.96131  1.0000
  C   C3215     1.0  0.88794  0.43693  0.87097  1.0000
  C   C3216     1.0  0.87117  0.47023  0.95996  1.0000
  C   C3217     1.0  0.72663  0.30809  0.75038  1.0000
  C   C3218     1.0  0.70379  0.02869  0.87564  1.0000
  H   H2555     1.0  0.71327  0.09394  0.90943  1.0000
  H   H2556     1.0  0.91114  0.42845  0.73675  1.0000
  C   C3219     1.0  0.73607  0.08603  0.86924  1.0000
  C   C3220     1.0  0.76196  0.18592  0.74401  1.0000
  H   H2557     1.0  0.70035  0.13505  0.85355  1.0000
  H   H2558     1.0  0.80835  0.21565  0.76044  1.0000
  C   C3221     1.0  0.87990  0.27298  0.93646  1.0000
  C   C3222     1.0  0.83634  0.48261  0.87687  1.0000
  C   C3223     1.0  0.83289  0.47782  0.86327  1.0000
  H   H2559     1.0  0.70965  0.36795  0.74661  1.0000
  C   C3224     1.0  0.92344  0.42184  0.84886  1.0000
  C   C3225     1.0  0.68724  0.26168  0.84275  1.0000
  C   C3226     1.0  0.75046  0.44476  0.72376  1.0000
  C   C3227     1.0  0.94545  0.37133  0.82096  1.0000
  H   H2560     1.0  0.75766  0.06601  0.91277  1.0000
  H   H2561     1.0  0.84929  0.40495  0.74994  1.0000
  H   H2562     1.0  0.82953  0.41943  0.80629  1.0000
  C   C3228     1.0  0.69841  0.17521  0.72820  1.0000
  H   H2563     1.0  0.71306  0.44567  0.73381  1.0000
  C   C3229     1.0  0.89057  0.41309  0.86755  1.0000
  C   C3230     1.0  0.90807  0.40563  0.85643  1.0000
  P   P112      1.0  0.94787  0.41082  0.83578  1.0000
  H   H2564     1.0  0.91834  0.44773  0.95173  1.0000
  C   C3231     1.0  0.97193  0.39101  0.84448  1.0000
  C   C3232     1.0  0.96897  0.38374  0.85926  1.0000
  H   H2565     1.0  0.98798  0.35981  0.90939  1.0000
  H   H2566     1.0  0.87472  0.45134  0.96453  1.0000
  H   H2567     1.0  0.75848  0.21823  0.72901  1.0000
  C   C3233     1.0  0.75017  0.31433  0.74657  1.0000
  C   C3234     1.0  0.83610  0.25396  0.96202  1.0000
  C   C3235     1.0  0.70698  0.07821  0.91598  1.0000
  H   H2568     1.0  0.69536  0.04661  0.87153  1.0000
  H   H2569     1.0  0.93235  0.45859  0.84677  1.0000
  H   H2570     1.0  0.98950  0.32407  0.96370  1.0000
  C   C3236     1.0  0.93447  0.39459  0.82432  1.0000
  H   H2571     1.0  0.82655  0.46254  0.81014  1.0000
  C   C3237     1.0  0.99261  0.46279  0.82120  1.0000
  H   H2572     1.0  0.91780  0.34436  0.95647  1.0000
  C   C3238     1.0  0.79535  0.20763  0.75575  1.0000
  C   C3239     1.0  0.66673  0.01227  0.72748  1.0000
  H   H2573     1.0  0.87935  0.40022  0.87368  1.0000
  H   H2574     1.0  0.90063  0.47183  0.86597  1.0000
  H   H2575     1.0  0.77305  0.47209  0.79999  1.0000
  H   H2576     1.0  0.81327  0.02142  0.87662  1.0000
  H   H2577     1.0  0.91023  0.38696  0.85408  1.0000
  H   H2578     1.0  0.98434  0.36628  0.95170  1.0000
  C   C3240     1.0  0.69003  0.13414  0.72721  1.0000
  H   H2579     1.0  0.67765  0.15490  0.74512  1.0000
  H   H2580     1.0  0.87734  0.26392  0.73289  1.0000
  H   H2581     1.0  0.79890  0.17476  0.77055  1.0000
  C   C3241     1.0  0.90247  0.45349  0.86310  1.0000
  C   C3242     1.0  0.80246  0.28605  0.95724  1.0000
  C   C3243     1.0  0.93433  0.41281  0.96116  1.0000
  C   C3244     1.0  0.97854  0.46363  0.93735  1.0000
  C   C3245     1.0  0.66588  0.27845  0.84180  1.0000
  H   H2582     1.0  0.68494  0.23272  0.81371  1.0000
  H   H2583     1.0  0.70398  0.27970  0.75231  1.0000
  C   C3246     1.0  0.74484  0.46359  0.76027  1.0000
  C   C3247     1.0  0.79471  0.41694  0.73604  1.0000
  H   H2584     1.0  0.99189  0.41173  0.87820  1.0000
  C   C3248     1.0  0.74722  0.40882  0.75022  1.0000
  C   C3249     1.0  0.84042  0.45447  0.83073  1.0000
  H   H2585     1.0  0.79748  0.26601  0.76337  1.0000
  H   H2586     1.0  0.68188  0.11833  0.73223  1.0000
  C   C3250     1.0  0.91180  0.47048  0.91757  1.0000
  C   C3251     1.0  0.79004  0.18438  0.76153  1.0000
  H   H2587     1.0  0.87244  0.27825  0.75685  1.0000
  H   H2588     1.0  0.94313  0.34101  0.80965  1.0000
  C   C3252     1.0  0.93169  0.47647  0.88888  1.0000
  C   C3253     1.0  0.70261  0.03531  0.91966  1.0000
  H   H2589     1.0  0.75383  0.33232  0.74782  1.0000
  H   H2590     1.0  0.89893  0.38701  0.74116  1.0000
  C   C3254     1.0  0.82873  0.32236  0.93035  1.0000
  H   H2591     1.0  0.96581  0.26429  0.96351  1.0000
  S   S427      1.0  0.68778  0.20823  0.77788  1.0000
  C   C3255     1.0  0.76523  0.27316  0.74075  1.0000
  H   H2592     1.0  0.97825  0.27136  0.93730  1.0000
  C   C3256     1.0  0.69420  0.08111  0.92952  1.0000
  H   H2593     1.0  0.83248  0.27885  0.77207  1.0000
  H   H2594     1.0  0.74219  0.11166  0.85038  1.0000
  C   C3257     1.0  0.85312  0.47693  0.95071  1.0000
  H   H2595     1.0  0.69488  0.03302  0.73087  1.0000
  C   C3258     1.0  0.76346  0.45788  0.74922  1.0000
  H   H2596     1.0  0.93771  0.29802  0.94349  1.0000
  H   H2597     1.0  0.67529  0.06357  0.94846  1.0000
  C   C3259     1.0  0.77329  0.17358  0.75570  1.0000
  C   C3260     1.0  0.74137  0.26721  0.74438  1.0000
  H   H2598     1.0  0.81639  0.33845  0.91014  1.0000
  H   H2599     1.0  0.75428  0.07599  0.86761  1.0000
  H   H2600     1.0  0.72196  0.24898  0.78105  1.0000
  C   C3261     1.0  0.84310  0.34991  0.94380  1.0000
  C   C3262     1.0  0.82823  0.47985  0.77115  1.0000
  C   C3263     1.0  0.67967  0.24490  0.82186  1.0000
  C   C3264     1.0  0.78404  0.22015  0.74400  1.0000
  H   H2601     1.0  0.73737  0.24907  0.74395  1.0000
  C   C3265     1.0  0.83477  0.27232  0.76168  1.0000
  C   C3266     1.0  0.72928  0.10623  0.85940  1.0000
  C   C3267     1.0  0.73305  0.39591  0.74364  1.0000
  C   C3268     1.0  0.72074  0.37771  0.75170  1.0000
  H   H2602     1.0  0.68100  0.01082  0.96573  1.0000
  H   H2603     1.0  0.68608  0.01074  0.86211  1.0000
  H   H2604     1.0  0.82375  0.37992  0.91282  1.0000
  C   C3269     1.0  0.88459  0.48772  0.96308  1.0000
  H   H2605     1.0  0.68709  0.21778  0.85946  1.0000
  C   C3270     1.0  0.78087  0.47380  0.74464  1.0000
  C   C3271     1.0  0.96153  0.46809  0.80515  1.0000
  H   H2606     1.0  0.73094  0.45189  0.76385  1.0000
  C   C3272     1.0  0.90979  0.35143  0.96635  1.0000
  H   H2607     1.0  0.76873  0.02787  0.87535  1.0000
  H   H2608     1.0  0.90289  0.42238  0.82183  1.0000
  H   H2609     1.0  0.78751  0.30220  0.73893  1.0000
  H   H2610     1.0  0.67073  0.12235  0.87397  1.0000
  H   H2611     1.0  0.88546  0.40113  0.80537  1.0000
  C   C3273     1.0  0.74400  0.48466  0.76684  1.0000
  C   C3274     1.0  0.91359  0.37010  0.80620  1.0000
  H   H2612     1.0  0.68728  0.18715  0.88055  1.0000
  C   C3275     1.0  0.89917  0.29709  0.94974  1.0000
  S   S428      1.0  0.67412  0.27905  0.78527  1.0000
  C   C3276     1.0  0.83724  0.36926  0.93329  1.0000
  C   C3277     1.0  0.76741  0.20901  0.73812  1.0000
  C   C3278     1.0  0.89339  0.37315  0.96589  1.0000
  H   H2613     1.0  0.93446  0.40413  0.95162  1.0000
  H   H2614     1.0  0.93926  0.47884  0.87776  1.0000
  C   C3279     1.0  0.98239  0.47509  0.80913  1.0000
  C   C3280     1.0  0.99419  0.38311  0.83643  1.0000
  H   H2615     1.0  0.71188  0.32114  0.75464  1.0000
  C   C3281     1.0  0.92346  0.27479  0.93135  1.0000
  H   H2616     1.0  0.93478  0.44381  0.80983  1.0000
  H   H2617     1.0  0.85198  0.35326  0.95264  1.0000
  C   C3282     1.0  0.84226  0.39205  0.73078  1.0000
  P   P113      1.0  0.83746  0.48615  0.83342  1.0000
  C   C3283     1.0  0.92178  0.29023  0.94193  1.0000
  H   H2618     1.0  0.82912  0.47159  0.88632  1.0000
  C   C3284     1.0  0.98880  0.45248  0.92522  1.0000
  H   H2619     1.0  0.89791  0.31009  0.95731  1.0000
  H   H2620     1.0  0.82618  0.30418  0.92875  1.0000
  H   H2621     1.0  0.98531  0.47756  0.95613  1.0000
  H   H2622     1.0  0.95358  0.47762  0.79578  1.0000
  C   C3285     1.0  0.68559  0.06117  0.93810  1.0000
  H   H2623     1.0  0.82248  0.46341  0.86236  1.0000
  H   H2624     1.0  0.96919  0.29950  0.73530  1.0000
  C   C3286     1.0  0.83595  0.40501  0.74262  1.0000
  C   C3287     1.0  0.82757  0.27866  0.95813  1.0000
  H   H2625     1.0  0.83016  0.03716  0.89581  1.0000
  C   C3288     1.0  0.98394  0.26879  0.95950  1.0000
  C   C3289     1.0  0.71947  0.02567  0.88634  1.0000
  C   C3290     1.0  0.82468  0.39077  0.72184  1.0000
  C   C3291     1.0  0.91721  0.41573  0.72892  1.0000
  H   H2626     1.0  0.98985  0.43461  0.83885  1.0000
  H   H2627     1.0  0.88995  0.48818  0.83245  1.0000
  H   H2628     1.0  0.74923  0.49085  0.82857  1.0000
  C   C3292     1.0  0.72489  0.44983  0.72403  1.0000
  H   H2629     1.0  0.82648  0.21769  0.96753  1.0000
  C   C3293     1.0  0.83813  0.32435  0.72226  1.0000
  C   C3294     1.0  0.96272  0.30258  0.72487  1.0000
  H   H2630     1.0  0.98450  0.47560  0.84999  1.0000
  C   C3295     1.0  0.99365  0.46887  0.94683  1.0000
  C   C3296     1.0  0.99338  0.36203  0.96133  1.0000
  C   C3297     1.0  0.91792  0.37608  0.72127  1.0000
  C   C3298     1.0  0.81982  0.23676  0.96456  1.0000
  H   H2631     1.0  0.72998  0.48874  0.77559  1.0000
  H   H2632     1.0  0.81934  0.32636  0.72002  1.0000
  H   H2633     1.0  0.68262  0.03276  0.75665  1.0000
  H   H2634     1.0  0.74126  0.99917  0.90003  1.0000
  H   H2635     1.0  0.99061  0.49007  0.80287  1.0000
  H   H2636     1.0  0.76688  0.27458  0.95899  1.0000
  C   C3299     1.0  0.67949  0.02393  0.73568  1.0000
  C   C3300     1.0  0.99092  0.27262  0.94478  1.0000
  C   C3301     1.0  0.99636  0.33817  0.96812  1.0000
  C   C3302     1.0  0.99725  0.32279  0.90437  1.0000
  C   C3303     1.0  0.78623  0.26881  0.95976  1.0000
  C   C3304     1.0  0.79491  0.24416  0.96338  1.0000
  Fe  Fe217     1.0  0.78282  0.60916  0.16407  1.0000
  S   S429      1.0  0.81403  0.62988  0.16492  1.0000
  S   S430      1.0  0.74234  0.62550  0.16428  1.0000
  Fe  Fe218     1.0  0.81509  0.55887  0.16763  1.0000
  S   S431      1.0  0.84795  0.57644  0.16951  1.0000
  S   S432      1.0  0.82481  0.51741  0.16875  1.0000
  Fe  Fe219     1.0  0.82358  0.60186  0.18347  1.0000
  S   S433      1.0  0.82842  0.60905  0.20606  1.0000
  Fe  Fe220     1.0  0.83605  0.60264  0.15077  1.0000
  S   S434      1.0  0.86778  0.60857  0.13346  1.0000
  S   S435      1.0  0.79148  0.58200  0.18316  1.0000
  S   S436      1.0  0.80408  0.58415  0.14833  1.0000
  C   C3305     1.0  0.97198  0.63505  0.07856  1.0000
  H   H2637     1.0  0.98902  0.74453  0.07958  1.0000
  S   S437      1.0  0.69704  0.73826  0.16042  1.0000
  C   C3306     1.0  0.96275  0.51735  0.97917  1.0000
  Fe  Fe221     1.0  0.94252  0.54438  0.04933  1.0000
  S   S438      1.0  0.90468  0.55367  0.04299  1.0000
  H   H2638     1.0  0.85777  0.53864  0.14354  1.0000
  Fe  Fe222     1.0  0.95583  0.59394  0.03800  1.0000
  S   S439      1.0  0.91846  0.60804  0.03105  1.0000
  H   H2639     1.0  0.87624  0.52642  0.01557  1.0000
  Fe  Fe223     1.0  0.90441  0.58846  0.05238  1.0000
  S   S440      1.0  0.86993  0.59975  0.06715  1.0000
  Fe  Fe224     1.0  0.92208  0.57201  0.02232  1.0000
  S   S441      1.0  0.91415  0.56195  0.00108  1.0000
  S   S442      1.0  0.94150  0.57782  0.05993  1.0000
  S   S443      1.0  0.96014  0.55927  0.02811  1.0000
  H   H2640     1.0  0.70319  0.85577  0.10425  1.0000
  H   H2641     1.0  0.81931  0.71358  0.16664  1.0000
  C   C3307     1.0  0.84707  0.52369  0.11156  1.0000
  C   C3308     1.0  0.69752  0.87714  0.12160  1.0000
  H   H2642     1.0  0.96343  0.63920  0.05687  1.0000
  C   C3309     1.0  0.91471  0.56751  0.97185  1.0000
  H   H2643     1.0  0.72292  0.65686  0.19859  1.0000
  C   C3310     1.0  0.67411  0.92581  0.99304  1.0000
  C   C3311     1.0  0.68950  0.71649  0.20197  1.0000
  C   C3312     1.0  0.74917  0.77764  0.21282  1.0000
  H   H2644     1.0  0.82615  0.52394  0.13258  1.0000
  C   C3313     1.0  0.71324  0.70381  0.20180  1.0000
  C   C3314     1.0  0.94029  0.50089  0.12318  1.0000
  H   H2645     1.0  0.98532  0.63303  0.09895  1.0000
  H   H2646     1.0  0.78249  0.74122  0.17541  1.0000
  H   H2647     1.0  0.70499  0.86338  0.05178  1.0000
  C   C3315     1.0  0.86810  0.60401  0.11533  1.0000
  C   C3316     1.0  0.84655  0.60350  0.10941  1.0000
  C   C3317     1.0  0.84742  0.60179  0.09469  1.0000
  C   C3318     1.0  0.86986  0.60012  0.08580  1.0000
  C   C3319     1.0  0.89148  0.59977  0.09183  1.0000
  C   C3320     1.0  0.89056  0.60195  0.10649  1.0000
  H   H2648     1.0  0.82916  0.60533  0.11608  1.0000
  H   H2649     1.0  0.83059  0.60224  0.09010  1.0000
  H   H2650     1.0  0.90882  0.59868  0.08512  1.0000
  H   H2651     1.0  0.90729  0.60244  0.11097  1.0000
  C   C3321     1.0  0.73062  0.65696  0.16456  1.0000
  C   C3322     1.0  0.74526  0.67529  0.15982  1.0000
  C   C3323     1.0  0.73470  0.70004  0.15884  1.0000
  C   C3324     1.0  0.70951  0.70682  0.16283  1.0000
  C   C3325     1.0  0.69515  0.68852  0.16831  1.0000
  C   C3326     1.0  0.70557  0.66374  0.16897  1.0000
  H   H2652     1.0  0.76457  0.67040  0.15645  1.0000
  H   H2653     1.0  0.74610  0.71401  0.15476  1.0000
  C   C3327     1.0  0.81176  0.68349  0.18248  1.0000
  H   H2654     1.0  0.69415  0.64971  0.17279  1.0000
  H   H2655     1.0  0.93703  0.63608  0.00386  1.0000
  C   C3328     1.0  0.75688  0.78257  0.19813  1.0000
  C   C3329     1.0  0.75028  0.54571  0.11150  1.0000
  C   C3330     1.0  0.68479  0.89498  0.06060  1.0000
  C   C3331     1.0  0.75185  0.56830  0.11578  1.0000
  H   H2656     1.0  0.96659  0.60914  0.98918  1.0000
  C   C3332     1.0  0.86453  0.63944  0.20277  1.0000
  H   H2657     1.0  0.69624  0.85661  0.20393  1.0000
  H   H2658     1.0  0.69173  0.80180  0.08386  1.0000
  C   C3333     1.0  0.75542  0.83127  0.21663  1.0000
  H   H2659     1.0  0.86678  0.63739  0.19150  1.0000
  P   P114      1.0  0.75443  0.67957  0.21417  1.0000
  C   C3334     1.0  0.91592  0.57920  0.98385  1.0000
  C   C3335     1.0  0.91780  0.60412  0.98184  1.0000
  C   C3336     1.0  0.73458  0.64272  0.20433  1.0000
  H   H2660     1.0  0.91803  0.61349  0.99099  1.0000
  C   C3337     1.0  0.96337  0.65852  0.00689  1.0000
  C   C3338     1.0  0.82372  0.51021  0.06051  1.0000
  H   H2661     1.0  0.77014  0.51269  0.10417  1.0000
  H   H2662     1.0  0.94056  0.49369  0.99287  1.0000
  H   H2663     1.0  0.73252  0.54034  0.11121  1.0000
  C   C3339     1.0  0.84015  0.54710  0.06214  1.0000
  H   H2664     1.0  0.89360  0.66148  0.20095  1.0000
  S   S444      1.0  0.98867  0.61378  0.03235  1.0000
  H   H2665     1.0  0.68110  0.72088  0.19212  1.0000
  H   H2666     1.0  0.72285  0.69857  0.19174  1.0000
  H   H2667     1.0  0.94068  0.51265  0.03222  1.0000
  H   H2668     1.0  0.70446  0.78329  0.13486  1.0000
  C   C3340     1.0  0.66958  0.83215  0.21101  1.0000
  H   H2669     1.0  0.93718  0.50808  0.13340  1.0000
  H   H2670     1.0  0.77485  0.78772  0.19452  1.0000
  H   H2671     1.0  0.97143  0.52161  0.98786  1.0000
  C   C3341     1.0  0.87975  0.65307  0.20818  1.0000
  H   H2672     1.0  0.69167  0.83482  0.07166  1.0000
  H   H2673     1.0  0.77380  0.52092  0.16297  1.0000
  C   C3342     1.0  0.72442  0.69781  0.21446  1.0000
  H   H2674     1.0  0.67674  0.91660  0.00364  1.0000
  H   H2675     1.0  0.88795  0.49867  0.06177  1.0000
  S   S445      1.0  0.95499  0.50757  0.06053  1.0000
  H   H2676     1.0  0.72038  0.61445  0.19612  1.0000
  C   C3343     1.0  0.68477  0.91471  0.98097  1.0000
  C   C3344     1.0  0.75154  0.64824  0.21266  1.0000
  C   C3345     1.0  0.95588  0.63931  0.00148  1.0000
  H   H2677     1.0  0.67598  0.69346  0.17186  1.0000
  H   H2678     1.0  0.74751  0.58081  0.20830  1.0000
  H   H2679     1.0  0.84754  0.56337  0.05700  1.0000
  C   C3346     1.0  0.71620  0.77428  0.11349  1.0000
  C   C3347     1.0  0.74106  0.78186  0.18799  1.0000
  C   C3348     1.0  0.73296  0.61849  0.20294  1.0000
  C   C3349     1.0  0.68957  0.86385  0.11215  1.0000
  C   C3350     1.0  0.79559  0.67503  0.19398  1.0000
  H   H2680     1.0  0.75463  0.72703  0.19620  1.0000
  C   C3351     1.0  0.68816  0.63029  0.14243  1.0000
  H   H2681     1.0  0.87347  0.52439  0.09250  1.0000
  C   C3352     1.0  0.82676  0.50821  0.20869  1.0000
  H   H2682     1.0  0.81829  0.49786  0.05409  1.0000
  H   H2683     1.0  0.70461  0.77731  0.18460  1.0000
  C   C3353     1.0  0.88754  0.53570  0.10996  1.0000
  H   H2684     1.0  0.77605  0.59295  0.11920  1.0000
  C   C3354     1.0  0.80612  0.49546  0.16687  1.0000
  C   C3355     1.0  0.79612  0.55974  0.11208  1.0000
  C   C3356     1.0  0.68030  0.60741  0.14483  1.0000
  C   C3357     1.0  0.67674  0.72361  0.21476  1.0000
  H   H2685     1.0  0.67786  0.66882  0.14206  1.0000
  H   H2686     1.0  0.83679  0.53427  0.04229  1.0000
  H   H2687     1.0  0.78099  0.88234  0.21754  1.0000
  H   H2688     1.0  0.89646  0.54759  0.12901  1.0000
  H   H2689     1.0  0.67437  0.74340  0.13325  1.0000
  H   H2690     1.0  0.91289  0.54843  0.97325  1.0000
  C   C3358     1.0  0.78628  0.72282  0.18069  1.0000
  C   C3359     1.0  0.68614  0.84757  0.21312  1.0000
  H   H2691     1.0  0.67426  0.81796  0.12751  1.0000
  C   C3360     1.0  0.99728  0.62809  0.99020  1.0000
  H   H2692     1.0  0.70759  0.63165  0.14021  1.0000
  C   C3361     1.0  0.95920  0.50241  0.09869  1.0000
  C   C3362     1.0  0.97607  0.64242  0.06391  1.0000
  C   C3363     1.0  0.88316  0.53997  0.12429  1.0000
  C   C3364     1.0  0.74834  0.59954  0.20973  1.0000
  C   C3365     1.0  0.99683  0.65326  0.05819  1.0000
  H   H2693     1.0  0.71675  0.87891  0.12091  1.0000
  H   H2694     1.0  0.68700  0.89772  0.13951  1.0000
  C   C3366     1.0  0.83401  0.53072  0.05386  1.0000
  H   H2695     1.0  0.69008  0.90759  0.05137  1.0000
  C   C3367     1.0  0.70910  0.77293  0.20700  1.0000
  C   C3368     1.0  0.68574  0.85368  0.07252  1.0000
  H   H2696     1.0  0.95602  0.62636  0.08289  1.0000
  H   H2697     1.0  0.72266  0.76849  0.09132  1.0000
  H   H2698     1.0  0.81366  0.56575  0.11214  1.0000
  C   C3369     1.0  0.71716  0.77706  0.19243  1.0000
  C   C3370     1.0  0.71266  0.77998  0.09910  1.0000
  C   C3371     1.0  0.79471  0.53672  0.10817  1.0000
  H   H2699     1.0  0.79224  0.49342  0.12788  1.0000
  H   H2700     1.0  0.95036  0.66990  0.01357  1.0000
  C   C3372     1.0  0.66961  0.86181  0.08420  1.0000
  C   C3373     1.0  0.68082  0.88780  0.13200  1.0000
  H   H2701     1.0  0.73536  0.58043  0.11887  1.0000
  C   C3374     1.0  0.97273  0.62407  0.99322  1.0000
  H   H2702     1.0  0.69015  0.77064  0.21038  1.0000
  C   C3375     1.0  0.77477  0.57535  0.11599  1.0000
  H   H2703     1.0  0.99114  0.58735  0.06067  1.0000
  H   H2704     1.0  0.74697  0.78581  0.17668  1.0000
  H   H2705     1.0  0.79546  0.74994  0.20433  1.0000
  P   P115      1.0  0.82227  0.51646  0.10320  1.0000
  H   H2706     1.0  0.79955  0.65646  0.19898  1.0000
  C   C3376     1.0  0.68214  0.81502  0.10468  1.0000
  C   C3377     1.0  0.98853  0.63876  0.08758  1.0000
  C   C3378     1.0  0.69558  0.79988  0.09475  1.0000
  H   H2707     1.0  0.84094  0.55609  0.08323  1.0000
  H   H2708     1.0  0.72913  0.75861  0.11689  1.0000
  C   C3379     1.0  0.70241  0.78826  0.12360  1.0000
  C   C3380     1.0  0.86971  0.52729  0.10364  1.0000
  C   C3381     1.0  0.76576  0.60483  0.21766  1.0000
  H   H2709     1.0  0.82611  0.52327  0.20014  1.0000
  H   H2710     1.0  0.69364  0.59109  0.14428  1.0000
  H   H2711     1.0  0.82789  0.67140  0.17874  1.0000
  H   H2712     1.0  0.89503  0.52148  0.99110  1.0000
  H   H2713     1.0  0.69520  0.89660  0.98220  1.0000
  C   C3382     1.0  0.82007  0.50583  0.07545  1.0000
  H   H2714     1.0  0.83501  0.72316  0.20362  1.0000
  C   C3383     1.0  0.77163  0.53004  0.10759  1.0000
  C   C3384     1.0  0.77032  0.71457  0.19239  1.0000
  C   C3385     1.0  0.84332  0.52688  0.12615  1.0000
  H   H2715     1.0  0.99345  0.67742  0.00830  1.0000
  C   C3386     1.0  0.67115  0.65140  0.14348  1.0000
  C   C3387     1.0  0.94489  0.50185  0.98200  1.0000
  H   H2716     1.0  0.90442  0.53971  0.10358  1.0000
  C   C3388     1.0  0.86125  0.53515  0.13244  1.0000
  C   C3389     1.0  0.80699  0.70728  0.17574  1.0000
  H   H2717     1.0  0.73894  0.82621  0.21370  1.0000
  C   C3390     1.0  0.77466  0.69044  0.19896  1.0000
  C   C3391     1.0  0.68546  0.80825  0.11928  1.0000
  C   C3392     1.0  0.69325  0.87011  0.06088  1.0000
  C   C3393     1.0  0.82739  0.52157  0.08387  1.0000
  C   C3394     1.0  0.83653  0.54278  0.07706  1.0000
  C   C3395     1.0  0.78172  0.50189  0.16417  1.0000
  C   C3396     1.0  0.66891  0.90354  0.07203  1.0000
  C   C3397     1.0  0.95487  0.51195  0.11177  1.0000
  H   H2718     1.0  0.96295  0.52780  0.11306  1.0000
  H   H2719     1.0  0.97068  0.51078  0.08981  1.0000
  C   C3398     1.0  0.84695  0.62792  0.21204  1.0000
  C   C3399     1.0  0.88881  0.50588  0.99780  1.0000
  H   H2720     1.0  0.97406  0.63807  0.21841  1.0000
  C   C3400     1.0  0.93200  0.49785  0.97103  1.0000
  S   S446      1.0  0.66530  0.82890  0.19315  1.0000
  C   C3401     1.0  0.87788  0.50879  0.01170  1.0000
  H   H2721     1.0  0.74439  0.86943  0.21015  1.0000
  C   C3402     1.0  0.72504  0.77294  0.21717  1.0000
  C   C3403     1.0  0.98772  0.66270  0.00393  1.0000
  C   C3404     1.0  0.94136  0.49380  0.03675  1.0000
  C   C3405     1.0  0.75838  0.85592  0.21462  1.0000
  H   H2722     1.0  0.71712  0.96180  0.21351  1.0000
  C   C3406     1.0  0.82868  0.73342  0.21264  1.0000
  C   C3407     1.0  0.80619  0.74878  0.21307  1.0000
  C   C3408     1.0  0.77900  0.86318  0.21874  1.0000
  Fe  Fe225     1.0  0.87281  0.71181  0.27459  1.0000
  S   S447      1.0  0.87425  0.67211  0.27191  1.0000
  S   S448      1.0  0.83409  0.73109  0.28037  1.0000
  Fe  Fe226     1.0  0.92877  0.71003  0.26704  1.0000
  S   S449      1.0  0.93332  0.67078  0.26333  1.0000
  Fe  Fe227     1.0  0.89950  0.68036  0.25189  1.0000
  S   S450      1.0  0.89819  0.67173  0.22916  1.0000
  Fe  Fe228     1.0  0.90766  0.66621  0.28370  1.0000
  S   S451      1.0  0.92010  0.63402  0.29977  1.0000
  S   S452      1.0  0.89668  0.72030  0.25407  1.0000
  S   S453      1.0  0.90447  0.70524  0.28794  1.0000
  Fe  Fe229     1.0  0.73016  0.91503  0.26090  1.0000
  S   S454      1.0  0.69614  0.90280  0.27352  1.0000
  S   S455      1.0  0.73135  0.95449  0.25087  1.0000
  Fe  Fe230     1.0  0.76021  0.86391  0.26624  1.0000
  S   S456      1.0  0.72884  0.84881  0.28004  1.0000
  S   S457      1.0  0.79843  0.84319  0.26104  1.0000
  Fe  Fe231     1.0  0.70624  0.86834  0.26277  1.0000
  H   H2723     1.0  0.68754  0.79742  0.37389  1.0000
  Fe  Fe232     1.0  0.72146  0.88441  0.28947  1.0000
  S   S458      1.0  0.71480  0.89413  0.31217  1.0000
  S   S459      1.0  0.73806  0.88215  0.24857  1.0000
  S   S460      1.0  0.75510  0.89788  0.27719  1.0000
  Fe  Fe233     1.0  0.95277  0.60426  0.39661  1.0000
  S   S461      1.0  0.91566  0.62612  0.40081  1.0000
  H   H2724     1.0  0.90181  0.53905  0.32436  1.0000
  Fe  Fe234     1.0  0.93205  0.55762  0.39566  1.0000
  S   S462      1.0  0.89316  0.57559  0.39967  1.0000
  S   S463      1.0  0.94725  0.51877  0.39214  1.0000
  Fe  Fe235     1.0  0.90553  0.60646  0.38378  1.0000
  S   S464      1.0  0.88343  0.62789  0.36653  1.0000
  Fe  Fe236     1.0  0.90691  0.59356  0.41632  1.0000
  S   S465      1.0  0.88663  0.59318  0.43883  1.0000
  S   S466      1.0  0.94336  0.58695  0.37859  1.0000
  S   S467      1.0  0.94479  0.57331  0.41331  1.0000
  C   C3409     1.0  0.84432  0.63084  0.22668  1.0000
  C   C3410     1.0  0.75308  0.77639  0.24368  1.0000
  H   H2725     1.0  0.72010  0.76464  0.28226  1.0000
  H   H2726     1.0  0.79866  0.67639  0.26526  1.0000
  C   C3411     1.0  0.89852  0.82905  0.24779  1.0000
  C   C3412     1.0  0.75737  0.66848  0.24352  1.0000
  H   H2727     1.0  0.86483  0.55125  0.43433  1.0000
  H   H2728     1.0  0.97058  0.53079  0.45653  1.0000
  C   C3413     1.0  0.69593  0.87979  0.32613  1.0000
  H   H2729     1.0  0.80594  0.76853  0.24546  1.0000
  H   H2730     1.0  0.71803  0.77028  0.22837  1.0000
  C   C3414     1.0  0.90826  0.80594  0.24394  1.0000
  C   C3415     1.0  0.86804  0.51211  0.43590  1.0000
  C   C3416     1.0  0.93666  0.49742  0.43385  1.0000
  H   H2731     1.0  0.88420  0.85034  0.26493  1.0000
  P   P116      1.0  0.92683  0.49449  0.34011  1.0000
  H   H2732     1.0  0.76017  0.65872  0.26605  1.0000
  C   C3417     1.0  0.96119  0.52113  0.45037  1.0000
  H   H2733     1.0  0.70198  0.86394  0.22839  1.0000
  H   H2734     1.0  0.80743  0.80822  0.23203  1.0000
  C   C3418     1.0  0.99418  0.65170  0.35584  1.0000
  H   H2735     1.0  0.78191  0.63263  0.22471  1.0000
  H   H2736     1.0  0.67701  0.97112  0.32392  1.0000
  C   C3419     1.0  0.91023  0.63313  0.31834  1.0000
  C   C3420     1.0  0.89115  0.65006  0.32374  1.0000
  C   C3421     1.0  0.88317  0.64822  0.33852  1.0000
  C   C3422     1.0  0.89445  0.62975  0.34807  1.0000
  C   C3423     1.0  0.91379  0.61302  0.34268  1.0000
  C   C3424     1.0  0.92151  0.61462  0.32787  1.0000
  H   H2737     1.0  0.88225  0.66431  0.31651  1.0000
  H   H2738     1.0  0.86816  0.66117  0.34260  1.0000
  H   H2739     1.0  0.92252  0.59862  0.34988  1.0000
  H   H2740     1.0  0.93624  0.60141  0.32379  1.0000
  C   C3425     1.0  0.87755  0.65545  0.22288  1.0000
  C   C3426     1.0  0.85947  0.64454  0.23208  1.0000
  H   H2741     1.0  0.85747  0.64626  0.24339  1.0000
  C   C3427     1.0  0.82409  0.76182  0.27400  1.0000
  C   C3428     1.0  0.84037  0.77691  0.26639  1.0000
  C   C3429     1.0  0.83204  0.80159  0.26209  1.0000
  C   C3430     1.0  0.80741  0.81148  0.26543  1.0000
  C   C3431     1.0  0.79091  0.79617  0.27254  1.0000
  C   C3432     1.0  0.79926  0.77148  0.27690  1.0000
  H   H2742     1.0  0.85945  0.76962  0.26399  1.0000
  H   H2743     1.0  0.84487  0.81317  0.25636  1.0000
  H   H2744     1.0  0.77180  0.80343  0.27480  1.0000
  H   H2745     1.0  0.78645  0.75984  0.28258  1.0000
  H   H2746     1.0  0.74803  0.73105  0.27140  1.0000
  C   C3433     1.0  0.71504  0.76553  0.37502  1.0000
  C   C3434     1.0  0.91138  0.81742  0.29946  1.0000
  H   H2747     1.0  0.87769  0.85345  0.31133  1.0000
  H   H2748     1.0  0.96513  0.53717  0.29577  1.0000
  C   C3435     1.0  0.66576  0.96814  0.23728  1.0000
  C   C3436     1.0  0.90077  0.59775  0.45369  1.0000
  C   C3437     1.0  0.92430  0.60433  0.45198  1.0000
  H   H2749     1.0  0.91882  0.76811  0.25155  1.0000
  H   H2750     1.0  0.93411  0.60702  0.44138  1.0000
  H   H2751     1.0  0.93259  0.80882  0.33208  1.0000
  C   C3438     1.0  0.88556  0.76846  0.30545  1.0000
  C   C3439     1.0  0.97088  0.64535  0.35591  1.0000
  C   C3440     1.0  0.75651  0.75308  0.25146  1.0000
  H   H2752     1.0  0.91406  0.80348  0.23282  1.0000
  H   H2753     1.0  0.75025  0.74270  0.34653  1.0000
  H   H2754     1.0  0.89494  0.51923  0.40049  1.0000
  C   C3441     1.0  0.73229  0.97840  0.26130  1.0000
  C   C3442     1.0  0.73054  0.97437  0.27624  1.0000
  H   H2755     1.0  0.72869  0.95631  0.28167  1.0000
  S   S468      1.0  0.96154  0.73133  0.26219  1.0000
  H   H2756     1.0  0.66554  0.95458  0.40756  1.0000
  C   C3443     1.0  0.87062  0.78951  0.30007  1.0000
  C   C3444     1.0  0.69843  0.80302  0.30459  1.0000
  H   H2757     1.0  0.88680  0.73156  0.31584  1.0000
  H   H2758     1.0  0.76351  0.79346  0.30105  1.0000
  H   H2759     1.0  0.69714  0.92651  0.36054  1.0000
  C   C3445     1.0  0.87519  0.74787  0.31188  1.0000
  H   H2760     1.0  0.80184  0.72495  0.31076  1.0000
  H   H2761     1.0  0.68976  0.91380  0.40625  1.0000
  C   C3446     1.0  0.74484  0.74892  0.26538  1.0000
  C   C3447     1.0  0.68947  0.85175  0.22699  1.0000
  H   H2762     1.0  0.73442  0.70928  0.29952  1.0000
  C   C3448     1.0  0.89119  0.83219  0.26217  1.0000
  H   H2763     1.0  0.69413  0.80554  0.34776  1.0000
  C   C3449     1.0  0.68798  0.71856  0.22732  1.0000
  H   H2764     1.0  0.68943  0.85172  0.31438  1.0000
  C   C3450     1.0  0.95839  0.52046  0.30070  1.0000
  H   H2765     1.0  0.94980  0.67836  0.22181  1.0000
  H   H2766     1.0  0.71997  0.70231  0.23703  1.0000
  C   C3451     1.0  0.67311  0.94895  0.39724  1.0000
  H   H2767     1.0  0.70579  0.89999  0.38261  1.0000
  C   C3452     1.0  0.82599  0.87035  0.28672  1.0000
  C   C3453     1.0  0.69579  0.91817  0.38320  1.0000
  H   H2768     1.0  0.84709  0.88978  0.31444  1.0000
  C   C3454     1.0  0.70509  0.95421  0.45308  1.0000
  H   H2769     1.0  0.77920  0.75938  0.32321  1.0000
  H   H2770     1.0  0.79883  0.69714  0.22020  1.0000
  C   C3455     1.0  0.86235  0.84332  0.29357  1.0000
  H   H2771     1.0  0.98878  0.63921  0.26566  1.0000
  C   C3456     1.0  0.76786  0.67970  0.23048  1.0000
  C   C3457     1.0  0.84329  0.84966  0.28489  1.0000
  H   H2772     1.0  0.96393  0.63230  0.36440  1.0000
  H   H2773     1.0  0.95536  0.52112  0.35505  1.0000
  H   H2774     1.0  0.89512  0.80771  0.32112  1.0000
  H   H2775     1.0  0.81146  0.87513  0.27987  1.0000
  H   H2776     1.0  0.75128  0.96173  0.32654  1.0000
  C   C3458     1.0  0.86709  0.53422  0.44134  1.0000
  C   C3459     1.0  0.76824  0.66757  0.25605  1.0000
  H   H2777     1.0  0.67313  0.88577  0.36091  1.0000
  P   P117      1.0  0.88411  0.81591  0.29145  1.0000
  H   H2778     1.0  0.71559  0.94883  0.34208  1.0000
  C   C3460     1.0  0.91145  0.81231  0.31435  1.0000
  C   C3461     1.0  0.66826  0.96430  0.38473  1.0000
  C   C3462     1.0  0.78990  0.67745  0.25563  1.0000
  C   C3463     1.0  0.92973  0.52224  0.43496  1.0000
  C   C3464     1.0  0.95394  0.82398  0.29724  1.0000
  C   C3465     1.0  0.73706  0.97533  0.33078  1.0000
  C   C3466     1.0  0.96671  0.67274  0.22661  1.0000
  H   H2779     1.0  0.78603  0.82863  0.29390  1.0000
  C   C3467     1.0  0.93278  0.82339  0.29095  1.0000
  H   H2780     1.0  0.91531  0.53253  0.42910  1.0000
  H   H2781     1.0  0.81389  0.90086  0.29872  1.0000
  P   P118      1.0  0.66996  0.97562  0.35487  1.0000
  C   C3468     1.0  0.96537  0.67280  0.33423  1.0000
  H   H2782     1.0  0.72949  0.82568  0.33895  1.0000
  H   H2783     1.0  0.94808  0.53354  0.32118  1.0000
  C   C3469     1.0  0.68567  0.85928  0.32446  1.0000
  H   H2784     1.0  0.81561  0.76855  0.30752  1.0000
  C   C3470     1.0  0.93877  0.49728  0.32142  1.0000
  C   C3471     1.0  0.73712  0.79520  0.24987  1.0000
  C   C3472     1.0  0.71174  0.70579  0.22718  1.0000
  H   H2785     1.0  0.73334  0.94769  0.43558  1.0000
  H   H2786     1.0  0.76835  0.73813  0.24684  1.0000
  C   C3473     1.0  0.68063  0.96392  0.45710  1.0000
  C   C3474     1.0  0.93263  0.81295  0.32060  1.0000
  C   C3475     1.0  0.90329  0.50076  0.39910  1.0000
  C   C3476     1.0  0.72522  0.79085  0.26371  1.0000
  C   C3477     1.0  0.90317  0.78896  0.26883  1.0000
  C   C3478     1.0  0.69138  0.88922  0.33930  1.0000
  H   H2787     1.0  0.93825  0.65129  0.34535  1.0000
  C   C3479     1.0  0.84526  0.78941  0.30101  1.0000
  H   H2788     1.0  0.96708  0.50269  0.28155  1.0000
  C   C3480     1.0  0.72922  0.76782  0.27151  1.0000
  H   H2789     1.0  0.72999  0.99022  0.29575  1.0000
  C   C3481     1.0  0.83502  0.76873  0.30736  1.0000
  C   C3482     1.0  0.84608  0.87857  0.30616  1.0000
  C   C3483     1.0  0.98486  0.49496  0.36217  1.0000
  H   H2790     1.0  0.71158  0.74390  0.31142  1.0000
  H   H2791     1.0  0.97034  0.81910  0.31688  1.0000
  C   C3484     1.0  0.90942  0.52243  0.34561  1.0000
  C   C3485     1.0  0.90469  0.52516  0.36022  1.0000
  C   C3486     1.0  0.89114  0.54652  0.36476  1.0000
  C   C3487     1.0  0.88196  0.56525  0.35477  1.0000
  C   C3488     1.0  0.88605  0.56248  0.34022  1.0000
  C   C3489     1.0  0.81212  0.75897  0.23617  1.0000
  H   H2792     1.0  0.90542  0.77317  0.27676  1.0000
  H   H2793     1.0  0.69063  0.93702  0.23065  1.0000
  C   C3490     1.0  0.98851  0.67954  0.33426  1.0000
  C   C3491     1.0  0.71452  0.95529  0.43863  1.0000
  C   C3492     1.0  0.68683  0.92592  0.39650  1.0000
  C   C3493     1.0  0.89302  0.81207  0.27279  1.0000
  H   H2794     1.0  0.99225  0.50807  0.36707  1.0000
  H   H2795     1.0  0.90527  0.76770  0.30443  1.0000
  C   C3494     1.0  0.89943  0.54100  0.33564  1.0000
  H   H2796     1.0  0.91161  0.51082  0.36813  1.0000
  H   H2797     1.0  0.88785  0.54859  0.37604  1.0000
  H   H2798     1.0  0.87175  0.58198  0.35831  1.0000
  H   H2799     1.0  0.97518  0.70009  0.28804  1.0000
  C   C3495     1.0  0.99141  0.70693  0.28240  1.0000
  C   C3496     1.0  0.86936  0.53448  0.45578  1.0000
  C   C3497     1.0  0.70096  0.97073  0.21943  1.0000
  H   H2800     1.0  0.71517  0.80785  0.29852  1.0000
  H   H2801     1.0  0.74340  0.73483  0.37276  1.0000
  H   H2802     1.0  0.71283  0.80546  0.26832  1.0000
  C   C3498     1.0  0.96367  0.50221  0.35545  1.0000
  H   H2803     1.0  0.75172  0.86058  0.33142  1.0000
  H   H2804     1.0  0.95421  0.68069  0.32579  1.0000
  H   H2805     1.0  0.84210  0.73169  0.31737  1.0000
  H   H2806     1.0  0.83333  0.80490  0.29653  1.0000
  C   C3499     1.0  0.98045  0.65003  0.22470  1.0000
  S   S469      1.0  0.98731  0.62144  0.39366  1.0000
  H   H2807     1.0  0.83072  0.62210  0.23394  1.0000
  C   C3500     1.0  0.84994  0.74797  0.31281  1.0000
  H   H2808     1.0  0.69934  0.90508  0.34057  1.0000
  C   C3501     1.0  0.95951  0.50104  0.29271  1.0000
  C   C3502     1.0  0.95389  0.81874  0.31205  1.0000
  C   C3503     1.0  0.69097  0.93342  0.37065  1.0000
  C   C3504     1.0  0.99530  0.68007  0.24202  1.0000
  H   H2809     1.0  0.67681  0.77238  0.33613  1.0000
  C   C3505     1.0  0.67737  0.95677  0.37126  1.0000
  S   S470      1.0  0.67841  0.84670  0.25665  1.0000
  H   H2810     1.0  0.77971  0.70014  0.29888  1.0000
  C   C3506     1.0  0.69979  0.96652  0.42812  1.0000
  C   C3507     1.0  0.94172  0.53400  0.44338  1.0000
  C   C3508     1.0  0.67643  0.87842  0.35076  1.0000
  H   H2811     1.0  0.67824  0.72461  0.23716  1.0000
  H   H2812     1.0  0.77998  0.86232  0.30895  1.0000
  C   C3509     1.0  0.95642  0.65600  0.34517  1.0000
  C   C3510     1.0  0.97420  0.68779  0.23522  1.0000
  C   C3511     1.0  0.93491  0.60807  0.46398  1.0000
  C   C3512     1.0  0.77319  0.81359  0.22272  1.0000
  C   C3513     1.0  0.68601  0.95672  0.22912  1.0000
  C   C3514     1.0  0.82737  0.88483  0.29734  1.0000
  C   C3515     1.0  0.86348  0.85789  0.30433  1.0000
  C   C3516     1.0  0.78976  0.68934  0.23015  1.0000
  C   C3517     1.0  0.80071  0.68818  0.24267  1.0000
  H   H2813     1.0  0.71212  0.76204  0.38658  1.0000
  C   C3518     1.0  0.87192  0.51263  0.46506  1.0000
  C   C3519     1.0  0.96839  0.49619  0.44927  1.0000
  C   C3520     1.0  0.94841  0.51847  0.31506  1.0000
  C   C3521     1.0  0.98983  0.72235  0.26958  1.0000
  C   C3522     1.0  0.66516  0.95827  0.32930  1.0000
  H   H2814     1.0  0.73365  0.81324  0.24406  1.0000
  H   H2815     1.0  0.82614  0.53111  0.22518  1.0000
  H   H2816     1.0  0.84517  0.74109  0.24470  1.0000
  C   C3523     1.0  0.77412  0.82746  0.30392  1.0000
  C   C3524     1.0  0.77082  0.84645  0.31241  1.0000
  C   C3525     1.0  0.75496  0.84540  0.32511  1.0000
  C   C3526     1.0  0.74225  0.82546  0.32933  1.0000
  C   C3527     1.0  0.74549  0.80616  0.32091  1.0000
  C   C3528     1.0  0.76135  0.80750  0.30806  1.0000
  P   P119      1.0  0.72759  0.78122  0.32573  1.0000
  C   C3529     1.0  0.74379  0.75458  0.31796  1.0000
  C   C3530     1.0  0.72267  0.77478  0.34503  1.0000
  C   C3531     1.0  0.73649  0.75480  0.35229  1.0000
  C   C3532     1.0  0.73265  0.75023  0.36722  1.0000
  H   H2817     1.0  0.93611  0.55326  0.44428  1.0000
  C   C3533     1.0  0.70121  0.78541  0.36790  1.0000
  C   C3534     1.0  0.70501  0.79000  0.35301  1.0000
  C   C3535     1.0  0.73125  0.74004  0.31141  1.0000
  C   C3536     1.0  0.74413  0.72037  0.30463  1.0000
  C   C3537     1.0  0.76957  0.71509  0.30434  1.0000
  C   C3538     1.0  0.78209  0.72911  0.31110  1.0000
  C   C3539     1.0  0.76926  0.74865  0.31801  1.0000
  C   C3540     1.0  0.69883  0.79006  0.31830  1.0000
  C   C3541     1.0  0.67696  0.78308  0.32573  1.0000
  C   C3542     1.0  0.66606  0.85797  0.34910  1.0000
  H   H2818     1.0  0.99713  0.50859  0.40400  1.0000
  C   C3543     1.0  0.69770  0.98553  0.34492  1.0000
  C   C3544     1.0  0.67608  0.84069  0.23898  1.0000
  H   H2819     1.0  0.81795  0.69507  0.24230  1.0000
  H   H2820     1.0  0.84174  0.83860  0.27667  1.0000
  H   H2821     1.0  0.86639  0.51199  0.42469  1.0000
  H   H2822     1.0  0.67624  0.82007  0.28805  1.0000
  C   C3545     1.0  0.99351  0.63702  0.28777  1.0000
  C   C3546     1.0  0.83445  0.74345  0.23577  1.0000
  C   C3547     1.0  0.76750  0.62904  0.21904  1.0000
  C   C3548     1.0  0.71678  0.96808  0.33977  1.0000
  C   C3549     1.0  0.92853  0.49569  0.39518  1.0000
  H   H2823     1.0  0.74098  0.66010  0.24391  1.0000
  C   C3550     1.0  0.66602  0.97520  0.44648  1.0000
  H   H2824     1.0  0.99275  0.57060  0.40565  1.0000
  H   H2825     1.0  0.96305  0.70504  0.23714  1.0000
  H   H2826     1.0  0.89671  0.84457  0.23963  1.0000
  H   H2827     1.0  0.86004  0.71848  0.22375  1.0000
  C   C3551     1.0  0.67059  0.84853  0.33589  1.0000
  H   H2828     1.0  0.77868  0.59024  0.22225  1.0000
  C   C3552     1.0  0.67641  0.80978  0.29860  1.0000
  C   C3553     1.0  0.79379  0.82110  0.22689  1.0000
  C   C3554     1.0  0.79667  0.84578  0.22486  1.0000
  H   H2829     1.0  0.93329  0.82741  0.27945  1.0000
  P   P120      1.0  0.76863  0.78187  0.22580  1.0000
  H   H2830     1.0  0.97465  0.63434  0.29139  1.0000
  H   H2831     1.0  0.70714  0.96769  0.41692  1.0000
  H   H2832     1.0  0.97046  0.82835  0.29059  1.0000
  H   H2833     1.0  0.82754  0.49657  0.24467  1.0000
  C   C3555     1.0  0.79779  0.76194  0.22480  1.0000
  H   H2834     1.0  0.99490  0.69267  0.32571  1.0000
  H   H2835     1.0  0.98871  0.58868  0.44964  1.0000
  C   C3556     1.0  0.91079  0.78597  0.25447  1.0000
  C   C3557     1.0  0.67563  0.97660  0.43207  1.0000
  H   H2836     1.0  0.87896  0.57714  0.33250  1.0000
  H   H2837     1.0  0.86868  0.55188  0.45969  1.0000
  H   H2838     1.0  0.71702  0.94613  0.46108  1.0000
  H   H2839     1.0  0.95278  0.61387  0.46251  1.0000
  C   C3558     1.0  0.84281  0.73074  0.22398  1.0000
  H   H2840     1.0  0.81224  0.85149  0.22852  1.0000
  H   H2841     1.0  0.98955  0.54332  0.38527  1.0000
  C   C3559     1.0  0.88813  0.59468  0.46753  1.0000
  C   C3560     1.0  0.82676  0.51259  0.22279  1.0000
  Fe  Fe237     1.0  0.88233  0.71107  0.65754  1.0000
  S   S471      1.0  0.88171  0.67088  0.65747  1.0000
  S   S472      1.0  0.84462  0.73324  0.66219  1.0000
  Fe  Fe238     1.0  0.93830  0.70369  0.65578  1.0000
  S   S473      1.0  0.94083  0.66333  0.65610  1.0000
  Fe  Fe239     1.0  0.91338  0.67176  0.64014  1.0000
  S   S474      1.0  0.92109  0.64581  0.62286  1.0000
  Fe  Fe240     1.0  0.90889  0.66555  0.67331  1.0000
  S   S475      1.0  0.90545  0.63425  0.69112  1.0000
  S   S476      1.0  0.91207  0.71246  0.63893  1.0000
  S   S477      1.0  0.90829  0.70558  0.67436  1.0000
  Fe  Fe241     1.0  0.72539  0.89710  0.65652  1.0000
  S   S478      1.0  0.69148  0.87912  0.65775  1.0000
  S   S479      1.0  0.71685  0.93598  0.66304  1.0000
  Fe  Fe242     1.0  0.75746  0.85278  0.64484  1.0000
  S   S480      1.0  0.72586  0.83232  0.64488  1.0000
  S   S481      1.0  0.79645  0.83817  0.63639  1.0000
  Fe  Fe243     1.0  0.70609  0.86825  0.63588  1.0000
  H   H2842     1.0  0.94079  0.50093  0.51351  1.0000
  Fe  Fe244     1.0  0.71369  0.84471  0.66669  1.0000
  C   C3561     1.0  0.72428  0.74719  0.69184  1.0000
  S   S482      1.0  0.73863  0.88814  0.63419  1.0000
  S   S483      1.0  0.74668  0.86306  0.66717  1.0000
  Fe  Fe245     1.0  0.89169  0.56902  0.53806  1.0000
  S   S484      1.0  0.88491  0.60831  0.52839  1.0000
  S   S485      1.0  0.86442  0.54276  0.53903  1.0000
  Fe  Fe246     1.0  0.94383  0.57198  0.54230  1.0000
  S   S486      1.0  0.94128  0.61091  0.53257  1.0000
  C   C3562     1.0  0.67212  0.93870  0.62613  1.0000
  Fe  Fe247     1.0  0.90506  0.61574  0.54623  1.0000
  S   S487      1.0  0.89606  0.64896  0.55876  1.0000
  Fe  Fe248     1.0  0.92195  0.59968  0.51582  1.0000
  S   S488      1.0  0.93680  0.60941  0.49254  1.0000
  S   S489      1.0  0.90861  0.57698  0.55679  1.0000
  S   S490      1.0  0.92750  0.56025  0.52460  1.0000
  C   C3563     1.0  0.83148  0.92229  0.69321  1.0000
  C   C3564     1.0  0.97625  0.72509  0.60029  1.0000
  H   H2843     1.0  0.98159  0.50636  0.52649  1.0000
  C   C3565     1.0  0.67754  0.93857  0.70837  1.0000
  H   H2844     1.0  0.80551  0.65108  0.71196  1.0000
  C   C3566     1.0  0.98326  0.58383  0.59873  1.0000
  H   H2845     1.0  0.94729  0.67088  0.50966  1.0000
  C   C3567     1.0  0.82081  0.92652  0.65705  1.0000
  H   H2846     1.0  0.73105  0.76453  0.67030  1.0000
  C   C3568     1.0  0.88416  0.61704  0.71761  1.0000
  C   C3569     1.0  0.69352  0.94352  0.49931  1.0000
  H   H2847     1.0  0.95017  0.67318  0.57558  1.0000
  S   S491      1.0  0.70057  0.81560  0.68406  1.0000
  C   C3570     1.0  0.92242  0.60471  0.47783  1.0000
  H   H2848     1.0  0.90830  0.54425  0.46948  1.0000
  H   H2849     1.0  0.70454  0.88753  0.55491  1.0000
  C   C3571     1.0  0.84747  0.80709  0.67320  1.0000
  H   H2850     1.0  0.72797  0.91156  0.69069  1.0000
  C   C3572     1.0  0.78030  0.80170  0.71630  1.0000
  H   H2851     1.0  0.80926  0.59669  0.50237  1.0000
  H   H2852     1.0  0.96321  0.58742  0.58049  1.0000
  H   H2853     1.0  0.84594  0.76407  0.70556  1.0000
  C   C3573     1.0  0.69430  0.84539  0.58231  1.0000
  C   C3574     1.0  0.69591  0.85150  0.59606  1.0000
  H   H2854     1.0  0.82155  0.79772  0.69117  1.0000
  H   H2855     1.0  0.88813  0.59938  0.71373  1.0000
  H   H2856     1.0  0.70866  0.83264  0.57746  1.0000
  H   H2857     1.0  0.71133  0.84340  0.60173  1.0000
  C   C3575     1.0  0.68776  0.82078  0.70169  1.0000
  H   H2858     1.0  0.72685  0.77499  0.71272  1.0000
  C   C3576     1.0  0.67859  0.96141  0.71252  1.0000
  C   C3577     1.0  0.91402  0.64760  0.60500  1.0000
  C   C3578     1.0  0.90452  0.66943  0.59732  1.0000
  C   C3579     1.0  0.89902  0.66960  0.58321  1.0000
  C   C3580     1.0  0.90327  0.64807  0.57655  1.0000
  C   C3581     1.0  0.91317  0.62638  0.58417  1.0000
  C   C3582     1.0  0.91844  0.62617  0.59829  1.0000
  H   H2859     1.0  0.90150  0.68613  0.60222  1.0000
  H   H2860     1.0  0.89164  0.68654  0.57740  1.0000
  H   H2861     1.0  0.91659  0.60969  0.57923  1.0000
  H   H2862     1.0  0.92588  0.60921  0.60409  1.0000
  C   C3583     1.0  0.89041  0.63778  0.70855  1.0000
  C   C3584     1.0  0.69784  0.90293  0.56085  1.0000
  H   H2863     1.0  0.78814  0.98147  0.65506  1.0000
  C   C3585     1.0  0.99381  0.63106  0.58857  1.0000
  C   C3586     1.0  0.83198  0.76237  0.65456  1.0000
  C   C3587     1.0  0.84480  0.77625  0.64355  1.0000
  C   C3588     1.0  0.83384  0.79962  0.63815  1.0000
  C   C3589     1.0  0.80999  0.80911  0.64364  1.0000
  C   C3590     1.0  0.79724  0.79516  0.65463  1.0000
  C   C3591     1.0  0.80826  0.77196  0.66007  1.0000
  H   H2864     1.0  0.86311  0.76905  0.63924  1.0000
  H   H2865     1.0  0.84380  0.81033  0.62965  1.0000
  H   H2866     1.0  0.77892  0.80228  0.65896  1.0000
  H   H2867     1.0  0.79844  0.76142  0.66870  1.0000
  C   C3592     1.0  0.90284  0.51659  0.48745  1.0000
  C   C3593     1.0  0.75411  0.78582  0.60992  1.0000
  C   C3594     1.0  0.80760  0.92716  0.63371  1.0000
  C   C3595     1.0  0.73196  0.96229  0.66120  1.0000
  C   C3596     1.0  0.71787  0.98493  0.66348  1.0000
  H   H2868     1.0  0.76838  0.94400  0.65627  1.0000
  H   H2869     1.0  0.76681  0.77953  0.68725  1.0000
  C   C3597     1.0  0.67477  0.72203  0.70542  1.0000
  C   C3598     1.0  0.87979  0.51275  0.53924  1.0000
  H   H2870     1.0  0.76333  0.98817  0.69208  1.0000
  H   H2871     1.0  0.91138  0.52140  0.54716  1.0000
  C   C3599     1.0  0.82116  0.58080  0.49889  1.0000
  H   H2872     1.0  0.69024  0.96141  0.50289  1.0000
  C   C3600     1.0  0.75322  0.71173  0.69868  1.0000
  H   H2873     1.0  0.71058  0.92707  0.51800  1.0000
  C   C3601     1.0  0.75736  0.96123  0.65805  1.0000
  C   C3602     1.0  0.88530  0.66050  0.71371  1.0000
  H   H2874     1.0  0.96643  0.61152  0.64585  1.0000
  C   C3603     1.0  0.76616  0.71423  0.68498  1.0000
  H   H2875     1.0  0.96125  0.68578  0.62952  1.0000
  P   P121      1.0  0.67205  0.97037  0.58453  1.0000
  H   H2876     1.0  0.97567  0.60252  0.55076  1.0000
  C   C3604     1.0  0.81322  0.90356  0.66137  1.0000
  H   H2877     1.0  0.66906  0.91697  0.54774  1.0000
  C   C3605     1.0  0.80863  0.68691  0.71685  1.0000
  H   H2878     1.0  0.97208  0.62857  0.57162  1.0000
  C   C3606     1.0  0.68496  0.97827  0.62507  1.0000
  S   S492      1.0  0.97217  0.72314  0.65173  1.0000
  H   H2879     1.0  0.78263  0.70168  0.68238  1.0000
  C   C3607     1.0  0.68587  0.93969  0.48642  1.0000
  C   C3608     1.0  0.90321  0.50740  0.54353  1.0000
  C   C3609     1.0  0.76683  0.90143  0.68553  1.0000
  H   H2880     1.0  0.84665  0.72447  0.69721  1.0000
  H   H2881     1.0  0.94073  0.53287  0.57573  1.0000
  C   C3610     1.0  0.67752  0.86813  0.60240  1.0000
  C   C3611     1.0  0.74755  0.98413  0.59480  1.0000
  C   C3612     1.0  0.70937  0.90058  0.50376  1.0000
  C   C3613     1.0  0.69053  0.91611  0.48220  1.0000
  C   C3614     1.0  0.70849  0.90547  0.57294  1.0000
  C   C3615     1.0  0.81408  0.66737  0.70867  1.0000
  H   H2882     1.0  0.82708  0.50364  0.50269  1.0000
  C   C3616     1.0  0.75892  0.76932  0.59974  1.0000
  C   C3617     1.0  0.77172  0.78693  0.61887  1.0000
  C   C3618     1.0  0.79412  0.77161  0.61763  1.0000
  C   C3619     1.0  0.79929  0.75519  0.60733  1.0000
  C   C3620     1.0  0.78140  0.75401  0.59845  1.0000
  P   P122      1.0  0.82871  0.73602  0.60566  1.0000
  C   C3621     1.0  0.85275  0.75403  0.60619  1.0000
  C   C3622     1.0  0.83002  0.71119  0.62005  1.0000
  C   C3623     1.0  0.84499  0.68895  0.61796  1.0000
  C   C3624     1.0  0.84578  0.66951  0.62890  1.0000
  C   C3625     1.0  0.83170  0.67212  0.64207  1.0000
  C   C3626     1.0  0.81733  0.69437  0.64442  1.0000
  C   C3627     1.0  0.81648  0.71386  0.63348  1.0000
  C   C3628     1.0  0.87559  0.74270  0.61016  1.0000
  C   C3629     1.0  0.89455  0.75648  0.60997  1.0000
  C   C3630     1.0  0.89079  0.78165  0.60599  1.0000
  C   C3631     1.0  0.86819  0.79304  0.60191  1.0000
  C   C3632     1.0  0.84931  0.77928  0.60187  1.0000
  C   C3633     1.0  0.83403  0.72332  0.58880  1.0000
  C   C3634     1.0  0.84936  0.73330  0.57723  1.0000
  C   C3635     1.0  0.85490  0.72216  0.56464  1.0000
  C   C3636     1.0  0.84526  0.70099  0.56353  1.0000
  C   C3637     1.0  0.82955  0.69128  0.57485  1.0000
  C   C3638     1.0  0.82375  0.70251  0.58738  1.0000
  H   H2883     1.0  0.74525  0.76853  0.59279  1.0000
  H   H2884     1.0  0.80757  0.77276  0.62463  1.0000
  H   H2885     1.0  0.78476  0.74151  0.59044  1.0000
  H   H2886     1.0  0.85619  0.68653  0.60789  1.0000
  H   H2887     1.0  0.85774  0.65257  0.62723  1.0000
  H   H2888     1.0  0.83265  0.65716  0.65062  1.0000
  H   H2889     1.0  0.80740  0.69677  0.65486  1.0000
  H   H2890     1.0  0.80558  0.73097  0.63570  1.0000
  H   H2891     1.0  0.87884  0.72323  0.61336  1.0000
  H   H2892     1.0  0.91218  0.74763  0.61297  1.0000
  H   H2893     1.0  0.90541  0.79231  0.60605  1.0000
  H   H2894     1.0  0.86523  0.81257  0.59882  1.0000
  H   H2895     1.0  0.83209  0.78845  0.59843  1.0000
  H   H2896     1.0  0.85747  0.74937  0.57795  1.0000
  H   H2897     1.0  0.86719  0.72953  0.55587  1.0000
  H   H2898     1.0  0.85034  0.69179  0.55399  1.0000
  H   H2899     1.0  0.82237  0.67469  0.57399  1.0000
  H   H2900     1.0  0.81180  0.69453  0.59613  1.0000
  H   H2901     1.0  0.70506  0.87842  0.48769  1.0000
  H   H2902     1.0  0.97618  0.74442  0.59698  1.0000
  C   C3639     1.0  0.87995  0.89967  0.69356  1.0000
  C   C3640     1.0  0.70212  0.89665  0.49086  1.0000
  H   H2903     1.0  0.94645  0.55374  0.47631  1.0000
  H   H2904     1.0  0.80527  0.93626  0.62306  1.0000
  C   C3641     1.0  0.84697  0.85025  0.66545  1.0000
  C   C3642     1.0  0.93741  0.53934  0.48264  1.0000
  C   C3643     1.0  0.74508  0.89461  0.70928  1.0000
  C   C3644     1.0  0.73209  0.72817  0.70222  1.0000
  C   C3645     1.0  0.83077  0.54866  0.48347  1.0000
  C   C3646     1.0  0.96219  0.67691  0.56581  1.0000
  C   C3647     1.0  0.84257  0.68928  0.69245  1.0000
  C   C3648     1.0  0.83126  0.66846  0.69654  1.0000
  C   C3649     1.0  0.97948  0.61958  0.58122  1.0000
  H   H2905     1.0  0.97709  0.64752  0.52550  1.0000
  P   P123      1.0  0.66884  0.96421  0.47574  1.0000
  C   C3650     1.0  0.83733  0.70876  0.70065  1.0000
  H   H2906     1.0  0.82884  0.93551  0.66423  1.0000
  H   H2907     1.0  0.95537  0.66976  0.48344  1.0000
  H   H2908     1.0  0.85596  0.69010  0.68310  1.0000
  H   H2909     1.0  0.83622  0.65304  0.69043  1.0000
  H   H2910     1.0  0.85404  0.86463  0.65798  1.0000
  H   H2911     1.0  0.89875  0.89090  0.69370  1.0000
  C   C3651     1.0  0.87226  0.92138  0.69964  1.0000
  H   H2912     1.0  0.68465  0.91266  0.47234  1.0000
  C   C3652     1.0  0.96720  0.68975  0.54035  1.0000
  C   C3653     1.0  0.73720  0.74962  0.67816  1.0000
  H   H2913     1.0  0.70823  0.92689  0.58998  1.0000
  H   H2914     1.0  0.84661  0.58042  0.51414  1.0000
  C   C3654     1.0  0.96759  0.71697  0.61433  1.0000
  C   C3655     1.0  0.67996  0.94240  0.57645  1.0000
  C   C3656     1.0  0.91231  0.50451  0.49992  1.0000
  H   H2915     1.0  0.88509  0.92946  0.70449  1.0000
  H   H2916     1.0  0.76823  0.73514  0.66414  1.0000
  H   H2917     1.0  0.76814  0.79982  0.62671  1.0000
  C   C3657     1.0  0.74481  0.95471  0.62110  1.0000
  C   C3658     1.0  0.75812  0.73312  0.67472  1.0000
  H   H2918     1.0  0.73677  0.79781  0.61085  1.0000
  C   C3659     1.0  0.91566  0.53396  0.47881  1.0000
  H   H2919     1.0  0.88917  0.59527  0.49017  1.0000
  H   H2920     1.0  0.74292  0.95212  0.58575  1.0000
  C   C3660     1.0  0.96845  0.65977  0.49034  1.0000
  C   C3661     1.0  0.77430  0.77972  0.69717  1.0000
  C   C3662     1.0  0.81801  0.93822  0.64325  1.0000
  C   C3663     1.0  0.67442  0.85590  0.57473  1.0000
  H   H2921     1.0  0.71592  0.96563  0.56307  1.0000
  C   C3664     1.0  0.69960  0.92511  0.58073  1.0000
  C   C3665     1.0  0.82849  0.85587  0.67662  1.0000
  H   H2922     1.0  0.85465  0.78826  0.67181  1.0000
  S   S493      1.0  0.97847  0.55073  0.54985  1.0000
  P   P124      1.0  0.87240  0.51340  0.48404  1.0000
  C   C3666     1.0  0.80287  0.89259  0.65170  1.0000
  C   C3667     1.0  0.97440  0.59601  0.58623  1.0000
  C   C3668     1.0  0.74501  0.90338  0.69480  1.0000
  C   C3669     1.0  0.76848  0.98249  0.65738  1.0000
  C   C3670     1.0  0.85641  0.82597  0.66378  1.0000
  C   C3671     1.0  0.89902  0.59782  0.47958  1.0000
  C   C3672     1.0  0.83908  0.90051  0.68702  1.0000
  H   H2923     1.0  0.74307  0.94352  0.63136  1.0000
  P   P125      1.0  0.81740  0.88752  0.67892  1.0000
  S   S494      1.0  0.67378  0.84874  0.55710  1.0000
  H   H2924     1.0  0.86987  0.87241  0.68266  1.0000
  C   C3673     1.0  0.80014  0.90429  0.63792  1.0000
  H   H2925     1.0  0.99587  0.61633  0.68465  1.0000
  H   H2926     1.0  0.99256  0.71472  0.57983  1.0000
  C   C3674     1.0  0.74309  0.94495  0.60858  1.0000
  H   H2927     1.0  0.95927  0.69589  0.53045  1.0000
  C   C3675     1.0  0.98189  0.61321  0.65131  1.0000
  H   H2928     1.0  0.76618  0.90829  0.67436  1.0000
  H   H2929     1.0  0.66799  0.92170  0.63225  1.0000
  H   H2930     1.0  0.75941  0.81729  0.69884  1.0000
  C   C3676     1.0  0.95200  0.68501  0.55306  1.0000
  H   H2931     1.0  0.68616  0.96853  0.53265  1.0000
  C   C3677     1.0  0.78893  0.89046  0.69068  1.0000
  C   C3678     1.0  0.78895  0.88236  0.70534  1.0000
  H   H2932     1.0  0.96093  0.72993  0.62197  1.0000
  C   C3679     1.0  0.93844  0.51392  0.57901  1.0000
  H   H2933     1.0  0.80467  0.84027  0.69434  1.0000
  H   H2934     1.0  0.72335  0.89193  0.57639  1.0000
  H   H2935     1.0  0.79713  0.87479  0.65476  1.0000
  C   C3680     1.0  0.71183  0.98431  0.56538  1.0000
  C   C3681     1.0  0.97651  0.67513  0.60895  1.0000
  C   C3682     1.0  0.86909  0.49418  0.53497  1.0000
  C   C3683     1.0  0.77029  0.80115  0.70365  1.0000
  C   C3684     1.0  0.81932  0.83673  0.68590  1.0000
  H   H2936     1.0  0.89019  0.67656  0.70689  1.0000
  H   H2937     1.0  0.79244  0.89540  0.63050  1.0000
  C   C3685     1.0  0.82883  0.81246  0.68417  1.0000
  C   C3686     1.0  0.66997  0.93698  0.69515  1.0000
  C   C3687     1.0  0.94672  0.52721  0.49502  1.0000
  C   C3688     1.0  0.98935  0.64541  0.48450  1.0000
  C   C3689     1.0  0.74800  0.97915  0.62048  1.0000
  C   C3690     1.0  0.70519  0.92403  0.50794  1.0000
  H   H2938     1.0  0.69860  0.85629  0.70066  1.0000
  C   C3691     1.0  0.96777  0.69204  0.61862  1.0000
  H   H2939     1.0  0.80589  0.87437  0.70961  1.0000
  C   C3692     1.0  0.98540  0.70822  0.59061  1.0000
  H   H2940     1.0  0.79107  0.74238  0.69810  1.0000
  H   H2941     1.0  0.93228  0.68722  0.55303  1.0000
  H   H2942     1.0  0.75978  0.69692  0.70640  1.0000
  C   C3693     1.0  0.74452  0.95964  0.59543  1.0000
  C   C3694     1.0  0.84803  0.93268  0.69947  1.0000
  C   C3695     1.0  0.84226  0.57177  0.50545  1.0000
  C   C3696     1.0  0.76708  0.88425  0.71458  1.0000
  C   C3697     1.0  0.79743  0.75884  0.71632  1.0000
  H   H2943     1.0  0.81277  0.93136  0.69309  1.0000
  H   H2944     1.0  0.97866  0.56588  0.60283  1.0000
  C   C3698     1.0  0.78786  0.75864  0.70343  1.0000
  C   C3699     1.0  0.66694  0.97500  0.53197  1.0000
  C   C3700     1.0  0.68977  0.84212  0.70731  1.0000
  H   H2945     1.0  0.74018  0.92612  0.60908  1.0000
  S   S495      1.0  0.67823  0.87680  0.61963  1.0000
  H   H2946     1.0  0.87039  0.82170  0.65502  1.0000
  H   H2947     1.0  0.82371  0.95599  0.64002  1.0000
  C   C3701     1.0  0.81536  0.56918  0.48794  1.0000
  H   H2948     1.0  0.96124  0.61057  0.67225  1.0000
  C   C3702     1.0  0.68310  0.98234  0.61039  1.0000
  C   C3703     1.0  0.85244  0.53995  0.48972  1.0000
  C   C3704     1.0  0.96392  0.66044  0.50512  1.0000
  H   H2949     1.0  0.84208  0.94955  0.70416  1.0000
  C   C3705     1.0  0.93425  0.50966  0.50360  1.0000
  H   H2950     1.0  0.70810  0.76019  0.69427  1.0000
  H   H2951     1.0  0.79891  0.57610  0.48291  1.0000
  H   H2952     1.0  0.68092  0.95322  0.64430  1.0000
  C   C3706     1.0  0.99263  0.68618  0.54037  1.0000
  C   C3707     1.0  0.98058  0.64720  0.51404  1.0000
  H   H2953     1.0  0.96298  0.53217  0.49827  1.0000
  H   H2954     1.0  0.97589  0.65602  0.61254  1.0000
  H   H2955     1.0  0.74869  0.98668  0.63030  1.0000
  H   H2956     1.0  0.91327  0.52147  0.59767  1.0000
  H   H2957     1.0  0.82584  0.53970  0.47510  1.0000
  H   H2958     1.0  0.87388  0.54462  0.50635  1.0000
  C   C3708     1.0  0.85779  0.55138  0.50095  1.0000
  C   C3709     1.0  0.92301  0.50745  0.59136  1.0000
  H   H2959     1.0  0.68290  0.92206  0.71529  1.0000
  C   C3710     1.0  0.67617  0.80254  0.71047  1.0000
  C   C3711     1.0  0.97893  0.61272  0.66618  1.0000
  C   C3712     1.0  0.85567  0.75642  0.71462  1.0000
  H   H2960     1.0  0.71792  0.88541  0.51060  1.0000
  C   C3713     1.0  0.98584  0.68310  0.59492  1.0000
  H   H2961     1.0  0.85090  0.49827  0.53166  1.0000
  H   H2962     1.0  0.68799  0.71500  0.69699  1.0000
  H   H2963     1.0  0.69823  0.98611  0.66578  1.0000
  H   H2964     1.0  0.72096  0.98015  0.69904  1.0000
  C   C3714     1.0  0.86345  0.88923  0.68727  1.0000
  C   C3715     1.0  0.67944  0.95645  0.63294  1.0000
  C   C3716     1.0  0.67163  0.98288  0.70356  1.0000
  C   C3717     1.0  0.67017  0.94276  0.61145  1.0000
  H   H2965     1.0  0.96136  0.50130  0.56069  1.0000
  C   C3718     1.0  0.99458  0.59492  0.54847  1.0000
  H   H2966     1.0  0.67433  0.78605  0.70621  1.0000
  C   C3719     1.0  0.82076  0.70752  0.71318  1.0000
  H   H2967     1.0  0.99192  0.59949  0.47360  1.0000
  H   H2968     1.0  0.79584  0.99212  0.61564  1.0000
  C   C3720     1.0  0.67560  0.96469  0.60343  1.0000
  C   C3721     1.0  0.66904  0.93943  0.56446  1.0000
  C   C3722     1.0  0.67780  0.91958  0.55680  1.0000
  H   H2969     1.0  0.99005  0.67977  0.67069  1.0000
  H   H2970     1.0  0.86980  0.58990  0.46899  1.0000
  H   H2971     1.0  0.66978  0.91928  0.69174  1.0000
  C   C3723     1.0  0.68244  0.72808  0.71779  1.0000
  H   H2972     1.0  0.99585  0.50967  0.48095  1.0000
  H   H2973     1.0  0.88729  0.77392  0.70618  1.0000
  H   H2974     1.0  0.99253  0.64524  0.47303  1.0000
  C   C3724     1.0  0.98772  0.67289  0.56590  1.0000
  C   C3725     1.0  0.95032  0.49603  0.57058  1.0000
  H   H2975     1.0  0.72809  0.89588  0.71639  1.0000
  H   H2976     1.0  0.99465  0.54254  0.58097  1.0000
  H   H2977     1.0  0.69090  0.99193  0.63035  1.0000
  C   C3726     1.0  0.69173  0.99191  0.57522  1.0000
  C   C3727     1.0  0.87918  0.76205  0.71491  1.0000
  H   H2978     1.0  0.99767  0.58366  0.50500  1.0000
  C   C3728     1.0  0.99805  0.59483  0.60590  1.0000
  C   C3729     1.0  0.99737  0.51120  0.91410  1.0000
  H   H2979     1.0  0.73045  0.96339  0.89093  1.0000
  Fe  Fe249     1.0  0.79558  0.61176  0.79249  1.0000
  S   S496      1.0  0.83168  0.62422  0.79340  1.0000
  S   S497      1.0  0.76310  0.63516  0.80378  1.0000
  Fe  Fe250     1.0  0.82073  0.56592  0.77854  1.0000
  S   S498      1.0  0.85819  0.57681  0.77804  1.0000
  S   S499      1.0  0.82170  0.53000  0.76916  1.0000
  Fe  Fe251     1.0  0.84562  0.58521  0.80059  1.0000
  S   S500      1.0  0.86831  0.56760  0.81859  1.0000
  Fe  Fe252     1.0  0.84077  0.61477  0.77080  1.0000
  S   S501      1.0  0.85564  0.64478  0.75487  1.0000
  S   S502      1.0  0.80890  0.57294  0.80128  1.0000
  S   S503      1.0  0.80398  0.60381  0.76958  1.0000
  C   C3730     1.0  0.91340  0.49390  0.91050  1.0000
  C   C3731     1.0  0.77989  0.49490  0.75117  1.0000
  C   C3732     1.0  0.87443  0.66235  0.72786  1.0000
  C   C3733     1.0  0.97665  0.62784  0.94566  1.0000
  H   H2980     1.0  0.77224  0.75191  0.74378  1.0000
  C   C3734     1.0  0.85422  0.51157  0.85257  1.0000
  C   C3735     1.0  0.71454  0.68822  0.84454  1.0000
  C   C3736     1.0  0.88220  0.73614  0.73735  1.0000
  Fe  Fe253     1.0  0.91152  0.59929  0.88843  1.0000
  S   S504      1.0  0.93446  0.56273  0.88713  1.0000
  S   S505      1.0  0.89182  0.61959  0.86980  1.0000
  Fe  Fe254     1.0  0.92293  0.60173  0.91910  1.0000
  S   S506      1.0  0.94705  0.56571  0.91966  1.0000
  S   S507      1.0  0.91744  0.62215  0.93869  1.0000
  Fe  Fe255     1.0  0.96186  0.57817  0.89723  1.0000
  H   H2981     1.0  0.78601  0.51304  0.79277  1.0000
  Fe  Fe256     1.0  0.91752  0.55376  0.90966  1.0000
  C   C3737     1.0  0.89452  0.51509  0.79809  1.0000
  S   S508      1.0  0.94022  0.61564  0.89717  1.0000
  S   S509      1.0  0.89221  0.58907  0.91037  1.0000
  C   C3738     1.0  0.91736  0.60527  0.95598  1.0000
  H   H2982     1.0  0.92010  0.50485  0.81366  1.0000
  C   C3739     1.0  0.72396  0.69479  0.72884  1.0000
  C   C3740     1.0  0.73940  0.64815  0.74252  1.0000
  H   H2983     1.0  0.88754  0.52634  0.96050  1.0000
  C   C3741     1.0  0.81086  0.69852  0.74901  1.0000
  C   C3742     1.0  0.79617  0.49735  0.78807  1.0000
  H   H2984     1.0  0.76869  0.66410  0.74847  1.0000
  H   H2985     1.0  0.71011  0.72577  0.75066  1.0000
  H   H2986     1.0  0.77555  0.55921  0.82797  1.0000
  H   H2987     1.0  0.77068  0.69594  0.77935  1.0000
  C   C3743     1.0  0.87504  0.58260  0.83254  1.0000
  C   C3744     1.0  0.88614  0.56858  0.84399  1.0000
  C   C3745     1.0  0.89144  0.57960  0.85545  1.0000
  C   C3746     1.0  0.88603  0.60489  0.85545  1.0000
  C   C3747     1.0  0.87552  0.61897  0.84381  1.0000
  C   C3748     1.0  0.86982  0.60791  0.83246  1.0000
  H   H2988     1.0  0.89059  0.54908  0.84403  1.0000
  H   H2989     1.0  0.89962  0.56854  0.86429  1.0000
  H   H2990     1.0  0.87193  0.63855  0.84352  1.0000
  H   H2991     1.0  0.86156  0.61897  0.82363  1.0000
  H   H2992     1.0  0.98201  0.54062  0.96320  1.0000
  C   C3749     1.0  0.71902  0.78497  0.74752  1.0000
  C   C3750     1.0  0.85289  0.50774  0.80619  1.0000
  H   H2993     1.0  0.80781  0.58057  0.87580  1.0000
  H   H2994     1.0  0.96543  0.64403  0.94122  1.0000
  C   C3751     1.0  0.68165  0.92681  0.96732  1.0000
  C   C3752     1.0  0.70525  0.69526  0.78496  1.0000
  C   C3753     1.0  0.71880  0.67799  0.77641  1.0000
  C   C3754     1.0  0.73715  0.66003  0.78182  1.0000
  C   C3755     1.0  0.74186  0.65882  0.79599  1.0000
  C   C3756     1.0  0.72850  0.67626  0.80452  1.0000
  C   C3757     1.0  0.71047  0.69454  0.79901  1.0000
  H   H2995     1.0  0.71469  0.67825  0.76560  1.0000
  H   H2996     1.0  0.74707  0.64662  0.77519  1.0000
  H   H2997     1.0  0.73195  0.67538  0.81550  1.0000
  H   H2998     1.0  0.70015  0.70759  0.80576  1.0000
  H   H2999     1.0  0.86687  0.53151  0.86733  1.0000
  C   C3758     1.0  0.87826  0.51229  0.95778  1.0000
  H   H3000     1.0  0.85607  0.53783  0.94406  1.0000
  H   H3001     1.0  0.99264  0.51605  0.92479  1.0000
  C   C3759     1.0  0.93827  0.50846  0.95701  1.0000
  C   C3760     1.0  0.84775  0.50126  0.94492  1.0000
  C   C3761     1.0  0.86835  0.64159  0.73696  1.0000
  C   C3762     1.0  0.87303  0.61893  0.73172  1.0000
  C   C3763     1.0  0.79397  0.78070  0.72255  1.0000
  H   H3002     1.0  0.86851  0.60281  0.73863  1.0000
  H   H3003     1.0  0.80733  0.67179  0.76751  1.0000
  C   C3764     1.0  0.73174  0.70411  0.83976  1.0000
  H   H3004     1.0  0.68179  0.81635  0.85264  1.0000
  C   C3765     1.0  0.77895  0.53947  0.82870  1.0000
  C   C3766     1.0  0.72333  0.98166  0.88653  1.0000
  C   C3767     1.0  0.71907  0.74762  0.73054  1.0000
  H   H3005     1.0  0.92339  0.51496  0.89047  1.0000
  C   C3768     1.0  0.98894  0.62857  0.95741  1.0000
  H   H3006     1.0  0.94987  0.49590  0.83697  1.0000
  H   H3007     1.0  0.93523  0.54000  0.83779  1.0000
  H   H3008     1.0  0.72581  0.72258  0.83516  1.0000
  C   C3769     1.0  0.66715  0.80531  0.72483  1.0000
  C   C3770     1.0  0.71845  0.65227  0.73543  1.0000
  C   C3771     1.0  0.98175  0.53328  0.85843  1.0000
  H   H3009     1.0  0.85154  0.71797  0.74574  1.0000
  C   C3772     1.0  0.85771  0.51628  0.86617  1.0000
  C   C3773     1.0  0.70789  0.98487  0.87580  1.0000
  H   H3010     1.0  0.96071  0.53235  0.94346  1.0000
  S   S510      1.0  0.68146  0.71641  0.77757  1.0000
  C   C3774     1.0  0.97849  0.49483  0.85033  1.0000
  C   C3775     1.0  0.97862  0.51118  0.90578  1.0000
  C   C3776     1.0  0.75977  0.52644  0.82805  1.0000
  C   C3777     1.0  0.77932  0.70302  0.76902  1.0000
  H   H3011     1.0  0.79369  0.50689  0.74788  1.0000
  C   C3778     1.0  0.80709  0.50160  0.83096  1.0000
  C   C3779     1.0  0.97819  0.60605  0.93981  1.0000
  C   C3780     1.0  0.96192  0.54459  0.85122  1.0000
  C   C3781     1.0  0.72418  0.77072  0.72420  1.0000
  H   H3012     1.0  0.95968  0.51566  0.91015  1.0000
  C   C3782     1.0  0.81544  0.50053  0.77718  1.0000
  H   H3013     1.0  0.72682  0.80742  0.72766  1.0000
  H   H3014     1.0  0.71773  0.79971  0.75401  1.0000
  C   C3783     1.0  0.71438  0.76190  0.75392  1.0000
  C   C3784     1.0  0.84909  0.50159  0.87832  1.0000
  C   C3785     1.0  0.75266  0.66726  0.74279  1.0000
  H   H3015     1.0  0.80172  0.78140  0.73232  1.0000
  C   C3786     1.0  0.95649  0.52363  0.95418  1.0000
  H   H3016     1.0  0.87105  0.67990  0.73182  1.0000
  H   H3017     1.0  0.70279  0.96918  0.87197  1.0000
  H   H3018     1.0  0.83411  0.50644  0.93754  1.0000
  H   H3019     1.0  0.79549  0.68540  0.72623  1.0000
  H   H3020     1.0  0.86018  0.52374  0.84332  1.0000
  H   H3021     1.0  0.96835  0.60554  0.93082  1.0000
  C   C3787     1.0  0.98427  0.50586  0.89173  1.0000
  H   H3022     1.0  0.75367  0.73591  0.76752  1.0000
  H   H3023     1.0  0.68980  0.91809  0.95796  1.0000
  C   C3788     1.0  0.78058  0.73470  0.74885  1.0000
  H   H3024     1.0  0.81743  0.53738  0.83026  1.0000
  C   C3789     1.0  0.88422  0.49621  0.82221  1.0000
  H   H3025     1.0  0.69451  0.67825  0.72314  1.0000
  H   H3026     1.0  0.75526  0.70516  0.73639  1.0000
  C   C3790     1.0  0.80257  0.52710  0.83004  1.0000
  H   H3027     1.0  0.69530  0.69437  0.84359  1.0000
  H   H3028     1.0  0.70983  0.75856  0.76540  1.0000
  H   H3029     1.0  0.86497  0.52328  0.78493  1.0000
  H   H3030     1.0  0.74521  0.63024  0.74797  1.0000
  C   C3791     1.0  0.95052  0.53112  0.84344  1.0000
  C   C3792     1.0  0.72421  0.78927  0.73267  1.0000
  C   C3793     1.0  0.72221  0.66429  0.85029  1.0000
  C   C3794     1.0  0.75664  0.69604  0.84068  1.0000
  C   C3795     1.0  0.76451  0.67196  0.84638  1.0000
  C   C3796     1.0  0.74710  0.65618  0.85127  1.0000
  P   P126      1.0  0.79680  0.66161  0.84715  1.0000
  C   C3797     1.0  0.80768  0.67298  0.86170  1.0000
  C   C3798     1.0  0.80221  0.62863  0.84953  1.0000
  C   C3799     1.0  0.80194  0.61577  0.86333  1.0000
  C   C3800     1.0  0.80732  0.59032  0.86515  1.0000
  C   C3801     1.0  0.81254  0.57749  0.85324  1.0000
  C   C3802     1.0  0.81205  0.59011  0.83952  1.0000
  C   C3803     1.0  0.80679  0.61552  0.83764  1.0000
  C   C3804     1.0  0.82948  0.66135  0.86700  1.0000
  C   C3805     1.0  0.83812  0.66992  0.87821  1.0000
  C   C3806     1.0  0.82508  0.69019  0.88427  1.0000
  C   C3807     1.0  0.80337  0.70192  0.87909  1.0000
  C   C3808     1.0  0.79468  0.69338  0.86785  1.0000
  C   C3809     1.0  0.81315  0.67214  0.83024  1.0000
  C   C3810     1.0  0.80238  0.67374  0.81755  1.0000
  C   C3811     1.0  0.81528  0.68084  0.80436  1.0000
  C   C3812     1.0  0.83909  0.68621  0.80370  1.0000
  C   C3813     1.0  0.84988  0.68486  0.81628  1.0000
  C   C3814     1.0  0.83694  0.67796  0.82951  1.0000
  H   H3031     1.0  0.70890  0.65189  0.85383  1.0000
  H   H3032     1.0  0.76979  0.70847  0.83678  1.0000
  H   H3033     1.0  0.75265  0.63750  0.85562  1.0000
  H   H3034     1.0  0.79799  0.62538  0.87270  1.0000
  H   H3035     1.0  0.81719  0.55783  0.85460  1.0000
  H   H3036     1.0  0.81649  0.58033  0.83026  1.0000
  H   H3037     1.0  0.80675  0.62476  0.82686  1.0000
  H   H3038     1.0  0.83984  0.64552  0.86254  1.0000
  H   H3039     1.0  0.85498  0.66070  0.88219  1.0000
  H   H3040     1.0  0.83182  0.69675  0.89299  1.0000
  H   H3041     1.0  0.79326  0.71763  0.88382  1.0000
  H   H3042     1.0  0.77783  0.70272  0.86407  1.0000
  H   H3043     1.0  0.78424  0.66888  0.81776  1.0000
  H   H3044     1.0  0.80704  0.68135  0.79463  1.0000
  H   H3045     1.0  0.84929  0.69103  0.79342  1.0000
  H   H3046     1.0  0.86845  0.68877  0.81577  1.0000
  H   H3047     1.0  0.84575  0.67686  0.83908  1.0000
  H   H3048     1.0  0.89264  0.72793  0.74605  1.0000
  H   H3049     1.0  0.91088  0.75583  0.72635  1.0000
  H   H3050     1.0  0.91445  0.57100  0.94894  1.0000
  C   C3815     1.0  0.96858  0.52821  0.96527  1.0000
  C   C3816     1.0  0.74493  0.69050  0.73602  1.0000
  C   C3817     1.0  0.99009  0.50827  0.85812  1.0000
  C   C3818     1.0  0.76973  0.72562  0.76229  1.0000
  H   H3051     1.0  0.68237  0.86141  0.72596  1.0000
  H   H3052     1.0  0.90770  0.52240  0.78982  1.0000
  H   H3053     1.0  0.82662  0.68756  0.74395  1.0000
  C   C3819     1.0  0.90148  0.50519  0.81150  1.0000
  C   C3820     1.0  0.91564  0.58033  0.95801  1.0000
  C   C3821     1.0  0.84524  0.74041  0.72565  1.0000
  S   S511      1.0  0.90418  0.51901  0.92003  1.0000
  C   C3822     1.0  0.79990  0.68947  0.76238  1.0000
  H   H3054     1.0  0.74159  0.53610  0.82676  1.0000
  C   C3823     1.0  0.87035  0.51594  0.79538  1.0000
  P   P127      1.0  0.81554  0.73198  0.72444  1.0000
  C   C3824     1.0  0.71461  0.74326  0.74549  1.0000
  C   C3825     1.0  0.85964  0.49811  0.81974  1.0000
  C   C3826     1.0  0.80142  0.72124  0.74209  1.0000
  H   H3055     1.0  0.95520  0.56379  0.85179  1.0000
  C   C3827     1.0  0.76145  0.50035  0.76224  1.0000
  H   H3056     1.0  0.99300  0.56822  0.94096  1.0000
  H   H3057     1.0  0.68523  0.96229  0.72260  1.0000
  C   C3828     1.0  0.66953  0.82646  0.73052  1.0000
  C   C3829     1.0  0.76410  0.50099  0.82904  1.0000
  C   C3830     1.0  0.89248  0.75184  0.72625  1.0000
  C   C3831     1.0  0.85869  0.73047  0.73709  1.0000
  C   C3832     1.0  0.99208  0.58495  0.94563  1.0000
  H   H3058     1.0  0.83419  0.50891  0.80389  1.0000
  H   H3059     1.0  0.99028  0.54397  0.86453  1.0000
  H   H3060     1.0  0.76107  0.51651  0.76744  1.0000
  C   C3833     1.0  0.68061  0.84494  0.72165  1.0000
  P   P128      1.0  0.71471  0.72476  0.71976  1.0000
  C   C3834     1.0  0.92283  0.49691  0.89607  1.0000
  H   H3061     1.0  0.77726  0.81836  0.72131  1.0000
  C   C3835     1.0  0.86008  0.51897  0.94862  1.0000
  C   C3836     1.0  0.95879  0.50626  0.84299  1.0000
  H   H3062     1.0  0.85198  0.50517  0.88885  1.0000
  H   H3063     1.0  0.99486  0.60464  0.90869  1.0000
  C   C3837     1.0  0.91849  0.61710  0.96797  1.0000
  H   H3064     1.0  0.96949  0.50648  0.88538  1.0000
  H   H3065     1.0  0.92882  0.50545  0.94829  1.0000
  C   C3838     1.0  0.71077  0.67547  0.72856  1.0000
  S   S512      1.0  0.66963  0.78706  0.78402  1.0000
  H   H3066     1.0  0.91964  0.63642  0.96654  1.0000
  H   H3067     1.0  0.70805  0.63747  0.73535  1.0000
  H   H3068     1.0  0.76715  0.87769  0.72584  1.0000
  H   H3069     1.0  0.66991  0.74100  0.73845  1.0000
  H   H3070     1.0  0.98744  0.64565  0.96183  1.0000
  H   H3071     1.0  0.66845  0.80338  0.83120  1.0000
  C   C3839     1.0  0.66744  0.94980  0.96573  1.0000
  H   H3072     1.0  0.66574  0.95884  0.95505  1.0000
  C   C3840     1.0  0.66529  0.82580  0.84844  1.0000
