data_image0
_chemical_formula_structural       HCHCHC2HCHC4HCSH3SFeCH2SHC3H3C5H3C3PHCH2C2H2FeC2HC2HCHC2SC4SC3HSC2SH4C2SCHCHC3FeH2C2FeC2FeHCHFeC2H3CH2CPH2CHCFeHSC3H3C2FeH2CSH3C2HFeCFeS2FeS2FeSFeS3HCHFeSFeS2FeS2FeCFeS2FeSFeS2FeS2FeSCS2C2HCH2C6H6C5HC4H3C3H2C3HCHC6H4C6H4CHC2PHCH2CH3C7PC16H16CSH3C2HCH2C2HC4H7C2H4CHSCH4C3H3C2H4CPCHCHC2HC4H2C5HCH2C4SHC3HCHCHC3HCH4PC8H3CH3C2HC2HCH4CH2CH2C4H3C2HCHCHC4HC6HC4HCH2C7H2CH2C2HCHCPHC3HC4H2CHC2S2CHCH2S2HC2HCH2SC2H2CH2C2H2CH2CHCHCH2C2HCHCHCS2CHCH2PHC2HC2S2HCFeCSHCSHCSHCHC2HC7SHC4HC3SHFeHC3H4C4HPCFeHPHC3HC3H2CH4CH2SCHCHCHCH3FeSFeS2FeS2FeSFeS3HFeSHFeS2FeS2FeSFeS3C4HC6H4C6H5CHC2HCH2C7HCH2C2FeH2C6H3SHC3PC4HC13H3C3H11C6PC3HCH2C7H7C2H7C3HC2PC8H2C8H3CH2CH3C3HCH8C2HCSHCHCH2C2HC2H2C3HCHCH2C2HCH5CHC3H2C2PCHS2H2C11HC2PCHCH2C2H7C6PHCHCHCHC5HC3H4C6H2CHC2HC4H2CS2H8C3H3CH3CHC5HCHCH5C3HC2H2CH3C2HCH2CH2CH2C2HC5HCHC4SH2C3H2CHSCFeC4H2C9H3CHSC3HPC2H4CHCHC2HC3HC2PC4H3CHC4HPC5H2CHPCSH5C2H3CHCH2FeCH2C4HC4HCFeS2H2FeSHFeS2FeSHFeSCFeSFeS3CHPCHC6H4CH2C3HCHCH2C6H4CHC4HCHSHCH2CH2CH2CH2CH2C2HCH2C2H2CH3CHC2HCHCHSC2HC3H3C2HFeHCHC6HCH3SHCHC2HC2H4PC6H4C3HC3HC2HCHPCHC2H3C3H3C2HCH3CH3CHC4HC7PC9HC7H13CH3CSC3HC8PC3FeHSC9SC2H3PHC3HC2H2C3H6C7H2SCFeSCFeSFeS2HCH2CHFeS2HCSH2C2H2C8H4C6H4CHCH5CHCHPCHC2HC10H7C2HFeH3C2H3CHC2HCHPH2C3H2CHC5H2C2HC3HCHC8PC8HCH9CHC3HC2H2CHC2H2C2HPCHC2H3CH2C5HCHCHSCHC3SH3CHSHC3HC2HCFeH4CHCSCHC3H3C4HC2HC4HCFeCH3CFeSFeS2FeS2FeCFeS3CHFeSH2FeS2FeS2FeSFeS3C2HCHC6H4C6H6C3H3CH3C6H4CHSC6H4C2HC5HCHCHCH3CFeC2HSCH2C2HCHC3H3C2H2CH2C5H5C3H3CH4CHCHC2PC12H3CH12CH2C2H3C3HCHC2HCH2C2SHCHCHC3PC2HC2SFeC2H2C4HC2H2CHCHC3H4CHC4HC2H2CHC3H6SHCHC2HC2H2C4H2C2HPHCH2C4HC3HCHC3H4C2SC2H3CHCH2CHSC2HCHCHC2HC4HSCPHC2H3CPHC3HCHC2HC8H2PHC2HC3H2C9SC4HCH2C2HCHCHC2HC2SHSHC2HCH3C2H2C2HPCHCH2CHCHCH3CH3C2SHPCH2CSC2HC4H2SHCHC2SH2CPCHC2SC6HCH2CHCHSHC3H2C3PCHC5H5Fe2C2HC2HCHC4FeHCHC2H2CHC2H2C4HSH2FeSC2HSH3CHCHPHSHSCHCPCHFeS2FeS2FeSFeS3FeHFeSFeS2FeHSH2FeHS3HFeC2SFeS2FeSFeS3C2HCHC6H3C2HCHC4HCH6C2H3C6H4C6H4SCHC3HCH2C4H4CH2PH5CH3CH2FeHCHC3HSHSC2SCHCH2CHCHCHCH2CH2CHC4H3CHPCHSHC5HSCH4CH2CHCHC3H2C8PC18H21C6PC14H11CH7SC2HCHCPC17H7SC2H4C2H3C3HC2H2FeCHC3H2CSHC2HC4HC2HC5H2CH3CH2C3HCHC3HC4HC3HC2HC3HCHFeHC2HSC3HCHFeCSHC2HC2HCH2C4HCFeCHCFeH2CHCH2CHSFeCH2CH2CHFeHSHC5HCHS2CHCH2CSCHCS2H2SCH4C3HC2HPFeH2CPSC2H7C3HCFeC2HC5HC2HC5H4CH2C6HCHC7H2CH2C5HPSCHCFeC2H3FeHC7FeH2S2H2CHC2H2C2HSCHSC3HSC2HC2HFeSHFeSCPHPHCHC2HCHC3FeC4SHC3H3C2HC3H2SCSH2CHC5H3C2FeHCHCH4CHCH3C2H2C3H2CHC2FeC2H5C4HCH2CHC4SHFeC2H2FeS2FeS2FeSFeS3HCH2SCFeSCFeS2FeS2FeSFeHS2FeSFeS2FeS2FeSCS2H4C6H4C4HC6H4CHC3HC3H3C6H4C6H4C4HCH2FeCSHC3HC3PC18HC2H9CH9C5H2CHCHC5H2C3HCHS2C2HC2H9CHC4FeCHSCH2CHCHC3H2C6PC18H21C4PC10HC7HC3H13CH2C2HC3H3C2SHCH2CHCHC2SCH2CH2C2HC3FeHCHFeCHSC2SC2HCHCH2C4HSC3HP2CH3PH2CHCH2C2H3CH5CHPHCH5C3HC3HC3FeCHC3HC2HCH7CHC3HC3HC3H2SH2PHC2HFeH2SFeSC3H2CHSFeCHCHC4H2CH2C8H2C3HSC2H2CSHSHC2H2FeCS3FeS2FeS2FeSFeS3FeSCFeS2FeS2FeSFeHS2FeCH2C3H2C6H3C7H4C2HCH2C7H5CH3C7H6C7PC3PC15HCHCH2C2H11C6PC3SC2HC6H4CHCH3C2HC2H7FeCH3C2H4C2H2C2HCHPC12H5CH6CHC3H2CHC2H3CH2C6PC3HCHC13H14CH3SCSC2H2C3HC2HPCPHC2H6C2HCH2CHC4HPS2C3HCHC2H4CHC3SC2H2C2HCHC2HC2H3C2HCHC2H4C3HC3HSC2HCSFeHSC2HC2HC3HCH2CHCPH2C2H2CH3C3H2C2H2C2HC2H3C4HC4HCH3C6H2CH2CH2C4H3CHC2HCH2C3H2C2HC2HC2HCH2SC4HCH2C2HCH2C2HC3H4C2H2C2HC2HCHCHSC3H3C5HCFeS2H2PC2FeS2FeSHFeSCFeSFeS3C6H4C6H5CHC3H2CH3C3HC2H4SPH2C2HC8H3C2HC7HC2H4CPHC4H3C5PC3HC2HCH2CHC3FeH2C2H4C3HCHC2H4C5HC2H6CSCHCHC4HC2HC2HC8HC2HCH7C2H5CHC2HCH2C2H2C2H2CHCHCHCHCH2CHC2HSHCH2C4HPHC3HCSFeSHCSCFeSFeSCHCHC2H2FeS2HFeS2C6H4C6H4FeC2FeHC2H2C2H2C5PC3HCH2C2H4CH2CSHPHCHCH2C4HSHCH2SC2HC5HCH4C4HSC2SHFeCHC2HCFeCHCH6CHCH4C2HC2HCH2CSHC6PC16H16CHCH2CHC6HCPCHC2HCHSH2C2SC4HC2H3C3H2CHC3HC2H3CHC2HCH2C2HCH2C2HCHCHSH3CFeSFeS2FeS2FeSFeS4HFeSCSFeS2FeS2FeSFeS3C3H2C3HC7H4C6H4CSHCH2C7H6C3H2C6H5CHC4HCH4CHCHCH2CHC3HC2FeC3H2C3HC2SHCH3PHC3H2CH3CHC6PC13H2CH4CH6C6PC16H16CHPSH2CH2SC2HCHSCHCH2CH2C6SH3CHCH2CH3C2H2FeH6C5HC2HCHCH2CHC2SH2CH3C6H2C4HCH7C2PSC3HC4HCHC4HC2HPC2HC3HC2HC9HSCH2CHFeHC2H2CH2C3H2CH4CHPH6CHC8HC6HCH4C2HC3H4C4HCH2C3H3C3HC3HCH2C2H4CHC3PH2CH2PCHC2H2C2HC3SHC2HCHCHC2HCHC2SC2H4C2HCFeSC2HSC3HC3HCHSH3C2HCH2C3HCHC3H2C2HPHSHFeCH3CFeC2H2C3SH3C4H2C3HC5HC2HC3HCH4SFeS2FeS2FeSFeS3FeSFeS2FeS2FeCFeS3HCFeSCFeS2FeCSFeSHS2HPHCHC6H4C3H3C6H4C6H4C6H4C6H2C6H2C3H2CH2C3H3SH4C3HC2SHC3HC3PC19H17CH2CH2CHPC18HFeCHCH8CH4CHC6H3CH9C2HPC2H5CHCHC3SHC2FeC2H5C3HCSC2HC3HCH5SCHFeH4C3FeC7PC16H2CH5C3H3SHC2PCHC2SHCHC3HCH2CH2CH4C2HC3H6SCH2C3PC2HCHC2HCH2C4HCHC2H2CH2CH3CHSHC2HFeH2CH2CFeSHC2H2SH2SCS2CH2C4H2C2HCSHCHCFeCHC2FeSCH3SH3C2HCH4CFeHC4H5CFe2HCPCHCSH2C7HCH2C2H2CHC2HC3HCSCS2C
_chemical_formula_sum              "H2304 C2880 S384 Fe192 P96"
_cell_length_a       72.1822
_cell_length_b       72.333
_cell_length_c       50.2342
_cell_angle_alpha    85.5018
_cell_angle_beta     85.2462
_cell_angle_gamma    87.2069

_space_group_name_H-M_alt    "P 1"
_space_group_IT_number       1

loop_
  _space_group_symop_operation_xyz
  'x, y, z'

loop_
  _atom_site_type_symbol
  _atom_site_label
  _atom_site_symmetry_multiplicity
  _atom_site_fract_x
  _atom_site_fract_y
  _atom_site_fract_z
  _atom_site_occupancy
  H   H1        1.0  0.39546  0.08908  0.43913  1.0000
  C   C1        1.0  0.31626  0.03233  0.42677  1.0000
  H   H2        1.0  0.40650  0.02502  0.36608  1.0000
  C   C2        1.0  0.18280  0.07178  0.11909  1.0000
  H   H3        1.0  0.13948  0.00446  0.04969  1.0000
  C   C3        1.0  0.37705  0.02855  0.36091  1.0000
  C   C4        1.0  0.39309  0.04355  0.42717  1.0000
  H   H4        1.0  0.34250  0.04304  0.43315  1.0000
  C   C5        1.0  0.36374  0.03333  0.34237  1.0000
  H   H5        1.0  0.41616  0.03079  0.31787  1.0000
  C   C6        1.0  0.40151  0.03129  0.32468  1.0000
  C   C7        1.0  0.47318  0.15341  0.48783  1.0000
  C   C8        1.0  0.13417  0.04730  0.02265  1.0000
  C   C9        1.0  0.16971  0.06028  0.11051  1.0000
  H   H6        1.0  0.23780  0.01761  0.04589  1.0000
  C   C10       1.0  0.13871  0.01001  0.06922  1.0000
  S   S1        1.0  0.40095  0.15885  0.46645  1.0000
  H   H7        1.0  0.19075  0.09993  0.12154  1.0000
  H   H8        1.0  0.39242  0.03827  0.28518  1.0000
  H   H9        1.0  0.30949  0.99928  0.38455  1.0000
  S   S2        1.0  0.10061  0.09331  0.03633  1.0000
  Fe  Fe1       1.0  0.18032  0.00882  0.00917  1.0000
  C   C11       1.0  0.15440  0.01764  0.07788  1.0000
  H   H10       1.0  0.14131  0.09381  0.08145  1.0000
  H   H11       1.0  0.47340  0.11425  0.45171  1.0000
  S   S3        1.0  0.08138  0.14724  0.04537  1.0000
  H   H12       1.0  0.13570  0.03072  0.13839  1.0000
  C   C12       1.0  0.19442  0.03005  0.09355  1.0000
  C   C13       1.0  0.35481  0.05591  0.48676  1.0000
  C   C14       1.0  0.37636  0.07843  0.41405  1.0000
  H   H13       1.0  0.34352  0.00187  0.37532  1.0000
  H   H14       1.0  0.23410  0.00227  0.09166  1.0000
  H   H15       1.0  0.49101  0.16146  0.45270  1.0000
  C   C15       1.0  0.34150  0.06799  0.47517  1.0000
  C   C16       1.0  0.34462  0.08715  0.47106  1.0000
  C   C17       1.0  0.36078  0.09452  0.47914  1.0000
  C   C18       1.0  0.48776  0.14086  0.39572  1.0000
  C   C19       1.0  0.21269  0.03480  0.05085  1.0000
  H   H16       1.0  0.32911  0.06255  0.46860  1.0000
  H   H17       1.0  0.33460  0.09629  0.46114  1.0000
  H   H18       1.0  0.48214  0.14992  0.37988  1.0000
  C   C20       1.0  0.39600  0.02794  0.35193  1.0000
  C   C21       1.0  0.01926  0.15539  0.00864  1.0000
  C   C22       1.0  0.17668  0.00667  0.15420  1.0000
  P   P1        1.0  0.17341  0.03534  0.11434  1.0000
  H   H19       1.0  0.36959  0.09191  0.40966  1.0000
  C   C23       1.0  0.15362  0.02475  0.10311  1.0000
  H   H20       1.0  0.43863  0.19019  0.43120  1.0000
  H   H21       1.0  0.14497  0.06000  0.08849  1.0000
  C   C24       1.0  0.12047  0.07872  0.02772  1.0000
  C   C25       1.0  0.48284  0.12054  0.43603  1.0000
  H   H22       1.0  0.10794  0.01761  0.12262  1.0000
  H   H23       1.0  0.30866  0.04044  0.44167  1.0000
  Fe  Fe2       1.0  0.38517  0.13595  0.48977  1.0000
  C   C26       1.0  0.22379  0.01270  0.08515  1.0000
  C   C27       1.0  0.36929  0.03665  0.31514  1.0000
  H   H24       1.0  0.00508  0.16631  0.07377  1.0000
  C   C28       1.0  0.13675  0.02472  0.11920  1.0000
  C   C29       1.0  0.15481  0.06839  0.09668  1.0000
  H   H25       1.0  0.20709  0.01009  0.12209  1.0000
  C   C30       1.0  0.15195  0.05431  0.01754  1.0000
  H   H26       1.0  0.39973  0.03024  0.43260  1.0000
  C   C31       1.0  0.33548  0.03387  0.42172  1.0000
  C   C32       1.0  0.18063  0.09110  0.11487  1.0000
  S   S4        1.0  0.30002  0.00989  0.48963  1.0000
  C   C33       1.0  0.47570  0.13238  0.41568  1.0000
  C   C34       1.0  0.16558  0.09904  0.10158  1.0000
  C   C35       1.0  0.17778  0.99908  0.18052  1.0000
  C   C36       1.0  0.34546  0.02328  0.40266  1.0000
  S   S5        1.0  0.11665  0.18887  0.04779  1.0000
  C   C37       1.0  0.22595  0.02141  0.05935  1.0000
  C   C38       1.0  0.33604  0.01059  0.38949  1.0000
  C   C39       1.0  0.15275  0.08769  0.09237  1.0000
  H   H27       1.0  0.35895  0.04030  0.30093  1.0000
  S   S6        1.0  0.17241  0.03977  0.01244  1.0000
  C   C40       1.0  0.30692  0.02000  0.41315  1.0000
  C   C41       1.0  0.37359  0.08257  0.49203  1.0000
  S   S7        1.0  0.45336  0.15233  0.46969  1.0000
  H   H28       1.0  0.35878  0.06412  0.39085  1.0000
  H   H29       1.0  0.16744  0.07926  0.01293  1.0000
  H   H30       1.0  0.10499  0.05378  0.03274  1.0000
  H   H31       1.0  0.29205  0.01854  0.41743  1.0000
  C   C42       1.0  0.17707  0.01072  0.20151  1.0000
  C   C43       1.0  0.17518  0.02601  0.14857  1.0000
  S   S8        1.0  0.36509  0.11835  0.47073  1.0000
  C   C44       1.0  0.31681  0.00910  0.39459  1.0000
  H   H32       1.0  0.18684  0.04945  0.06078  1.0000
  C   C45       1.0  0.49026  0.15818  0.47412  1.0000
  H   H33       1.0  0.17810  0.00483  0.22188  1.0000
  C   C46       1.0  0.19709  0.03921  0.06792  1.0000
  C   C47       1.0  0.17403  0.03760  0.16985  1.0000
  C   C48       1.0  0.39933  0.05941  0.43730  1.0000
  Fe  Fe3       1.0  0.33136  0.00950  0.48746  1.0000
  H   H34       1.0  0.16699  0.01813  0.06469  1.0000
  H   H35       1.0  0.03260  0.12973  0.02303  1.0000
  C   C49       1.0  0.12100  0.01733  0.11032  1.0000
  C   C50       1.0  0.17508  0.02995  0.19620  1.0000
  Fe  Fe4       1.0  0.09778  0.12440  0.02376  1.0000
  C   C51       1.0  0.39098  0.07683  0.43072  1.0000
  C   C52       1.0  0.20818  0.01705  0.10229  1.0000
  Fe  Fe5       1.0  0.10413  0.16592  0.02766  1.0000
  H   H36       1.0  0.46079  0.13515  0.41570  1.0000
  C   C53       1.0  0.38036  0.00348  0.41080  1.0000
  H   H37       1.0  0.21420  0.04147  0.03074  1.0000
  Fe  Fe6       1.0  0.42465  0.15037  0.49169  1.0000
  C   C54       1.0  0.01948  0.13698  0.01948  1.0000
  C   C55       1.0  0.37017  0.06264  0.40372  1.0000
  H   H38       1.0  0.13239  0.03259  0.02248  1.0000
  H   H39       1.0  0.19482  0.06579  0.12872  1.0000
  H   H40       1.0  0.17736  0.99746  0.13810  1.0000
  C   C56       1.0  0.15379  0.07362  0.01692  1.0000
  H   H41       1.0  0.16397  0.11400  0.09802  1.0000
  H   H42       1.0  0.41036  0.05820  0.45077  1.0000
  C   C57       1.0  0.37834  0.04504  0.41045  1.0000
  P   P2        1.0  0.37033  0.02495  0.39629  1.0000
  H   H43       1.0  0.17220  0.05248  0.16631  1.0000
  H   H44       1.0  0.34910  0.03486  0.34880  1.0000
  C   C58       1.0  0.13816  0.08578  0.02165  1.0000
  H   H45       1.0  0.17440  0.03897  0.21253  1.0000
  C   C59       1.0  0.11860  0.05940  0.02817  1.0000
  Fe  Fe7       1.0  0.06861  0.15465  0.00636  1.0000
  H   H46       1.0  0.37081  0.00946  0.45121  1.0000
  S   S9        1.0  0.35322  0.03137  0.48894  1.0000
  C   C60       1.0  0.12201  0.00990  0.08536  1.0000
  C   C61       1.0  0.38816  0.03555  0.30627  1.0000
  C   C62       1.0  0.02281  0.18838  0.05815  1.0000
  H   H47       1.0  0.38610  0.08801  0.49830  1.0000
  H   H48       1.0  0.03557  0.18004  0.06023  1.0000
  H   H49       1.0  0.13989  0.10057  0.02133  1.0000
  C   C63       1.0  0.00263  0.12792  0.02545  1.0000
  C   C64       1.0  0.00563  0.18066  0.06584  1.0000
  Fe  Fe8       1.0  0.39132  0.17727  0.49926  1.0000
  H   H50       1.0  0.47682  0.19329  0.42943  1.0000
  H   H51       1.0  0.02902  0.08611  0.01972  1.0000
  C   C65       1.0  0.37794  0.99948  0.43859  1.0000
  S   S10       1.0  0.12162  0.14248  0.00980  1.0000
  H   H52       1.0  0.00284  0.11360  0.03344  1.0000
  H   H53       1.0  0.10980  0.00432  0.07829  1.0000
  H   H54       1.0  0.40878  0.18067  0.41723  1.0000
  C   C66       1.0  0.37070  0.06336  0.49553  1.0000
  C   C67       1.0  0.00219  0.16480  0.00446  1.0000
  H   H55       1.0  0.02421  0.14414  0.93426  1.0000
  Fe  Fe9       1.0  0.09157  0.17965  0.77862  1.0000
  C   C68       1.0  0.00323  0.03080  0.89631  1.0000
  Fe  Fe10      1.0  0.26038  0.04225  0.77986  1.0000
  S   S11       1.0  0.25256  0.07273  0.77237  1.0000
  S   S12       1.0  0.26201  0.02978  0.82383  1.0000
  Fe  Fe11      1.0  0.26912  0.03778  0.71803  1.0000
  S   S13       1.0  0.26124  0.06779  0.70800  1.0000
  S   S14       1.0  0.28275  0.01803  0.68674  1.0000
  Fe  Fe12      1.0  0.27775  0.07400  0.74233  1.0000
  S   S15       1.0  0.29653  0.09908  0.73648  1.0000
  Fe  Fe13      1.0  0.23682  0.06416  0.73883  1.0000
  S   S16       1.0  0.20626  0.07168  0.73094  1.0000
  S   S17       1.0  0.28660  0.04417  0.75151  1.0000
  S   S18       1.0  0.24372  0.03347  0.74724  1.0000
  H   H56       1.0  0.46725  0.16913  0.63037  1.0000
  C   C69       1.0  0.28393  0.00499  0.59694  1.0000
  H   H57       1.0  0.22367  0.01692  0.82781  1.0000
  Fe  Fe14      1.0  0.39851  0.14610  0.54176  1.0000
  S   S19       1.0  0.39316  0.13647  0.58517  1.0000
  Fe  Fe15      1.0  0.44668  0.13461  0.75179  1.0000
  S   S20       1.0  0.44516  0.16520  0.74230  1.0000
  S   S21       1.0  0.47498  0.11953  0.75240  1.0000
  Fe  Fe16      1.0  0.40422  0.13117  0.74773  1.0000
  S   S22       1.0  0.39992  0.16197  0.73747  1.0000
  S   S23       1.0  0.38344  0.10775  0.75005  1.0000
  Fe  Fe17      1.0  0.42651  0.15948  0.71110  1.0000
  C   C70       1.0  0.42937  0.06648  0.56380  1.0000
  Fe  Fe18      1.0  0.41915  0.16538  0.76962  1.0000
  S   S24       1.0  0.42950  0.12865  0.71844  1.0000
  S   S25       1.0  0.42192  0.13477  0.78215  1.0000
  Fe  Fe19      1.0  0.10572  0.14950  0.97371  1.0000
  S   S26       1.0  0.12080  0.15009  0.93283  1.0000
  Fe  Fe20      1.0  0.07869  0.14934  0.74664  1.0000
  S   S27       1.0  0.06707  0.16145  0.78408  1.0000
  S   S28       1.0  0.05902  0.14613  0.71451  1.0000
  Fe  Fe21      1.0  0.11874  0.14646  0.76399  1.0000
  S   S29       1.0  0.10920  0.15928  0.80259  1.0000
  S   S30       1.0  0.15048  0.14037  0.76055  1.0000
  Fe  Fe22      1.0  0.08551  0.14028  0.80458  1.0000
  S   S31       1.0  0.07323  0.12600  0.84288  1.0000
  C   C71       1.0  0.14887  0.05102  0.91073  1.0000
  S   S32       1.0  0.09562  0.12624  0.76752  1.0000
  S   S33       1.0  0.10267  0.16864  0.73952  1.0000
  C   C72       1.0  0.03429  0.14608  0.71690  1.0000
  C   C73       1.0  0.02284  0.14856  0.74059  1.0000
  H   H58       1.0  0.19952  0.09602  0.91229  1.0000
  C   C74       1.0  0.02592  0.14342  0.69346  1.0000
  H   H59       1.0  0.02917  0.15077  0.75877  1.0000
  H   H60       1.0  0.03451  0.14152  0.67510  1.0000
  C   C75       1.0  0.10759  0.14199  0.90877  1.0000
  C   C76       1.0  0.11609  0.13922  0.88334  1.0000
  C   C77       1.0  0.10562  0.13373  0.86333  1.0000
  C   C78       1.0  0.08662  0.13096  0.86871  1.0000
  C   C79       1.0  0.07823  0.13288  0.89447  1.0000
  C   C80       1.0  0.08869  0.13858  0.91443  1.0000
  H   H61       1.0  0.03676  0.01965  0.93930  1.0000
  H   H62       1.0  0.11230  0.13145  0.84378  1.0000
  H   H63       1.0  0.06350  0.13088  0.89867  1.0000
  H   H64       1.0  0.08186  0.14126  0.93366  1.0000
  H   H65       1.0  0.26356  0.09283  0.66048  1.0000
  H   H66       1.0  0.44367  0.06442  0.55582  1.0000
  C   C81       1.0  0.15364  0.06356  0.88866  1.0000
  C   C82       1.0  0.00315  0.14812  0.74050  1.0000
  C   C83       1.0  0.17734  0.03277  0.90147  1.0000
  C   C84       1.0  0.40377  0.14823  0.60857  1.0000
  C   C85       1.0  0.41607  0.16236  0.60061  1.0000
  H   H67       1.0  0.08251  0.06798  0.94023  1.0000
  C   C86       1.0  0.42181  0.16498  0.64708  1.0000
  C   C87       1.0  0.40923  0.15116  0.65501  1.0000
  C   C88       1.0  0.40014  0.14291  0.63578  1.0000
  C   C89       1.0  0.16073  0.03574  0.91711  1.0000
  H   H68       1.0  0.33553  0.13691  0.60306  1.0000
  H   H69       1.0  0.40642  0.14686  0.67599  1.0000
  H   H70       1.0  0.39029  0.13237  0.64208  1.0000
  C   C90       1.0  0.18646  0.02208  0.79071  1.0000
  C   C91       1.0  0.28305  0.01395  0.65176  1.0000
  C   C92       1.0  0.18695  0.03006  0.76443  1.0000
  H   H71       1.0  0.03424  0.12764  0.82634  1.0000
  H   H72       1.0  0.17861  0.02902  0.80666  1.0000
  C   C93       1.0  0.26972  0.01677  0.60826  1.0000
  C   C94       1.0  0.26940  0.02143  0.63523  1.0000
  C   C95       1.0  0.00656  0.14307  0.69336  1.0000
  H   H73       1.0  0.32285  0.01800  0.57710  1.0000
  C   C96       1.0  0.01329  0.08580  0.95748  1.0000
  H   H74       1.0  0.25827  0.03037  0.64343  1.0000
  C   C97       1.0  0.32072  0.10117  0.74050  1.0000
  C   C98       1.0  0.33215  0.08609  0.74922  1.0000
  C   C99       1.0  0.35120  0.08845  0.75207  1.0000
  C   C100      1.0  0.35916  0.10589  0.74640  1.0000
  C   C101      1.0  0.34775  0.12096  0.73757  1.0000
  C   C102      1.0  0.32870  0.11858  0.73463  1.0000
  H   H75       1.0  0.32630  0.07262  0.75389  1.0000
  H   H76       1.0  0.35983  0.07667  0.75894  1.0000
  H   H77       1.0  0.35359  0.13443  0.73310  1.0000
  H   H78       1.0  0.32003  0.13036  0.72790  1.0000
  C   C103      1.0  0.16555  0.12082  0.75284  1.0000
  C   C104      1.0  0.15912  0.10463  0.74387  1.0000
  C   C105      1.0  0.17178  0.08986  0.73715  1.0000
  C   C106      1.0  0.19101  0.09089  0.73962  1.0000
  C   C107      1.0  0.19740  0.10691  0.74913  1.0000
  C   C108      1.0  0.18477  0.12177  0.75552  1.0000
  H   H79       1.0  0.14443  0.10365  0.74162  1.0000
  H   H80       1.0  0.16663  0.07757  0.72984  1.0000
  H   H81       1.0  0.21209  0.10794  0.75130  1.0000
  H   H82       1.0  0.18995  0.13419  0.76244  1.0000
  C   C109      1.0  0.12530  0.18592  0.86121  1.0000
  H   H83       1.0  0.05211  0.11136  0.94494  1.0000
  C   C110      1.0  0.22897  0.01431  0.84726  1.0000
  C   C111      1.0  0.24706  0.01929  0.85073  1.0000
  P   P3        1.0  0.36908  0.07552  0.59980  1.0000
  H   H84       1.0  0.18647  0.02092  0.90651  1.0000
  C   C112      1.0  0.01420  0.08198  0.98522  1.0000
  H   H85       1.0  0.31403  0.04786  0.52393  1.0000
  H   H86       1.0  0.17473  0.07032  0.85688  1.0000
  C   C113      1.0  0.02561  0.14778  0.85474  1.0000
  H   H87       1.0  0.28951  0.11334  0.55679  1.0000
  H   H88       1.0  0.08220  0.17850  0.87032  1.0000
  H   H89       1.0  0.42738  0.09523  0.54893  1.0000
  C   C114      1.0  0.47229  0.14925  0.51554  1.0000
  C   C115      1.0  0.31777  0.07189  0.54541  1.0000
  C   C116      1.0  0.30862  0.05615  0.54016  1.0000
  C   C117      1.0  0.29292  0.05070  0.55651  1.0000
  C   C118      1.0  0.28615  0.06114  0.57781  1.0000
  C   C119      1.0  0.29467  0.07753  0.58232  1.0000
  C   C120      1.0  0.31097  0.08238  0.56664  1.0000
  P   P4        1.0  0.28587  0.09153  0.60927  1.0000
  C   C121      1.0  0.29938  0.08465  0.63741  1.0000
  C   C122      1.0  0.28696  0.11610  0.59968  1.0000
  C   C123      1.0  0.28473  0.12888  0.61948  1.0000
  C   C124      1.0  0.28550  0.14793  0.61239  1.0000
  C   C125      1.0  0.29663  0.06742  0.65174  1.0000
  C   C126      1.0  0.30683  0.06208  0.67379  1.0000
  C   C127      1.0  0.31976  0.07385  0.68173  1.0000
  C   C128      1.0  0.32283  0.09086  0.66733  1.0000
  C   C129      1.0  0.31280  0.09619  0.64511  1.0000
  C   C130      1.0  0.26149  0.08833  0.61875  1.0000
  C   C131      1.0  0.24913  0.08566  0.59936  1.0000
  C   C132      1.0  0.23022  0.08343  0.60688  1.0000
  C   C133      1.0  0.22346  0.08426  0.63369  1.0000
  C   C134      1.0  0.25446  0.08983  0.64543  1.0000
  C   C135      1.0  0.29783  0.99789  0.61330  1.0000
  C   C136      1.0  0.04211  0.09941  0.98374  1.0000
  H   H90       1.0  0.28616  0.03817  0.55292  1.0000
  H   H91       1.0  0.27434  0.05630  0.59072  1.0000
  H   H92       1.0  0.31832  0.09436  0.57078  1.0000
  H   H93       1.0  0.28240  0.12411  0.64046  1.0000
  H   H94       1.0  0.28393  0.15767  0.62784  1.0000
  H   H95       1.0  0.28647  0.05817  0.64616  1.0000
  H   H96       1.0  0.30447  0.04895  0.68514  1.0000
  H   H97       1.0  0.32718  0.06991  0.69932  1.0000
  H   H98       1.0  0.33273  0.10001  0.67385  1.0000
  H   H99       1.0  0.31544  0.10940  0.63429  1.0000
  H   H100      1.0  0.25407  0.08530  0.57845  1.0000
  H   H101      1.0  0.22077  0.08106  0.59194  1.0000
  H   H102      1.0  0.20883  0.08247  0.63962  1.0000
  H   H103      1.0  0.35146  0.02457  0.54794  1.0000
  H   H104      1.0  0.36501  0.05308  0.69617  1.0000
  H   H105      1.0  0.10303  0.06577  0.89864  1.0000
  C   C137      1.0  0.35463  0.05701  0.59300  1.0000
  S   S34       1.0  0.41556  0.16967  0.52351  1.0000
  H   H106      1.0  0.11675  0.10921  0.96536  1.0000
  H   H107      1.0  0.48361  0.16639  0.72497  1.0000
  H   H108      1.0  0.13368  0.05700  0.79179  1.0000
  C   C138      1.0  0.34144  0.12630  0.59045  1.0000
  C   C139      1.0  0.37220  0.07681  0.63496  1.0000
  H   H109      1.0  0.14879  0.06078  0.83297  1.0000
  C   C140      1.0  0.09837  0.08862  0.95551  1.0000
  H   H110      1.0  0.37145  0.04951  0.55729  1.0000
  H   H111      1.0  0.37594  0.18974  0.62573  1.0000
  C   C141      1.0  0.27297  0.99689  0.77318  1.0000
  C   C142      1.0  0.19999  0.05341  0.94583  1.0000
  H   H112      1.0  0.36526  0.16383  0.65610  1.0000
  C   C143      1.0  0.45599  0.10867  0.66873  1.0000
  C   C144      1.0  0.44329  0.11038  0.64904  1.0000
  C   C145      1.0  0.44734  0.12124  0.62520  1.0000
  C   C146      1.0  0.99613  0.15709  0.82280  1.0000
  H   H113      1.0  0.26757  0.01959  0.87951  1.0000
  H   H114      1.0  0.23124  0.10749  0.92055  1.0000
  H   H115      1.0  0.47658  0.18820  0.53537  1.0000
  H   H116      1.0  0.23251  0.14110  0.92506  1.0000
  H   H117      1.0  0.16653  0.10075  0.90531  1.0000
  H   H118      1.0  0.10266  0.07210  0.78492  1.0000
  H   H119      1.0  0.13920  0.18136  0.89758  1.0000
  C   C147      1.0  0.21800  0.08122  0.84528  1.0000
  C   C148      1.0  0.28308  0.06430  0.88514  1.0000
  H   H120      1.0  0.45287  0.10027  0.68726  1.0000
  H   H121      1.0  0.43025  0.10342  0.65235  1.0000
  H   H122      1.0  0.43744  0.12260  0.61000  1.0000
  H   H123      1.0  0.23415  0.04727  0.89632  1.0000
  C   C149      1.0  0.29174  0.06536  0.85915  1.0000
  H   H124      1.0  0.30600  0.06020  0.85549  1.0000
  S   S35       1.0  0.40979  0.12572  0.51217  1.0000
  C   C150      1.0  0.28885  0.12275  0.57259  1.0000
  H   H125      1.0  0.31395  0.03683  0.61572  1.0000
  H   H126      1.0  0.23024  0.08846  0.67367  1.0000
  H   H127      1.0  0.33371  0.06212  0.62521  1.0000
  H   H128      1.0  0.13075  0.14151  0.87909  1.0000
  C   C151      1.0  0.07458  0.18127  0.91222  1.0000
  C   C152      1.0  0.28810  0.15439  0.58545  1.0000
  C   C153      1.0  0.23555  0.08761  0.65291  1.0000
  H   H129      1.0  0.00457  0.12563  0.96786  1.0000
  H   H130      1.0  0.99683  0.15655  0.61719  1.0000
  H   H131      1.0  0.01283  0.08283  0.88598  1.0000
  C   C154      1.0  0.47648  0.12948  0.64132  1.0000
  C   C155      1.0  0.25364  0.01579  0.87640  1.0000
  H   H132      1.0  0.20035  0.10625  0.84592  1.0000
  H   H133      1.0  0.41888  0.16658  0.57967  1.0000
  H   H134      1.0  0.36044  0.05032  0.64867  1.0000
  H   H135      1.0  0.19548  0.04310  0.86811  1.0000
  C   C156      1.0  0.28964  0.14181  0.56555  1.0000
  P   P5        1.0  0.01435  0.17334  0.89223  1.0000
  C   C157      1.0  0.15990  0.12916  0.83776  1.0000
  H   H136      1.0  0.00679  0.18628  0.77860  1.0000
  C   C158      1.0  0.18239  0.04531  0.87984  1.0000
  H   H137      1.0  0.15710  0.02621  0.93430  1.0000
  C   C159      1.0  0.29728  0.00221  0.64043  1.0000
  C   C160      1.0  0.01870  0.04426  0.93987  1.0000
  H   H138      1.0  0.38046  0.08024  0.71001  1.0000
  C   C161      1.0  0.10853  0.08612  0.84665  1.0000
  C   C162      1.0  0.17067  0.06073  0.87363  1.0000
  C   C163      1.0  0.09436  0.07668  0.93640  1.0000
  C   C164      1.0  0.42501  0.17084  0.61992  1.0000
  H   H139      1.0  0.39505  0.10017  0.56724  1.0000
  H   H140      1.0  0.08668  0.09087  0.81990  1.0000
  C   C165      1.0  0.10592  0.07563  0.91273  1.0000
  C   C166      1.0  0.12150  0.08672  0.90781  1.0000
  C   C167      1.0  0.48845  0.14949  0.52934  1.0000
  C   C168      1.0  0.36952  0.06392  0.68124  1.0000
  C   C169      1.0  0.37822  0.07922  0.68909  1.0000
  H   H141      1.0  0.42732  0.03852  0.58172  1.0000
  C   C170      1.0  0.38427  0.09312  0.66996  1.0000
  H   H142      1.0  0.19276  0.04570  0.96257  1.0000
  H   H143      1.0  0.39116  0.10487  0.67623  1.0000
  C   C171      1.0  0.00062  0.09207  0.88810  1.0000
  C   C172      1.0  0.36670  0.06257  0.65424  1.0000
  C   C173      1.0  0.03806  0.17561  0.90011  1.0000
  C   C174      1.0  0.11364  0.09986  0.95062  1.0000
  S   S36       1.0  0.43377  0.17459  0.67111  1.0000
  H   H144      1.0  0.13611  0.05292  0.92324  1.0000
  C   C175      1.0  0.12655  0.06490  0.80731  1.0000
  C   C176      1.0  0.10908  0.07339  0.80341  1.0000
  C   C177      1.0  0.12611  0.07772  0.85075  1.0000
  H   H145      1.0  0.33024  0.07580  0.53317  1.0000
  C   C178      1.0  0.13506  0.06705  0.83085  1.0000
  H   H146      1.0  0.03681  0.14350  0.86728  1.0000
  C   C179      1.0  0.07088  0.17883  0.88590  1.0000
  H   H147      1.0  0.23242  0.05482  0.83980  1.0000
  C   C180      1.0  0.00921  0.14601  0.93464  1.0000
  C   C181      1.0  0.99896  0.16806  0.62901  1.0000
  C   C182      1.0  0.42019  0.08381  0.55982  1.0000
  H   H148      1.0  0.05023  0.17454  0.85919  1.0000
  C   C183      1.0  0.40178  0.08657  0.57022  1.0000
  H   H149      1.0  0.38648  0.10256  0.62819  1.0000
  H   H150      1.0  0.29127  0.14684  0.54462  1.0000
  H   H151      1.0  0.45920  0.14563  0.52629  1.0000
  H   H152      1.0  0.28863  0.16916  0.57996  1.0000
  P   P6        1.0  0.13806  0.08294  0.87938  1.0000
  C   C184      1.0  0.40178  0.05466  0.58894  1.0000
  C   C185      1.0  0.17218  0.13493  0.85522  1.0000
  C   C186      1.0  0.39240  0.07197  0.58469  1.0000
  C   C187      1.0  0.05268  0.17624  0.87977  1.0000
  C   C188      1.0  0.38147  0.09183  0.64295  1.0000
  C   C189      1.0  0.10006  0.08393  0.82312  1.0000
  C   C190      1.0  0.12503  0.09909  0.92682  1.0000
  C   C191      1.0  0.47877  0.17328  0.61624  1.0000
  H   H153      1.0  0.10154  0.09484  0.86125  1.0000
  H   H154      1.0  0.13652  0.10819  0.92371  1.0000
  H   H155      1.0  0.39489  0.04337  0.60059  1.0000
  C   C192      1.0  0.00082  0.15923  0.91699  1.0000
  H   H156      1.0  0.13004  0.17268  0.85386  1.0000
  H   H157      1.0  0.25815  0.06991  0.91001  1.0000
  H   H158      1.0  0.00453  0.10377  0.84732  1.0000
  C   C193      1.0  0.01288  0.16232  0.86145  1.0000
  C   C194      1.0  0.00427  0.05458  0.92774  1.0000
  H   H159      1.0  0.24787  0.00469  0.91755  1.0000
  C   C195      1.0  0.24242  0.00740  0.89814  1.0000
  C   C196      1.0  0.00925  0.14308  0.81581  1.0000
  H   H160      1.0  0.18962  0.06937  0.78686  1.0000
  C   C197      1.0  0.15175  0.10304  0.86944  1.0000
  H   H161      1.0  0.34799  0.11725  0.52487  1.0000
  H   H162      1.0  0.36324  0.08879  0.54493  1.0000
  H   H163      1.0  0.25873  0.02223  0.59611  1.0000
  H   H164      1.0  0.23530  0.15135  0.83940  1.0000
  C   C198      1.0  0.21869  0.07323  0.90223  1.0000
  H   H165      1.0  0.28868  0.07390  0.81760  1.0000
  H   H166      1.0  0.15807  0.13708  0.81880  1.0000
  C   C199      1.0  0.42017  0.05190  0.57836  1.0000
  H   H167      1.0  0.99724  0.02560  0.87942  1.0000
  H   H168      1.0  0.35056  0.10863  0.62341  1.0000
  C   C200      1.0  0.35014  0.11025  0.60191  1.0000
  C   C201      1.0  0.33177  0.02877  0.58170  1.0000
  C   C202      1.0  0.35830  0.09667  0.58560  1.0000
  C   C203      1.0  0.19743  0.07264  0.80322  1.0000
  H   H169      1.0  0.18283  0.09896  0.80816  1.0000
  H   H170      1.0  0.19830  0.02798  0.72379  1.0000
  H   H171      1.0  0.02315  0.00779  0.90052  1.0000
  C   C204      1.0  0.33799  0.05369  0.60878  1.0000
  C   C205      1.0  0.17453  0.12466  0.87955  1.0000
  H   H172      1.0  0.14005  0.10949  0.83103  1.0000
  C   C206      1.0  0.99813  0.13528  0.95346  1.0000
  H   H173      1.0  0.23391  0.11782  0.83453  1.0000
  C   C207      1.0  0.19363  0.08931  0.81529  1.0000
  H   H174      1.0  0.18399  0.12920  0.89313  1.0000
  C   C208      1.0  0.23402  0.14178  0.85712  1.0000
  C   C209      1.0  0.16458  0.10861  0.88643  1.0000
  C   C210      1.0  0.34068  0.12882  0.56270  1.0000
  C   C211      1.0  0.22163  0.06452  0.83308  1.0000
  H   H175      1.0  0.21486  0.04763  0.80210  1.0000
  C   C212      1.0  0.34854  0.11525  0.54639  1.0000
  C   C213      1.0  0.23358  0.14842  0.88257  1.0000
  C   C214      1.0  0.35927  0.04660  0.57074  1.0000
  C   C215      1.0  0.34792  0.03247  0.56525  1.0000
  C   C216      1.0  0.20372  0.09349  0.83649  1.0000
  C   C217      1.0  0.35726  0.09922  0.55779  1.0000
  H   H176      1.0  0.33421  0.14137  0.55377  1.0000
  C   C218      1.0  0.23155  0.11695  0.90272  1.0000
  C   C219      1.0  0.47249  0.11823  0.66498  1.0000
  C   C220      1.0  0.23309  0.12276  0.85444  1.0000
  C   C221      1.0  0.32675  0.03944  0.60339  1.0000
  H   H177      1.0  0.02482  0.04914  0.95684  1.0000
  C   C222      1.0  0.14968  0.11334  0.84483  1.0000
  H   H178      1.0  0.25617  0.08540  0.82555  1.0000
  H   H179      1.0  0.17983  0.14738  0.84985  1.0000
  C   C223      1.0  0.21151  0.06030  0.81199  1.0000
  C   C224      1.0  0.25447  0.07782  0.86819  1.0000
  C   C225      1.0  0.01781  0.02076  0.90820  1.0000
  C   C226      1.0  0.01977  0.18731  0.64894  1.0000
  C   C227      1.0  0.02881  0.19135  0.80310  1.0000
  C   C228      1.0  0.02402  0.13851  0.83171  1.0000
  C   C229      1.0  0.23131  0.11026  0.87726  1.0000
  H   H180      1.0  0.48198  0.11697  0.68075  1.0000
  H   H181      1.0  0.08879  0.18276  0.91708  1.0000
  C   C230      1.0  0.99795  0.16669  0.84553  1.0000
  H   H182      1.0  0.06285  0.18297  0.95283  1.0000
  H   H183      1.0  0.03293  0.17682  0.80628  1.0000
  C   C231      1.0  0.19745  0.02139  0.74399  1.0000
  C   C232      1.0  0.28199  0.07308  0.83779  1.0000
  H   H184      1.0  0.23440  0.16315  0.88462  1.0000
  C   C233      1.0  0.46398  0.13059  0.62118  1.0000
  H   H185      1.0  0.47882  0.14946  0.78747  1.0000
  C   C234      1.0  0.22347  0.05443  0.90850  1.0000
  P   P7        1.0  0.23044  0.08570  0.87365  1.0000
  H   H186      1.0  0.46691  0.13878  0.60247  1.0000
  C   C235      1.0  0.23246  0.13599  0.90535  1.0000
  C   C236      1.0  0.20392  0.08178  0.91735  1.0000
  C   C237      1.0  0.19465  0.07191  0.93916  1.0000
  H   H187      1.0  0.21812  0.03017  0.93537  1.0000
  C   C238      1.0  0.06004  0.18121  0.93237  1.0000
  C   C239      1.0  0.26348  0.07942  0.84232  1.0000
  C   C240      1.0  0.26456  0.07068  0.88972  1.0000
  C   C241      1.0  0.99604  0.10401  0.86613  1.0000
  H   H188      1.0  0.18326  0.07848  0.95091  1.0000
  H   H189      1.0  0.29070  0.05841  0.90169  1.0000
  C   C242      1.0  0.47684  0.18964  0.59976  1.0000
  H   H190      1.0  0.30793  0.99624  0.65283  1.0000
  C   C243      1.0  0.21788  0.00561  0.86882  1.0000
  C   C244      1.0  0.04149  0.10313  0.95611  1.0000
  S   S37       1.0  0.09063  0.17432  0.99001  1.0000
  S   S38       1.0  0.08264  0.13046  0.98654  1.0000
  C   C245      1.0  0.21435  0.04467  0.93049  1.0000
  H   H191      1.0  0.08978  0.08913  0.97423  1.0000
  C   C246      1.0  0.49444  0.12945  0.76407  1.0000
  H   H192      1.0  0.29339  0.99568  0.73948  1.0000
  H   H193      1.0  0.47531  0.15621  0.68193  1.0000
  S   S39       1.0  0.37326  0.15530  0.52033  1.0000
  S   S40       1.0  0.41817  0.18867  0.79717  1.0000
  H   H194      1.0  0.24968  0.99730  0.80248  1.0000
  C   C247      1.0  0.02850  0.08885  0.99825  1.0000
  C   C248      1.0  0.01699  0.17292  0.63285  1.0000
  H   H195      1.0  0.00397  0.07362  0.99691  1.0000
  C   C249      1.0  0.36911  0.17644  0.66418  1.0000
  H   H196      1.0  0.02704  0.09937  0.92158  1.0000
  H   H197      1.0  0.00793  0.13558  0.79826  1.0000
  S   S41       1.0  0.28289  0.99879  0.56300  1.0000
  C   C250      1.0  0.19655  0.00545  0.79658  1.0000
  C   C251      1.0  0.02549  0.02746  0.93002  1.0000
  H   H198      1.0  0.17959  0.04322  0.75987  1.0000
  H   H199      1.0  0.36329  0.16603  0.70522  1.0000
  C   C252      1.0  0.02717  0.09631  0.94297  1.0000
  H   H200      1.0  0.05310  0.10473  0.99403  1.0000
  H   H201      1.0  0.02885  0.16515  0.62402  1.0000
  C   C253      1.0  0.36805  0.17765  0.69184  1.0000
  C   C254      1.0  0.99640  0.04759  0.90610  1.0000
  H   H202      1.0  0.48764  0.14608  0.55074  1.0000
  H   H203      1.0  0.38108  0.05415  0.50452  1.0000
  C   C255      1.0  0.22444  0.00206  0.89450  1.0000
  H   H204      1.0  0.03084  0.17844  0.94244  1.0000
  H   H205      1.0  0.47356  0.17270  0.85748  1.0000
  C   C256      1.0  0.04186  0.17846  0.92640  1.0000
  H   H206      1.0  0.28113  0.00549  0.78407  1.0000
  C   C257      1.0  0.46381  0.18526  0.82071  1.0000
  H   H207      1.0  0.43453  0.18171  0.61383  1.0000
  C   C258      1.0  0.37538  0.19133  0.64688  1.0000
  H   H208      1.0  0.00048  0.14093  0.67493  1.0000
  H   H209      1.0  0.45205  0.17640  0.82136  1.0000
  C   C259      1.0  0.47589  0.18323  0.84114  1.0000
  C   C260      1.0  0.20748  0.00472  0.74975  1.0000
  H   H210      1.0  0.20410  0.00148  0.86556  1.0000
  C   C261      1.0  0.48986  0.15624  0.68594  1.0000
  H   H211      1.0  0.19639  0.99996  0.81720  1.0000
  C   C262      1.0  0.13052  0.19088  0.88573  1.0000
  H   H212      1.0  0.00194  0.17912  0.99642  1.0000
  C   C263      1.0  0.49445  0.16228  0.71019  1.0000
  S   S42       1.0  0.03987  0.16715  0.99945  1.0000
  S   S43       1.0  0.21112  0.00331  0.99899  1.0000
  C   C264      1.0  0.20712  0.99659  0.77611  1.0000
  H   H213      1.0  0.21592  0.99847  0.73372  1.0000
  C   C265      1.0  0.49255  0.14393  0.78120  1.0000
  H   H214      1.0  0.03389  0.19034  0.65219  1.0000
  H   H215      1.0  0.05379  0.18998  0.74643  1.0000
  P   P8        1.0  0.99522  0.07617  0.94052  1.0000
  H   H216      1.0  0.11570  0.25585  0.05895  1.0000
  C   C266      1.0  0.45164  0.25064  0.44597  1.0000
  C   C267      1.0  0.48850  0.19774  0.38899  1.0000
  H   H217      1.0  0.38585  0.23623  0.42207  1.0000
  C   C268      1.0  0.47764  0.22559  0.36404  1.0000
  C   C269      1.0  0.00247  0.31669  0.02491  1.0000
  S   S44       1.0  0.45954  0.34040  0.48476  1.0000
  S   S45       1.0  0.40876  0.32086  0.48895  1.0000
  H   H218      1.0  0.47382  0.25850  0.41598  1.0000
  C   C270      1.0  0.02042  0.32247  0.01588  1.0000
  Fe  Fe23      1.0  0.08983  0.29803  0.02902  1.0000
  C   C271      1.0  0.44707  0.20773  0.49078  1.0000
  S   S46       1.0  0.07869  0.27039  0.04697  1.0000
  H   H219      1.0  0.38721  0.38634  0.48089  1.0000
  C   C272      1.0  0.01061  0.25541  0.05460  1.0000
  S   S47       1.0  0.12424  0.35581  0.05090  1.0000
  H   H220      1.0  0.43009  0.24780  0.47856  1.0000
  C   C273      1.0  0.47914  0.21162  0.47392  1.0000
  S   S48       1.0  0.07834  0.32546  0.04378  1.0000
  H   H221      1.0  0.41595  0.24661  0.43295  1.0000
  C   C274      1.0  0.11972  0.39012  0.02193  1.0000
  H   H222      1.0  0.04079  0.25338  0.05137  1.0000
  C   C275      1.0  0.41042  0.19499  0.42107  1.0000
  C   C276      1.0  0.34033  0.38975  0.49461  1.0000
  H   H223      1.0  0.15134  0.37946  0.06771  1.0000
  C   C277      1.0  0.10626  0.21166  0.04581  1.0000
  C   C278      1.0  0.11613  0.22648  0.05323  1.0000
  C   C279      1.0  0.10813  0.24467  0.05252  1.0000
  C   C280      1.0  0.09014  0.24825  0.04440  1.0000
  C   C281      1.0  0.08029  0.23343  0.03686  1.0000
  C   C282      1.0  0.08832  0.21525  0.03743  1.0000
  C   C283      1.0  0.41467  0.23209  0.43022  1.0000
  S   S49       1.0  0.11870  0.30853  0.01858  1.0000
  H   H224      1.0  0.04418  0.27484  0.08589  1.0000
  C   C284      1.0  0.02356  0.20669  0.04704  1.0000
  C   C285      1.0  0.43923  0.25719  0.46652  1.0000
  C   C286      1.0  0.46272  0.28190  0.43642  1.0000
  C   C287      1.0  0.38451  0.24441  0.49391  1.0000
  H   H225      1.0  0.38210  0.20334  0.41396  1.0000
  C   C288      1.0  0.39545  0.20782  0.41882  1.0000
  C   C289      1.0  0.12937  0.37942  0.04117  1.0000
  C   C290      1.0  0.46701  0.21979  0.41104  1.0000
  S   S50       1.0  0.38152  0.20714  0.48861  1.0000
  H   H226      1.0  0.08049  0.20398  0.03186  1.0000
  Fe  Fe24      1.0  0.07103  0.33218  0.00136  1.0000
  H   H227      1.0  0.48942  0.21650  0.45850  1.0000
  C   C291      1.0  0.46361  0.26312  0.43123  1.0000
  C   C292      1.0  0.37341  0.39260  0.48444  1.0000
  C   C293      1.0  0.43818  0.27600  0.47136  1.0000
  H   H228      1.0  0.12994  0.22382  0.05990  1.0000
  H   H229      1.0  0.45752  0.24309  0.38516  1.0000
  H   H230      1.0  0.43232  0.20935  0.48827  1.0000
  H   H231      1.0  0.23401  0.39213  0.40687  1.0000
  C   C294      1.0  0.48874  0.20921  0.36525  1.0000
  C   C295      1.0  0.42965  0.21912  0.43333  1.0000
  C   C296      1.0  0.02837  0.25937  0.06149  1.0000
  C   C297      1.0  0.00707  0.21726  0.04284  1.0000
  H   H232      1.0  0.03254  0.31555  0.02409  1.0000
  P   P9        1.0  0.00808  0.24073  0.02773  1.0000
  C   C298      1.0  0.03035  0.27149  0.08131  1.0000
  Fe  Fe25      1.0  0.10660  0.33672  0.02966  1.0000
  H   H233      1.0  0.20571  0.38909  0.43824  1.0000
  P   P10       1.0  0.45233  0.22621  0.44010  1.0000
  H   H234      1.0  0.47188  0.29153  0.42493  1.0000
  C   C299      1.0  0.39757  0.22635  0.42343  1.0000
  C   C300      1.0  0.42734  0.20049  0.42884  1.0000
  C   C301      1.0  0.47745  0.20283  0.41166  1.0000
  H   H235      1.0  0.00089  0.30534  0.04016  1.0000
  C   C302      1.0  0.44996  0.28836  0.45639  1.0000
  C   C303      1.0  0.48510  0.20230  0.49733  1.0000
  C   C304      1.0  0.46659  0.23072  0.38672  1.0000
  H   H236      1.0  0.42835  0.28096  0.48699  1.0000
  H   H237      1.0  0.47736  0.23420  0.34540  1.0000
  C   C305      1.0  0.01462  0.27943  0.09483  1.0000
  H   H238      1.0  0.37438  0.24646  0.47912  1.0000
  H   H239      1.0  0.03704  0.21242  0.04134  1.0000
  H   H240      1.0  0.03047  0.27223  0.00684  1.0000
  H   H241      1.0  0.44927  0.30292  0.46044  1.0000
  C   C306      1.0  0.46006  0.21406  0.47023  1.0000
  H   H242      1.0  0.06634  0.23597  0.03072  1.0000
  H   H243      1.0  0.01620  0.28904  0.10989  1.0000
  S   S51       1.0  0.36121  0.35673  0.49212  1.0000
  C   C307      1.0  0.14377  0.38758  0.05282  1.0000
  H   H244      1.0  0.10861  0.38410  0.01277  1.0000
  C   C308      1.0  0.35824  0.38132  0.49065  1.0000
  H   H245      1.0  0.38501  0.27365  0.50028  1.0000
  C   C309      1.0  0.02726  0.24298  0.00237  1.0000
  H   H246      1.0  0.49372  0.29883  0.50003  1.0000
  C   C310      1.0  0.99687  0.27497  0.08887  1.0000
  H   H247      1.0  0.32849  0.38115  0.49931  1.0000
  H   H248      1.0  0.30082  0.34302  0.53961  1.0000
  H   H249      1.0  0.46374  0.25871  0.74969  1.0000
  Fe  Fe26      1.0  0.40665  0.34340  0.55655  1.0000
  S   S52       1.0  0.40164  0.35901  0.59343  1.0000
  Fe  Fe27      1.0  0.43020  0.31977  0.72022  1.0000
  S   S53       1.0  0.42568  0.34337  0.74626  1.0000
  S   S54       1.0  0.44909  0.32118  0.68280  1.0000
  Fe  Fe28      1.0  0.40526  0.29459  0.75615  1.0000
  S   S55       1.0  0.39884  0.31601  0.78630  1.0000
  S   S56       1.0  0.39088  0.26832  0.75116  1.0000
  Fe  Fe29      1.0  0.39531  0.33650  0.75073  1.0000
  S   S57       1.0  0.37215  0.35804  0.74008  1.0000
  Fe  Fe30      1.0  0.42977  0.32119  0.77923  1.0000
  S   S58       1.0  0.44856  0.32547  0.81202  1.0000
  S   S59       1.0  0.39994  0.31470  0.72118  1.0000
  S   S60       1.0  0.43611  0.29788  0.75255  1.0000
  H   H250      1.0  0.41623  0.34518  0.68578  1.0000
  Fe  Fe31      1.0  0.10851  0.31708  0.97828  1.0000
  S   S61       1.0  0.12486  0.31340  0.93878  1.0000
  H   H251      1.0  0.46163  0.29781  0.52059  1.0000
  Fe  Fe32      1.0  0.10224  0.35195  0.76725  1.0000
  S   S62       1.0  0.10582  0.32317  0.78751  1.0000
  S   S63       1.0  0.12327  0.37526  0.76107  1.0000
  Fe  Fe33      1.0  0.05997  0.34671  0.76088  1.0000
  S   S64       1.0  0.06102  0.31753  0.77929  1.0000
  S   S65       1.0  0.03234  0.36235  0.75394  1.0000
  Fe  Fe34      1.0  0.07782  0.32880  0.80929  1.0000
  S   S66       1.0  0.06660  0.32306  0.85190  1.0000
  Fe  Fe35      1.0  0.08860  0.31426  0.75568  1.0000
  S   S67       1.0  0.09659  0.28865  0.73324  1.0000
  S   S68       1.0  0.07559  0.35817  0.79225  1.0000
  S   S69       1.0  0.08633  0.34279  0.73394  1.0000
  C   C311      1.0  0.00728  0.30095  0.95392  1.0000
  C   C312      1.0  0.01152  0.35065  0.75214  1.0000
  C   C313      1.0  0.01207  0.33287  0.74309  1.0000
  C   C314      1.0  0.14558  0.36964  0.83653  1.0000
  H   H252      1.0  0.02537  0.32591  0.73872  1.0000
  C   C315      1.0  0.08820  0.23058  0.77535  1.0000
  C   C316      1.0  0.09723  0.23260  0.74964  1.0000
  C   C317      1.0  0.09985  0.25048  0.73696  1.0000
  C   C318      1.0  0.09358  0.26641  0.74996  1.0000
  C   C319      1.0  0.08468  0.26435  0.77574  1.0000
  C   C320      1.0  0.08201  0.24651  0.78835  1.0000
  H   H253      1.0  0.10234  0.22045  0.73963  1.0000
  H   H254      1.0  0.10684  0.25198  0.71706  1.0000
  H   H255      1.0  0.07983  0.27651  0.78591  1.0000
  H   H256      1.0  0.07516  0.24503  0.80832  1.0000
  C   C321      1.0  0.10939  0.31756  0.91377  1.0000
  C   C322      1.0  0.09117  0.32394  0.92056  1.0000
  C   C323      1.0  0.07817  0.32567  0.90136  1.0000
  C   C324      1.0  0.08345  0.32157  0.87504  1.0000
  C   C325      1.0  0.10189  0.31599  0.86779  1.0000
  C   C326      1.0  0.11487  0.31386  0.88726  1.0000
  H   H257      1.0  0.08697  0.32748  0.94067  1.0000
  H   H258      1.0  0.06404  0.33029  0.90700  1.0000
  H   H259      1.0  0.10602  0.31293  0.84741  1.0000
  H   H260      1.0  0.12902  0.30908  0.88191  1.0000
  H   H261      1.0  0.44501  0.20282  0.70908  1.0000
  C   C327      1.0  0.14796  0.37491  0.76232  1.0000
  H   H262      1.0  0.33530  0.34110  0.53716  1.0000
  C   C328      1.0  0.35095  0.36544  0.75758  1.0000
  C   C329      1.0  0.34570  0.35890  0.78396  1.0000
  H   H263      1.0  0.00888  0.20345  0.85040  1.0000
  C   C330      1.0  0.33651  0.33434  0.57958  1.0000
  H   H264      1.0  0.35469  0.34890  0.79440  1.0000
  H   H265      1.0  0.40820  0.28877  0.60725  1.0000
  C   C331      1.0  0.39492  0.29555  0.61295  1.0000
  C   C332      1.0  0.40043  0.24653  0.76238  1.0000
  C   C333      1.0  0.39450  0.23066  0.75183  1.0000
  C   C334      1.0  0.40074  0.21291  0.76147  1.0000
  C   C335      1.0  0.41242  0.21089  0.78242  1.0000
  C   C336      1.0  0.41868  0.22678  0.79268  1.0000
  C   C337      1.0  0.41291  0.24462  0.78241  1.0000
  H   H266      1.0  0.38469  0.23212  0.73662  1.0000
  C   C338      1.0  0.48473  0.37982  0.55473  1.0000
  H   H267      1.0  0.42772  0.22526  0.80892  1.0000
  H   H268      1.0  0.41747  0.25681  0.79073  1.0000
  C   C339      1.0  0.47263  0.33014  0.80865  1.0000
  C   C340      1.0  0.05576  0.37681  0.86498  1.0000
  Fe  Fe36      1.0  0.43070  0.33686  0.50569  1.0000
  H   H269      1.0  0.47173  0.33629  0.84995  1.0000
  H   H270      1.0  0.30044  0.27598  0.71111  1.0000
  C   C341      1.0  0.43711  0.33345  0.65799  1.0000
  C   C342      1.0  0.44330  0.33216  0.63110  1.0000
  C   C343      1.0  0.43267  0.34051  0.61108  1.0000
  C   C344      1.0  0.41591  0.35011  0.61804  1.0000
  C   C345      1.0  0.41023  0.35222  0.64494  1.0000
  C   C346      1.0  0.42085  0.34387  0.66497  1.0000
  H   H271      1.0  0.45601  0.32429  0.62574  1.0000
  H   H272      1.0  0.43744  0.33950  0.59030  1.0000
  H   H273      1.0  0.39730  0.35974  0.65031  1.0000
  S   S70       1.0  0.42837  0.32152  0.54602  1.0000
  H   H274      1.0  0.04707  0.38140  0.82487  1.0000
  C   C347      1.0  0.32684  0.32024  0.76611  1.0000
  C   C348      1.0  0.31317  0.30996  0.78143  1.0000
  C   C349      1.0  0.31866  0.29405  0.79723  1.0000
  P   P11       1.0  0.28885  0.31732  0.78163  1.0000
  C   C350      1.0  0.28264  0.33206  0.80871  1.0000
  C   C351      1.0  0.28490  0.33013  0.75008  1.0000
  C   C352      1.0  0.28843  0.34910  0.74655  1.0000
  C   C353      1.0  0.00447  0.19705  0.66123  1.0000
  H   H275      1.0  0.44307  0.19431  0.53058  1.0000
  C   C354      1.0  0.27623  0.33134  0.70418  1.0000
  C   C355      1.0  0.27877  0.32130  0.72867  1.0000
  C   C356      1.0  0.26616  0.34324  0.80874  1.0000
  C   C357      1.0  0.26094  0.35418  0.83008  1.0000
  C   C358      1.0  0.27236  0.35445  0.85117  1.0000
  C   C359      1.0  0.28890  0.34358  0.85111  1.0000
  C   C360      1.0  0.29400  0.33234  0.83005  1.0000
  C   C361      1.0  0.27482  0.29705  0.78536  1.0000
  C   C362      1.0  0.28119  0.28083  0.77315  1.0000
  C   C363      1.0  0.27047  0.26509  0.77601  1.0000
  C   C364      1.0  0.25325  0.26544  0.79092  1.0000
  C   C365      1.0  0.24675  0.28152  0.80298  1.0000
  C   C366      1.0  0.25745  0.29727  0.80025  1.0000
  H   H276      1.0  0.32321  0.33300  0.75463  1.0000
  H   H277      1.0  0.30852  0.28628  0.81008  1.0000
  H   H278      1.0  0.29303  0.35623  0.76281  1.0000
  C   C367      1.0  0.31693  0.37850  0.78378  1.0000
  C   C368      1.0  0.46138  0.26793  0.52388  1.0000
  C   C369      1.0  0.33906  0.37847  0.74442  1.0000
  H   H279      1.0  0.27582  0.30674  0.73078  1.0000
  H   H280      1.0  0.25732  0.34354  0.79227  1.0000
  H   H281      1.0  0.24822  0.36274  0.82994  1.0000
  H   H282      1.0  0.26858  0.36337  0.86728  1.0000
  H   H283      1.0  0.29793  0.34411  0.86718  1.0000
  H   H284      1.0  0.30694  0.32415  0.83037  1.0000
  H   H285      1.0  0.29449  0.28032  0.76151  1.0000
  H   H286      1.0  0.27552  0.25258  0.76674  1.0000
  H   H287      1.0  0.24494  0.25324  0.79314  1.0000
  H   H288      1.0  0.23336  0.28180  0.81450  1.0000
  H   H289      1.0  0.25205  0.30950  0.80982  1.0000
  C   C370      1.0  0.11669  0.27776  0.82513  1.0000
  C   C371      1.0  0.13457  0.28322  0.82865  1.0000
  C   C372      1.0  0.14336  0.27655  0.85148  1.0000
  C   C373      1.0  0.13425  0.26447  0.87083  1.0000
  C   C374      1.0  0.11604  0.25944  0.86786  1.0000
  C   C375      1.0  0.10742  0.26596  0.84465  1.0000
  P   P12       1.0  0.10489  0.24259  0.89150  1.0000
  C   C376      1.0  0.08005  0.24650  0.89176  1.0000
  C   C377      1.0  0.11266  0.22016  0.88028  1.0000
  C   C378      1.0  0.10770  0.21514  0.85548  1.0000
  H   H290      1.0  0.15208  0.34521  0.76601  1.0000
  C   C379      1.0  0.00590  0.23772  0.66633  1.0000
  H   H291      1.0  0.39159  0.20442  0.59027  1.0000
  H   H292      1.0  0.47248  0.37708  0.51757  1.0000
  C   C380      1.0  0.07227  0.26432  0.89575  1.0000
  C   C381      1.0  0.05298  0.26727  0.89895  1.0000
  C   C382      1.0  0.04130  0.25253  0.89782  1.0000
  C   C383      1.0  0.04895  0.23477  0.89356  1.0000
  C   C384      1.0  0.06828  0.23174  0.89068  1.0000
  C   C385      1.0  0.10948  0.24540  0.92571  1.0000
  C   C386      1.0  0.11449  0.26262  0.93340  1.0000
  H   H293      1.0  0.47797  0.29431  0.67711  1.0000
  H   H294      1.0  0.11003  0.28264  0.80719  1.0000
  H   H295      1.0  0.14160  0.29253  0.81357  1.0000
  H   H296      1.0  0.15727  0.28068  0.85412  1.0000
  H   H297      1.0  0.14142  0.25905  0.88808  1.0000
  H   H298      1.0  0.09366  0.26176  0.84137  1.0000
  H   H299      1.0  0.09904  0.22440  0.84325  1.0000
  C   C387      1.0  0.17651  0.39228  0.76142  1.0000
  C   C388      1.0  0.15700  0.39186  0.76065  1.0000
  H   H300      1.0  0.08112  0.27589  0.89706  1.0000
  H   H301      1.0  0.04719  0.28101  0.90258  1.0000
  H   H302      1.0  0.02635  0.25487  0.90050  1.0000
  H   H303      1.0  0.03995  0.22327  0.89303  1.0000
  H   H304      1.0  0.07399  0.21785  0.88813  1.0000
  H   H305      1.0  0.11586  0.27454  0.91904  1.0000
  H   H306      1.0  0.02228  0.19490  0.73164  1.0000
  C   C389      1.0  0.35449  0.24320  0.57355  1.0000
  C   C390      1.0  0.35837  0.22882  0.55666  1.0000
  C   C391      1.0  0.00721  0.32950  0.83584  1.0000
  H   H307      1.0  0.47109  0.20012  0.73824  1.0000
  C   C392      1.0  0.37622  0.22878  0.60429  1.0000
  C   C393      1.0  0.36322  0.24311  0.59743  1.0000
  P   P13       1.0  0.38727  0.22796  0.63543  1.0000
  C   C394      1.0  0.38075  0.20764  0.65714  1.0000
  C   C395      1.0  0.41207  0.22855  0.62775  1.0000
  C   C396      1.0  0.42428  0.21936  0.64515  1.0000
  C   C397      1.0  0.44349  0.22120  0.64036  1.0000
  C   C398      1.0  0.45061  0.23243  0.61831  1.0000
  C   C399      1.0  0.43850  0.24166  0.60088  1.0000
  C   C400      1.0  0.41928  0.23984  0.60568  1.0000
  C   C401      1.0  0.01396  0.19670  0.78770  1.0000
  H   H308      1.0  0.46827  0.28192  0.81864  1.0000
  H   H309      1.0  0.46373  0.33463  0.54226  1.0000
  C   C402      1.0  0.32732  0.33846  0.55628  1.0000
  C   C403      1.0  0.11371  0.36128  0.84809  1.0000
  C   C404      1.0  0.38001  0.24774  0.65429  1.0000
  C   C405      1.0  0.36136  0.24985  0.66433  1.0000
  C   C406      1.0  0.35589  0.26369  0.68162  1.0000
  C   C407      1.0  0.36899  0.27545  0.68918  1.0000
  C   C408      1.0  0.38757  0.27344  0.67931  1.0000
  C   C409      1.0  0.39310  0.25969  0.66191  1.0000
  H   H310      1.0  0.34476  0.25445  0.56803  1.0000
  H   H311      1.0  0.40582  0.31161  0.64194  1.0000
  H   H312      1.0  0.45691  0.20006  0.78426  1.0000
  C   C410      1.0  0.15879  0.34160  0.94210  1.0000
  H   H313      1.0  0.35994  0.25437  0.61015  1.0000
  H   H314      1.0  0.41894  0.21093  0.66260  1.0000
  C   C411      1.0  0.46417  0.36598  0.69590  1.0000
  H   H315      1.0  0.46549  0.23397  0.61477  1.0000
  H   H316      1.0  0.44390  0.25046  0.58382  1.0000
  H   H317      1.0  0.41002  0.24753  0.59246  1.0000
  C   C412      1.0  0.45309  0.19904  0.51460  1.0000
  C   C413      1.0  0.47130  0.25141  0.51849  1.0000
  C   C414      1.0  0.41609  0.38674  0.77128  1.0000
  H   H318      1.0  0.19690  0.32314  0.92076  1.0000
  C   C415      1.0  0.48932  0.25193  0.50596  1.0000
  H   H319      1.0  0.35118  0.24037  0.65949  1.0000
  H   H320      1.0  0.34162  0.26485  0.68989  1.0000
  H   H321      1.0  0.36494  0.28575  0.70336  1.0000
  H   H322      1.0  0.39779  0.28223  0.68585  1.0000
  H   H323      1.0  0.40768  0.25819  0.65523  1.0000
  H   H324      1.0  0.34158  0.27550  0.80834  1.0000
  H   H325      1.0  0.08077  0.20219  0.71822  1.0000
  H   H326      1.0  0.16445  0.32855  0.93515  1.0000
  C   C416      1.0  0.14219  0.37123  0.93332  1.0000
  C   C417      1.0  0.20789  0.33238  0.92329  1.0000
  H   H327      1.0  0.15829  0.38400  0.86560  1.0000
  C   C418      1.0  0.99607  0.24081  0.64332  1.0000
  S   S71       1.0  0.38369  0.32680  0.54524  1.0000
  H   H328      1.0  0.48784  0.21055  0.68784  1.0000
  C   C419      1.0  0.32884  0.36547  0.79698  1.0000
  H   H329      1.0  0.10129  0.36903  0.88574  1.0000
  C   C420      1.0  0.03553  0.26016  0.99647  1.0000
  H   H330      1.0  0.07078  0.36893  0.95680  1.0000
  H   H331      1.0  0.37449  0.20358  0.54995  1.0000
  C   C421      1.0  0.18730  0.37571  0.76376  1.0000
  C   C422      1.0  0.32618  0.31026  0.65869  1.0000
  H   H332      1.0  0.46305  0.25199  0.80029  1.0000
  C   C423      1.0  0.23631  0.35612  0.92998  1.0000
  C   C424      1.0  0.15115  0.35499  0.92408  1.0000
  H   H333      1.0  0.37192  0.38284  0.80066  1.0000
  H   H334      1.0  0.41991  0.23701  0.54788  1.0000
  C   C425      1.0  0.49152  0.24811  0.78359  1.0000
  C   C426      1.0  0.43981  0.23207  0.71311  1.0000
  C   C427      1.0  0.44523  0.24774  0.72453  1.0000
  H   H335      1.0  0.35603  0.32193  0.75338  1.0000
  C   C428      1.0  0.19158  0.38822  0.95820  1.0000
  H   H336      1.0  0.28262  0.33815  0.58360  1.0000
  C   C429      1.0  0.00699  0.33495  0.65700  1.0000
  H   H337      1.0  0.25161  0.33143  0.94404  1.0000
  H   H338      1.0  0.32265  0.29753  0.72568  1.0000
  C   C430      1.0  0.00864  0.28388  0.85322  1.0000
  C   C431      1.0  0.04930  0.22943  0.96934  1.0000
  H   H339      1.0  0.38865  0.36150  0.83253  1.0000
  C   C432      1.0  0.44936  0.21502  0.71777  1.0000
  H   H340      1.0  0.42794  0.23305  0.70111  1.0000
  H   H341      1.0  0.00884  0.29136  0.97135  1.0000
  H   H342      1.0  0.43760  0.26090  0.72120  1.0000
  H   H343      1.0  0.02057  0.25080  0.69519  1.0000
  H   H344      1.0  0.03078  0.35525  0.91772  1.0000
  C   C433      1.0  0.12961  0.36126  0.83029  1.0000
  H   H345      1.0  0.44032  0.37226  0.78733  1.0000
  C   C434      1.0  0.30790  0.33963  0.55770  1.0000
  C   C435      1.0  0.14570  0.37788  0.86079  1.0000
  C   C436      1.0  0.32991  0.37335  0.67361  1.0000
  H   H346      1.0  0.47747  0.30572  0.72177  1.0000
  H   H347      1.0  0.48828  0.24482  0.68502  1.0000
  C   C437      1.0  0.01810  0.22904  0.79500  1.0000
  C   C438      1.0  0.03324  0.22354  0.81004  1.0000
  P   P14       1.0  0.01245  0.25335  0.78717  1.0000
  C   C439      1.0  0.02704  0.26124  0.75780  1.0000
  H   H348      1.0  0.46465  0.38801  0.76374  1.0000
  S   S72       1.0  0.09825  0.34546  0.98861  1.0000
  S   S73       1.0  0.08412  0.20860  0.79225  1.0000
  H   H349      1.0  0.05765  0.27487  0.97404  1.0000
  H   H350      1.0  0.49003  0.20806  0.56889  1.0000
  C   C440      1.0  0.03853  0.20475  0.81405  1.0000
  C   C441      1.0  0.02809  0.28033  0.75034  1.0000
  C   C442      1.0  0.04112  0.28665  0.72986  1.0000
  C   C443      1.0  0.05337  0.27408  0.71702  1.0000
  C   C444      1.0  0.05258  0.25516  0.72450  1.0000
  C   C445      1.0  0.03946  0.24870  0.74465  1.0000
  C   C446      1.0  0.01798  0.26682  0.81409  1.0000
  C   C447      1.0  0.03634  0.27211  0.81530  1.0000
  C   C448      1.0  0.04075  0.28332  0.83506  1.0000
  C   C449      1.0  0.35076  0.29786  0.78040  1.0000
  C   C450      1.0  0.02284  0.30595  0.93697  1.0000
  H   H351      1.0  0.38096  0.38305  0.68420  1.0000
  C   C451      1.0  0.02293  0.34084  0.66737  1.0000
  C   C452      1.0  0.11752  0.26473  0.96010  1.0000
  P   P15       1.0  0.33853  0.32580  0.63429  1.0000
  C   C453      1.0  0.00349  0.32778  0.91098  1.0000
  H   H352      1.0  0.04134  0.23365  0.81814  1.0000
  C   C454      1.0  0.12461  0.20811  0.89497  1.0000
  H   H353      1.0  0.35152  0.33431  0.57833  1.0000
  H   H354      1.0  0.03032  0.29857  0.86849  1.0000
  C   C455      1.0  0.36196  0.30031  0.60766  1.0000
  C   C456      1.0  0.48955  0.29055  0.68888  1.0000
  H   H355      1.0  0.01953  0.29041  0.76121  1.0000
  H   H356      1.0  0.04256  0.30134  0.72478  1.0000
  H   H357      1.0  0.06416  0.27909  0.70226  1.0000
  H   H358      1.0  0.06286  0.24562  0.71564  1.0000
  H   H359      1.0  0.03982  0.23400  0.75062  1.0000
  H   H360      1.0  0.04723  0.26787  0.80064  1.0000
  H   H361      1.0  0.05489  0.28766  0.83553  1.0000
  C   C457      1.0  0.03368  0.20099  0.71937  1.0000
  C   C458      1.0  0.15875  0.35835  0.76481  1.0000
  C   C459      1.0  0.11532  0.24984  0.97930  1.0000
  C   C460      1.0  0.34119  0.34837  0.64604  1.0000
  C   C461      1.0  0.32874  0.35521  0.66631  1.0000
  C   C462      1.0  0.46296  0.38251  0.59376  1.0000
  P   P16       1.0  0.48744  0.22644  0.76976  1.0000
  H   H362      1.0  0.18279  0.38554  0.69463  1.0000
  C   C463      1.0  0.35443  0.36012  0.63268  1.0000
  H   H363      1.0  0.46495  0.23823  0.52395  1.0000
  C   C464      1.0  0.36063  0.31390  0.62632  1.0000
  H   H364      1.0  0.31791  0.34673  0.67621  1.0000
  C   C465      1.0  0.42548  0.37500  0.78988  1.0000
  H   H365      1.0  0.36371  0.35537  0.61630  1.0000
  C   C466      1.0  0.03427  0.36058  0.89722  1.0000
  C   C467      1.0  0.32639  0.33058  0.60432  1.0000
  C   C468      1.0  0.37648  0.31766  0.63907  1.0000
  C   C469      1.0  0.10960  0.23291  0.97206  1.0000
  C   C470      1.0  0.30484  0.28526  0.66938  1.0000
  H   H366      1.0  0.39581  0.20074  0.75367  1.0000
  C   C471      1.0  0.22456  0.32515  0.93293  1.0000
  C   C472      1.0  0.09667  0.37738  0.93614  1.0000
  C   C473      1.0  0.47977  0.27438  0.80841  1.0000
  H   H367      1.0  0.12964  0.21189  0.91338  1.0000
  H   H368      1.0  0.38018  0.28131  0.58577  1.0000
  H   H369      1.0  0.46399  0.35951  0.67720  1.0000
  H   H370      1.0  0.24744  0.36505  0.93296  1.0000
  C   C474      1.0  0.48206  0.21010  0.79819  1.0000
  C   C475      1.0  0.46819  0.27548  0.63857  1.0000
  C   C476      1.0  0.45261  0.28086  0.62458  1.0000
  C   C477      1.0  0.45488  0.28922  0.59858  1.0000
  C   C478      1.0  0.47275  0.29215  0.58656  1.0000
  C   C479      1.0  0.01160  0.27068  0.66442  1.0000
  H   H371      1.0  0.06040  0.37047  0.90656  1.0000
  H   H372      1.0  0.16283  0.33353  0.98350  1.0000
  C   C480      1.0  0.47732  0.33451  0.53171  1.0000
  H   H373      1.0  0.00840  0.35817  0.97185  1.0000
  C   C481      1.0  0.37909  0.29132  0.60085  1.0000
  C   C482      1.0  0.02090  0.31899  0.91519  1.0000
  H   H374      1.0  0.07009  0.24763  0.95051  1.0000
  C   C483      1.0  0.11413  0.19816  0.84598  1.0000
  C   C484      1.0  0.04622  0.21829  0.67922  1.0000
  C   C485      1.0  0.02258  0.33752  0.99677  1.0000
  C   C486      1.0  0.00377  0.20841  0.86943  1.0000
  H   H375      1.0  0.99789  0.28887  0.86761  1.0000
  H   H376      1.0  0.21586  0.37558  0.69831  1.0000
  C   C487      1.0  0.47952  0.37077  0.73564  1.0000
  S   S74       1.0  0.21203  0.37524  0.76424  1.0000
  S   S75       1.0  0.40949  0.27570  0.54357  1.0000
  H   H377      1.0  0.46608  0.26869  0.65852  1.0000
  H   H378      1.0  0.43876  0.27855  0.63393  1.0000
  H   H379      1.0  0.44281  0.29340  0.58772  1.0000
  H   H380      1.0  0.47452  0.29855  0.56636  1.0000
  H   H381      1.0  0.03631  0.33380  0.66307  1.0000
  H   H382      1.0  0.03387  0.36020  0.69202  1.0000
  H   H383      1.0  0.37575  0.32772  0.65404  1.0000
  H   H384      1.0  0.29881  0.33083  0.62488  1.0000
  C   C488      1.0  0.34553  0.31406  0.76539  1.0000
  C   C489      1.0  0.00422  0.19666  0.89291  1.0000
  C   C490      1.0  0.40299  0.25720  0.52582  1.0000
  H   H385      1.0  0.40907  0.21003  0.52720  1.0000
  H   H386      1.0  0.03309  0.32259  0.90216  1.0000
  H   H387      1.0  0.21371  0.36634  0.86532  1.0000
  C   C491      1.0  0.00202  0.27363  0.64128  1.0000
  H   H388      1.0  0.12953  0.35472  0.81163  1.0000
  H   H389      1.0  0.33920  0.31922  0.69261  1.0000
  H   H390      1.0  0.05048  0.20063  0.82519  1.0000
  C   C492      1.0  0.23874  0.33703  0.93633  1.0000
  H   H391      1.0  0.32499  0.36044  0.81743  1.0000
  C   C493      1.0  0.07905  0.38056  0.94911  1.0000
  C   C494      1.0  0.02243  0.35831  0.87697  1.0000
  C   C495      1.0  0.03079  0.21137  0.69518  1.0000
  C   C496      1.0  0.02689  0.28933  0.85384  1.0000
  C   C497      1.0  0.39357  0.30853  0.63230  1.0000
  H   H392      1.0  0.19992  0.37363  0.82234  1.0000
  C   C498      1.0  0.32937  0.31004  0.68593  1.0000
  H   H393      1.0  0.37277  0.19456  0.72376  1.0000
  C   C499      1.0  0.03390  0.22774  0.98805  1.0000
  H   H394      1.0  0.44738  0.26755  0.53339  1.0000
  H   H395      1.0  0.40484  0.37575  0.71594  1.0000
  H   H396      1.0  0.10135  0.35472  0.84320  1.0000
  H   H397      1.0  0.49127  0.36809  0.74774  1.0000
  H   H398      1.0  0.35172  0.22884  0.53807  1.0000
  C   C500      1.0  0.05162  0.19797  0.72776  1.0000
  C   C501      1.0  0.11375  0.36953  0.87233  1.0000
  C   C502      1.0  0.48621  0.27908  0.62707  1.0000
  H   H399      1.0  0.29556  0.27545  0.66291  1.0000
  C   C503      1.0  0.05088  0.26178  0.97773  1.0000
  C   C504      1.0  0.48837  0.28694  0.60055  1.0000
  H   H400      1.0  0.22643  0.31036  0.93796  1.0000
  H   H401      1.0  0.05479  0.21750  0.95905  1.0000
  C   C505      1.0  0.48416  0.32874  0.78481  1.0000
  H   H402      1.0  0.12146  0.27797  0.96606  1.0000
  H   H403      1.0  0.00342  0.37617  0.70234  1.0000
  H   H404      1.0  0.10128  0.21772  0.94049  1.0000
  C   C506      1.0  0.40412  0.22386  0.52078  1.0000
  C   C507      1.0  0.10632  0.23078  0.94548  1.0000
  H   H405      1.0  0.43717  0.37890  0.69287  1.0000
  C   C508      1.0  0.32001  0.29778  0.70476  1.0000
  H   H406      1.0  0.03651  0.30020  0.94127  1.0000
  H   H407      1.0  0.15784  0.36968  0.82253  1.0000
  C   C509      1.0  0.19848  0.38361  0.83749  1.0000
  H   H408      1.0  0.01759  0.36580  0.83535  1.0000
  H   H409      1.0  0.42289  0.35654  0.82568  1.0000
  C   C510      1.0  0.44814  0.38160  0.57773  1.0000
  H   H410      1.0  0.31236  0.29658  0.62944  1.0000
  H   H411      1.0  0.18643  0.34586  0.76714  1.0000
  C   C511      1.0  0.31427  0.29739  0.65047  1.0000
  C   C512      1.0  0.30759  0.28555  0.69654  1.0000
  H   H412      1.0  0.37143  0.37108  0.54961  1.0000
  C   C513      1.0  0.39631  0.36874  0.81572  1.0000
  C   C514      1.0  0.06420  0.21488  0.68741  1.0000
  C   C515      1.0  0.21966  0.36347  0.92000  1.0000
  C   C516      1.0  0.30689  0.33252  0.60578  1.0000
  C   C517      1.0  0.45992  0.24631  0.74119  1.0000
  H   H413      1.0  0.36524  0.29307  0.77983  1.0000
  C   C518      1.0  0.37132  0.21459  0.56330  1.0000
  H   H414      1.0  0.34311  0.38381  0.72419  1.0000
  C   C519      1.0  0.48042  0.33517  0.83148  1.0000
  C   C520      1.0  0.38012  0.20845  0.68508  1.0000
  C   C521      1.0  0.46985  0.37889  0.53882  1.0000
  C   C522      1.0  0.41007  0.23920  0.53277  1.0000
  S   S76       1.0  0.04471  0.34595  0.98572  1.0000
  H   H415      1.0  0.07611  0.22000  0.67494  1.0000
  H   H416      1.0  0.01757  0.28222  0.67272  1.0000
  C   C523      1.0  0.14887  0.36038  0.97871  1.0000
  C   C524      1.0  0.12977  0.37793  0.87890  1.0000
  C   C525      1.0  0.14106  0.37376  0.96084  1.0000
  H   H417      1.0  0.27130  0.32450  0.68785  1.0000
  H   H418      1.0  0.47828  0.32489  0.76703  1.0000
  C   C526      1.0  0.20612  0.37948  0.86206  1.0000
  H   H419      1.0  0.15149  0.35202  0.90330  1.0000
  S   S77       1.0  0.08082  0.30448  0.98759  1.0000
  C   C527      1.0  0.15763  0.34426  0.96940  1.0000
  Fe  Fe37      1.0  0.40574  0.30635  0.53028  1.0000
  C   C528      1.0  0.17826  0.35878  0.76544  1.0000
  C   C529      1.0  0.45159  0.37982  0.55030  1.0000
  C   C530      1.0  0.29768  0.33682  0.58247  1.0000
  C   C531      1.0  0.02686  0.36652  0.85108  1.0000
  H   H420      1.0  0.34987  0.29692  0.59792  1.0000
  H   H421      1.0  0.47801  0.35267  0.62443  1.0000
  C   C532      1.0  0.32209  0.38487  0.75730  1.0000
  C   C533      1.0  0.46942  0.28497  0.51669  1.0000
  C   C534      1.0  0.33737  0.28794  0.79647  1.0000
  C   C535      1.0  0.28606  0.35905  0.72199  1.0000
  C   C536      1.0  0.99788  0.20363  0.91756  1.0000
  C   C537      1.0  0.46404  0.21353  0.73446  1.0000
  C   C538      1.0  0.47684  0.25754  0.79777  1.0000
  C   C539      1.0  0.41558  0.36597  0.81185  1.0000
  C   C540      1.0  0.06687  0.20484  0.71179  1.0000
  H   H422      1.0  0.04442  0.22596  0.66015  1.0000
  H   H423      1.0  0.10189  0.36320  0.93403  1.0000
  H   H424      1.0  0.99680  0.23579  0.85232  1.0000
  C   C541      1.0  0.00412  0.27281  0.83326  1.0000
  H   H425      1.0  0.43394  0.38206  0.58655  1.0000
  S   S78       1.0  0.41065  0.36018  0.51750  1.0000
  C   C542      1.0  0.49191  0.35046  0.63093  1.0000
  C   C543      1.0  0.05101  0.36951  0.89109  1.0000
  C   C544      1.0  0.46909  0.22903  0.74700  1.0000
  H   H426      1.0  0.02196  0.33099  0.83728  1.0000
  P   P17       1.0  0.00775  0.21490  0.68351  1.0000
  C   C545      1.0  0.38078  0.21499  0.58638  1.0000
  C   C546      1.0  0.00145  0.32155  0.81357  1.0000
  H   H427      1.0  0.38459  0.22056  0.69371  1.0000
  H   H428      1.0  0.19225  0.35691  0.90998  1.0000
  H   H429      1.0  0.11050  0.19449  0.82670  1.0000
  H   H430      1.0  0.27771  0.35808  0.68200  1.0000
  C   C547      1.0  0.48931  0.29726  0.71428  1.0000
  H   H431      1.0  0.28889  0.37369  0.71955  1.0000
  C   C548      1.0  0.48143  0.38190  0.58234  1.0000
  H   H432      1.0  0.10761  0.22145  0.98714  1.0000
  C   C549      1.0  0.04353  0.37559  0.84509  1.0000
  C   C550      1.0  0.02162  0.35580  0.68348  1.0000
  H   H433      1.0  0.99624  0.31125  0.73007  1.0000
  C   C551      1.0  0.34580  0.38617  0.56029  1.0000
  C   C552      1.0  0.20535  0.35148  0.91708  1.0000
  C   C553      1.0  0.05790  0.24639  0.96443  1.0000
  H   H434      1.0  0.45279  0.21379  0.65380  1.0000
  C   C554      1.0  0.38690  0.38070  0.79774  1.0000
  C   C555      1.0  0.35550  0.37829  0.63991  1.0000
  P   P18       1.0  0.21632  0.38816  0.91205  1.0000
  C   C556      1.0  0.27984  0.35023  0.70086  1.0000
  C   C557      1.0  0.47205  0.19597  0.51762  1.0000
  C   C558      1.0  0.44884  0.37698  0.70506  1.0000
  C   C559      1.0  0.00673  0.34641  0.98636  1.0000
  H   H435      1.0  0.02751  0.21443  0.99171  1.0000
  H   H436      1.0  0.44013  0.37897  0.53793  1.0000
  H   H437      1.0  0.41886  0.38921  0.63731  1.0000
  C   C560      1.0  0.36514  0.38378  0.55706  1.0000
  H   H438      1.0  0.18964  0.37371  0.95596  1.0000
  C   C561      1.0  0.49388  0.20828  0.81920  1.0000
  C   C562      1.0  0.01338  0.25283  0.67704  1.0000
  C   C563      1.0  0.00881  0.21549  0.78326  1.0000
  C   C564      1.0  0.21183  0.39023  0.69661  1.0000
  H   H439      1.0  0.36566  0.38726  0.62928  1.0000
  P   P19       1.0  0.00119  0.34602  0.88454  1.0000
  C   C565      1.0  0.47919  0.33764  0.50381  1.0000
  C   C566      1.0  0.10752  0.39232  0.92619  1.0000
  C   C567      1.0  0.20464  0.39255  0.88154  1.0000
  C   C568      1.0  0.99687  0.22676  0.87048  1.0000
  C   C569      1.0  0.46427  0.38190  0.74479  1.0000
  H   H440      1.0  0.49106  0.35378  0.70447  1.0000
  H   H441      1.0  0.01171  0.31737  0.79797  1.0000
  C   C570      1.0  0.44859  0.38479  0.72988  1.0000
  H   H442      1.0  0.33715  0.37540  0.55518  1.0000
  P   P20       1.0  0.13065  0.38787  0.91074  1.0000
  C   C571      1.0  0.99554  0.32471  0.73813  1.0000
  S   S79       1.0  0.29581  0.38629  0.80116  1.0000
  H   H443      1.0  0.00195  0.35420  0.56049  1.0000
  H   H444      1.0  0.45995  0.38375  0.61504  1.0000
  H   H445      1.0  0.48471  0.32597  0.65600  1.0000
  H   H446      1.0  0.32033  0.37855  0.68934  1.0000
  H   H447      1.0  0.00825  0.32344  0.64435  1.0000
  C   C572      1.0  0.47942  0.36272  0.71128  1.0000
  C   C573      1.0  0.00439  0.36483  0.68932  1.0000
  H   H448      1.0  0.99849  0.19496  0.93613  1.0000
  H   H449      1.0  0.06889  0.38341  0.86014  1.0000
  H   H450      1.0  0.99779  0.21941  0.77029  1.0000
  C   C574      1.0  0.34327  0.38489  0.66043  1.0000
  H   H451      1.0  0.00052  0.28748  0.63157  1.0000
  C   C575      1.0  0.49315  0.33175  0.54624  1.0000
  H   H452      1.0  0.49153  0.32951  0.56785  1.0000
  H   H453      1.0  0.11787  0.25155  0.99986  1.0000
  Fe  Fe38      1.0  0.38832  0.34294  0.50534  1.0000
  C   C576      1.0  0.39668  0.38965  0.77563  1.0000
  H   H454      1.0  0.13359  0.38575  0.96865  1.0000
  H   H455      1.0  0.17368  0.38819  0.99493  1.0000
  C   C577      1.0  0.46675  0.19871  0.79942  1.0000
  C   C578      1.0  0.39050  0.25983  0.50588  1.0000
  C   C579      1.0  0.40244  0.39003  0.70835  1.0000
  C   C580      1.0  0.49087  0.19482  0.84048  1.0000
  H   H456      1.0  0.46378  0.19765  0.60082  1.0000
  C   C581      1.0  0.49159  0.19545  0.58179  1.0000
  C   C582      1.0  0.48750  0.28552  0.50443  1.0000
  C   C583      1.0  0.39101  0.22632  0.50170  1.0000
  C   C584      1.0  0.37350  0.19368  0.70227  1.0000
  H   H457      1.0  0.14755  0.36211  0.99999  1.0000
  C   C585      1.0  0.32274  0.53986  0.34515  1.0000
  Fe  Fe39      1.0  0.29742  0.49524  0.47685  1.0000
  S   S80       1.0  0.28081  0.51049  0.44293  1.0000
  S   S81       1.0  0.32861  0.49398  0.47277  1.0000
  H   H458      1.0  0.29201  0.57894  0.20136  1.0000
  H   H459      1.0  0.40885  0.57850  0.18677  1.0000
  Fe  Fe40      1.0  0.16441  0.46256  0.02282  1.0000
  S   S82       1.0  0.19540  0.46139  0.02677  1.0000
  H   H460      1.0  0.10099  0.58499  0.00559  1.0000
  Fe  Fe41      1.0  0.19090  0.48740  0.05014  1.0000
  S   S83       1.0  0.20090  0.49133  0.09267  1.0000
  S   S84       1.0  0.15965  0.48687  0.04851  1.0000
  Fe  Fe42      1.0  0.26097  0.57585  0.25116  1.0000
  S   S85       1.0  0.27011  0.54641  0.24413  1.0000
  H   H461      1.0  0.24758  0.50347  0.49761  1.0000
  Fe  Fe43      1.0  0.22057  0.56492  0.26778  1.0000
  S   S86       1.0  0.22810  0.53450  0.26333  1.0000
  C   C586      1.0  0.03970  0.55283  0.01656  1.0000
  Fe  Fe44      1.0  0.25408  0.53927  0.28429  1.0000
  S   S87       1.0  0.26922  0.51972  0.31569  1.0000
  Fe  Fe45      1.0  0.24317  0.54417  0.22385  1.0000
  S   S88       1.0  0.23868  0.53580  0.18064  1.0000
  S   S89       1.0  0.24537  0.56890  0.29132  1.0000
  S   S90       1.0  0.23532  0.57445  0.22841  1.0000
  C   C587      1.0  0.27651  0.44350  0.43834  1.0000
  H   H462      1.0  0.29422  0.54276  0.46764  1.0000
  P   P21       1.0  0.03079  0.57650  0.01061  1.0000
  C   C588      1.0  0.24200  0.41732  0.42223  1.0000
  H   H463      1.0  0.31074  0.57308  0.24712  1.0000
  C   C589      1.0  0.21088  0.50440  0.11697  1.0000
  C   C590      1.0  0.21986  0.52108  0.11001  1.0000
  C   C591      1.0  0.22814  0.53039  0.12963  1.0000
  C   C592      1.0  0.22733  0.52356  0.15682  1.0000
  C   C593      1.0  0.21779  0.50723  0.16396  1.0000
  C   C594      1.0  0.20991  0.49767  0.14423  1.0000
  H   H464      1.0  0.22086  0.52660  0.08933  1.0000
  H   H465      1.0  0.23526  0.54301  0.12358  1.0000
  H   H466      1.0  0.21687  0.50167  0.18463  1.0000
  H   H467      1.0  0.20307  0.48485  0.15016  1.0000
  C   C595      1.0  0.29605  0.57978  0.36645  1.0000
  H   H468      1.0  0.30554  0.48383  0.25313  1.0000
  H   H469      1.0  0.33081  0.48208  0.21661  1.0000
  C   C596      1.0  0.13865  0.41689  0.02645  1.0000
  C   C597      1.0  0.14846  0.40614  0.04546  1.0000
  C   C598      1.0  0.19955  0.58627  0.18216  1.0000
  H   H470      1.0  0.10668  0.55074  0.00805  1.0000
  C   C599      1.0  0.03496  0.52105  0.03464  1.0000
  H   H471      1.0  0.32953  0.43050  0.43661  1.0000
  C   C600      1.0  0.20997  0.41405  0.45731  1.0000
  H   H472      1.0  0.34503  0.57636  0.24435  1.0000
  H   H473      1.0  0.36135  0.53841  0.46034  1.0000
  C   C601      1.0  0.27852  0.51341  0.40723  1.0000
  C   C602      1.0  0.28948  0.50323  0.38864  1.0000
  C   C603      1.0  0.28645  0.50544  0.36098  1.0000
  C   C604      1.0  0.27280  0.51823  0.35103  1.0000
  C   C605      1.0  0.26221  0.52879  0.36951  1.0000
  C   C606      1.0  0.26496  0.52629  0.39726  1.0000
  H   H474      1.0  0.30020  0.49350  0.39552  1.0000
  H   H475      1.0  0.29479  0.49712  0.34713  1.0000
  H   H476      1.0  0.25157  0.53862  0.36253  1.0000
  H   H477      1.0  0.25637  0.53434  0.41118  1.0000
  C   C607      1.0  0.40224  0.58817  0.41391  1.0000
  H   H478      1.0  0.31241  0.53011  0.34182  1.0000
  C   C608      1.0  0.22968  0.47736  0.41514  1.0000
  C   C609      1.0  0.27356  0.58135  0.16966  1.0000
  C   C610      1.0  0.46195  0.59201  0.39485  1.0000
  C   C611      1.0  0.29895  0.57192  0.45936  1.0000
  H   H479      1.0  0.37789  0.48179  0.44803  1.0000
  C   C612      1.0  0.30865  0.45232  0.43003  1.0000
  H   H480      1.0  0.17759  0.49204  0.28224  1.0000
  S   S91       1.0  0.29600  0.46567  0.49573  1.0000
  H   H481      1.0  0.06844  0.56955  0.08337  1.0000
  C   C613      1.0  0.28706  0.57228  0.18487  1.0000
  H   H482      1.0  0.12195  0.53187  0.11867  1.0000
  H   H483      1.0  0.42843  0.54930  0.18954  1.0000
  C   C614      1.0  0.31921  0.54726  0.44192  1.0000
  H   H484      1.0  0.29397  0.57094  0.38482  1.0000
  H   H485      1.0  0.19022  0.54256  0.16918  1.0000
  C   C615      1.0  0.15153  0.56355  0.00149  1.0000
  H   H486      1.0  0.37147  0.48698  0.40022  1.0000
  H   H487      1.0  0.22100  0.47733  0.43378  1.0000
  C   C616      1.0  0.24811  0.48034  0.47305  1.0000
  H   H488      1.0  0.14620  0.50444  0.21361  1.0000
  H   H489      1.0  0.24893  0.48924  0.45470  1.0000
  C   C617      1.0  0.29387  0.55446  0.17930  1.0000
  H   H490      1.0  0.45904  0.58181  0.38125  1.0000
  H   H491      1.0  0.31871  0.46293  0.42490  1.0000
  C   C618      1.0  0.13657  0.55178  0.00434  1.0000
  C   C619      1.0  0.10795  0.57942  0.20828  1.0000
  H   H492      1.0  0.28667  0.57629  0.47156  1.0000
  C   C620      1.0  0.02797  0.53919  0.02895  1.0000
  H   H493      1.0  0.36128  0.57741  0.44810  1.0000
  H   H494      1.0  0.25415  0.41865  0.40812  1.0000
  C   C621      1.0  0.03440  0.58879  0.08824  1.0000
  C   C622      1.0  0.38759  0.58816  0.43386  1.0000
  H   H495      1.0  0.28093  0.56249  0.34343  1.0000
  H   H496      1.0  0.17502  0.51365  0.17327  1.0000
  C   C623      1.0  0.37057  0.51001  0.45680  1.0000
  H   H497      1.0  0.18794  0.52447  0.27861  1.0000
  H   H498      1.0  0.02581  0.51055  0.04401  1.0000
  H   H499      1.0  0.05919  0.50238  0.03288  1.0000
  C   C624      1.0  0.36939  0.49832  0.41316  1.0000
  H   H500      1.0  0.15948  0.41218  0.05477  1.0000
  C   C625      1.0  0.25645  0.46561  0.38822  1.0000
  C   C626      1.0  0.03532  0.56272  0.16064  1.0000
  H   H501      1.0  0.03485  0.58125  0.10758  1.0000
  C   C627      1.0  0.33766  0.40929  0.49258  1.0000
  H   H502      1.0  0.18280  0.53034  0.08326  1.0000
  C   C628      1.0  0.01745  0.55931  0.15391  1.0000
  H   H503      1.0  0.41292  0.57743  0.37662  1.0000
  S   S92       1.0  0.13969  0.52720  0.00522  1.0000
  C   C629      1.0  0.34291  0.55281  0.37477  1.0000
  C   C630      1.0  0.45330  0.56292  0.19665  1.0000
  H   H504      1.0  0.49066  0.55758  0.25642  1.0000
  C   C631      1.0  0.25137  0.47741  0.36639  1.0000
  C   C632      1.0  0.17460  0.54309  0.08632  1.0000
  C   C633      1.0  0.10705  0.55783  0.24756  1.0000
  H   H505      1.0  0.11418  0.57233  0.13186  1.0000
  H   H506      1.0  0.19743  0.41291  0.47067  1.0000
  H   H507      1.0  0.06726  0.59270  0.00639  1.0000
  C   C634      1.0  0.40146  0.57752  0.39199  1.0000
  C   C635      1.0  0.00448  0.57408  0.14986  1.0000
  H   H508      1.0  0.10192  0.59135  0.19722  1.0000
  Fe  Fe46      1.0  0.32731  0.46537  0.49392  1.0000
  H   H509      1.0  0.03115  0.56432  0.06800  1.0000
  C   C636      1.0  0.38586  0.56711  0.38984  1.0000
  H   H510      1.0  0.34641  0.57526  0.31226  1.0000
  C   C637      1.0  0.37320  0.49541  0.44004  1.0000
  C   C638      1.0  0.00935  0.59243  0.15219  1.0000
  C   C639      1.0  0.35940  0.53029  0.42009  1.0000
  C   C640      1.0  0.28496  0.51040  0.20402  1.0000
  C   C641      1.0  0.28725  0.50108  0.22907  1.0000
  C   C642      1.0  0.22480  0.48934  0.39335  1.0000
  H   H511      1.0  0.21267  0.49869  0.39535  1.0000
  C   C643      1.0  0.30324  0.55302  0.45728  1.0000
  H   H512      1.0  0.15669  0.48214  0.24963  1.0000
  H   H513      1.0  0.12516  0.54733  0.15985  1.0000
  H   H514      1.0  0.14962  0.57421  0.27720  1.0000
  S   S93       1.0  0.35019  0.44496  0.47880  1.0000
  H   H515      1.0  0.23222  0.49900  0.35227  1.0000
  C   C644      1.0  0.03263  0.58876  0.04020  1.0000
  H   H516      1.0  0.06821  0.55827  0.00168  1.0000
  C   C645      1.0  0.45479  0.59019  0.42159  1.0000
  C   C646      1.0  0.31475  0.43406  0.43680  1.0000
  H   H517      1.0  0.21733  0.43952  0.47209  1.0000
  C   C647      1.0  0.08133  0.57557  0.08694  1.0000
  C   C648      1.0  0.16920  0.57810  0.20261  1.0000
  H   H518      1.0  0.42293  0.44880  0.47655  1.0000
  H   H519      1.0  0.35812  0.57637  0.35693  1.0000
  H   H520      1.0  0.05400  0.58358  0.16884  1.0000
  H   H521      1.0  0.36024  0.51778  0.38211  1.0000
  P   P22       1.0  0.25206  0.45025  0.44105  1.0000
  C   C649      1.0  0.43449  0.56242  0.19186  1.0000
  C   C650      1.0  0.34865  0.56579  0.35381  1.0000
  C   C651      1.0  0.23571  0.48944  0.36903  1.0000
  C   C652      1.0  0.11550  0.59013  0.09528  1.0000
  C   C653      1.0  0.37065  0.41202  0.48136  1.0000
  C   C654      1.0  0.09933  0.57313  0.23301  1.0000
  H   H522      1.0  0.28504  0.47136  0.42672  1.0000
  H   H523      1.0  0.32214  0.53253  0.44043  1.0000
  H   H524      1.0  0.14022  0.56994  0.05882  1.0000
  H   H525      1.0  0.13123  0.57595  0.17935  1.0000
  C   C655      1.0  0.28875  0.57495  0.34314  1.0000
  C   C656      1.0  0.34187  0.56540  0.32854  1.0000
  C   C657      1.0  0.32899  0.55241  0.32420  1.0000
  H   H526      1.0  0.36594  0.52645  0.08957  1.0000
  C   C658      1.0  0.08926  0.58883  0.06826  1.0000
  C   C659      1.0  0.12432  0.40870  0.01468  1.0000
  C   C660      1.0  0.10724  0.57708  0.11417  1.0000
  H   H527      1.0  0.46151  0.55003  0.19790  1.0000
  C   C661      1.0  0.03248  0.57919  0.06559  1.0000
  C   C662      1.0  0.09018  0.56987  0.11006  1.0000
  H   H528      1.0  0.01354  0.54519  0.15231  1.0000
  C   C663      1.0  0.33107  0.56042  0.42859  1.0000
  H   H529      1.0  0.45813  0.59020  0.25168  1.0000
  P   P23       1.0  0.35123  0.55307  0.40774  1.0000
  C   C664      1.0  0.00669  0.57691  0.00302  1.0000
  H   H530      1.0  0.17077  0.49757  0.13285  1.0000
  C   C665      1.0  0.36360  0.52735  0.44692  1.0000
  C   C666      1.0  0.36275  0.51576  0.40308  1.0000
  H   H531      1.0  0.14468  0.50682  0.10518  1.0000
  H   H532      1.0  0.26871  0.45650  0.38573  1.0000
  H   H533      1.0  0.12911  0.53704  0.24916  1.0000
  C   C667      1.0  0.35282  0.42051  0.48545  1.0000
  C   C668      1.0  0.24874  0.46095  0.47246  1.0000
  C   C669      1.0  0.16645  0.56960  0.11237  1.0000
  H   H534      1.0  0.01342  0.54256  0.03437  1.0000
  H   H535      1.0  0.10051  0.55314  0.26695  1.0000
  H   H536      1.0  0.27209  0.51831  0.20084  1.0000
  C   C670      1.0  0.22139  0.42905  0.45821  1.0000
  C   C671      1.0  0.17726  0.55333  0.10803  1.0000
  H   H537      1.0  0.17806  0.42118  0.00149  1.0000
  C   C672      1.0  0.18335  0.59074  0.19789  1.0000
  H   H538      1.0  0.17825  0.54655  0.24227  1.0000
  H   H539      1.0  0.18766  0.54845  0.12156  1.0000
  H   H540      1.0  0.04529  0.55127  0.16418  1.0000
  C   C673      1.0  0.17426  0.59013  0.26973  1.0000
  H   H541      1.0  0.28669  0.58198  0.30096  1.0000
  H   H542      1.0  0.21455  0.56529  0.15995  1.0000
  H   H543      1.0  0.15710  0.58175  0.21562  1.0000
  C   C674      1.0  0.15316  0.57598  0.09445  1.0000
  H   H544      1.0  0.08234  0.59336  0.05041  1.0000
  C   C675      1.0  0.30181  0.42056  0.44477  1.0000
  C   C676      1.0  0.15052  0.56548  0.07277  1.0000
  C   C677      1.0  0.23774  0.43052  0.44111  1.0000
  C   C678      1.0  0.41550  0.44601  0.49597  1.0000
  H   H545      1.0  0.08397  0.55969  0.12464  1.0000
  C   C679      1.0  0.28273  0.42526  0.44578  1.0000
  C   C680      1.0  0.34610  0.54058  0.11624  1.0000
  C   C681      1.0  0.35270  0.52573  0.10139  1.0000
  C   C682      1.0  0.34222  0.50995  0.10182  1.0000
  C   C683      1.0  0.32510  0.50904  0.11701  1.0000
  C   C684      1.0  0.31825  0.52400  0.13170  1.0000
  C   C685      1.0  0.32898  0.53972  0.13142  1.0000
  P   P24       1.0  0.29622  0.52249  0.15147  1.0000
  C   C686      1.0  0.28734  0.54562  0.15818  1.0000
  C   C687      1.0  0.28042  0.51115  0.13246  1.0000
  C   C688      1.0  0.28012  0.51568  0.10476  1.0000
  C   C689      1.0  0.26841  0.50659  0.08968  1.0000
  C   C690      1.0  0.25703  0.49283  0.10207  1.0000
  C   C691      1.0  0.25725  0.48824  0.12957  1.0000
  C   C692      1.0  0.26881  0.49740  0.14477  1.0000
  C   C693      1.0  0.42346  0.57884  0.19023  1.0000
  C   C694      1.0  0.05866  0.54810  0.01069  1.0000
  H   H546      1.0  0.16848  0.57692  0.12975  1.0000
  C   C695      1.0  0.26709  0.57274  0.14847  1.0000
  C   C696      1.0  0.27406  0.55499  0.14259  1.0000
  C   C697      1.0  0.29920  0.50965  0.18329  1.0000
  C   C698      1.0  0.31576  0.49930  0.18794  1.0000
  C   C699      1.0  0.05377  0.51644  0.02839  1.0000
  C   C700      1.0  0.16114  0.54909  0.06882  1.0000
  C   C701      1.0  0.28961  0.45704  0.43094  1.0000
  H   H547      1.0  0.15893  0.54098  0.05217  1.0000
  H   H548      1.0  0.35424  0.55280  0.11599  1.0000
  H   H549      1.0  0.27298  0.41475  0.45291  1.0000
  H   H550      1.0  0.34734  0.49841  0.09037  1.0000
  H   H551      1.0  0.31718  0.49666  0.11727  1.0000
  H   H552      1.0  0.32420  0.55139  0.14276  1.0000
  H   H553      1.0  0.28884  0.52632  0.09485  1.0000
  H   H554      1.0  0.26798  0.51031  0.06842  1.0000
  H   H555      1.0  0.24762  0.48606  0.09054  1.0000
  H   H556      1.0  0.24803  0.47791  0.13924  1.0000
  H   H557      1.0  0.26838  0.49380  0.16608  1.0000
  H   H558      1.0  0.25984  0.47765  0.34750  1.0000
  H   H559      1.0  0.44639  0.57855  0.42887  1.0000
  C   C702      1.0  0.23057  0.40235  0.42137  1.0000
  H   H560      1.0  0.08677  0.58027  0.24102  1.0000
  H   H561      1.0  0.26855  0.54846  0.12651  1.0000
  H   H562      1.0  0.32701  0.49850  0.17242  1.0000
  C   C703      1.0  0.24584  0.46576  0.41294  1.0000
  S   S94       1.0  0.14346  0.44054  0.01662  1.0000
  C   C704      1.0  0.21461  0.40066  0.43899  1.0000
  C   C705      1.0  0.31800  0.48996  0.21303  1.0000
  C   C706      1.0  0.15491  0.58779  0.27132  1.0000
  H   H563      1.0  0.38891  0.45586  0.48256  1.0000
  C   C707      1.0  0.30377  0.49090  0.23360  1.0000
  C   C708      1.0  0.46114  0.57991  0.20005  1.0000
  C   C709      1.0  0.17911  0.51995  0.26413  1.0000
  C   C710      1.0  0.17317  0.50176  0.26624  1.0000
  C   C711      1.0  0.16142  0.49620  0.24786  1.0000
  C   C712      1.0  0.15563  0.50883  0.22734  1.0000
  C   C713      1.0  0.16195  0.52700  0.22472  1.0000
  C   C714      1.0  0.17356  0.53251  0.24344  1.0000
  P   P25       1.0  0.15359  0.54374  0.19946  1.0000
  C   C715      1.0  0.15058  0.53207  0.16954  1.0000
  C   C716      1.0  0.13211  0.55497  0.21243  1.0000
  C   C717      1.0  0.12333  0.54872  0.23732  1.0000
  Fe  Fe47      1.0  0.16370  0.50544  0.01069  1.0000
  H   H564      1.0  0.38564  0.55859  0.37308  1.0000
  S   S95       1.0  0.18942  0.57082  0.27876  1.0000
  C   C718      1.0  0.12439  0.57055  0.19815  1.0000
  C   C719      1.0  0.13547  0.53686  0.15405  1.0000
  C   C720      1.0  0.13343  0.52791  0.13081  1.0000
  C   C721      1.0  0.14618  0.51379  0.12319  1.0000
  C   C722      1.0  0.16100  0.50865  0.13874  1.0000
  C   C723      1.0  0.16332  0.51782  0.16166  1.0000
  C   C724      1.0  0.17118  0.56075  0.19168  1.0000
  C   C725      1.0  0.18774  0.55619  0.17648  1.0000
  C   C726      1.0  0.20171  0.56902  0.17138  1.0000
  S   S96       1.0  0.19483  0.50675  0.01247  1.0000
  C   C727      1.0  0.31639  0.58673  0.24576  1.0000
  C   C728      1.0  0.33587  0.58865  0.24426  1.0000
  H   H565      1.0  0.27624  0.50193  0.24508  1.0000
  H   H566      1.0  0.32350  0.55234  0.30474  1.0000
  H   H567      1.0  0.32427  0.53043  0.38652  1.0000
  P   P26       1.0  0.48529  0.58102  0.20682  1.0000
  H   H568      1.0  0.30411  0.54756  0.19166  1.0000
  C   C729      1.0  0.04024  0.58089  0.16325  1.0000
  C   C730      1.0  0.37205  0.57774  0.43180  1.0000
  C   C731      1.0  0.29200  0.58592  0.31920  1.0000
  H   H569      1.0  0.38243  0.42045  0.47530  1.0000
  C   C732      1.0  0.31051  0.58511  0.44577  1.0000
  C   C733      1.0  0.32953  0.54011  0.37040  1.0000
  H   H570      1.0  0.30666  0.40654  0.45074  1.0000
  H   H571      1.0  0.08025  0.52645  0.01192  1.0000
  C   C734      1.0  0.11504  0.57914  0.00456  1.0000
  C   C735      1.0  0.37077  0.56756  0.40938  1.0000
  C   C736      1.0  0.32643  0.57940  0.43022  1.0000
  H   H572      1.0  0.33518  0.58978  0.41967  1.0000
  H   H573      1.0  0.37331  0.50777  0.47774  1.0000
  H   H574      1.0  0.33314  0.58798  0.49319  1.0000
  H   H575      1.0  0.25031  0.43488  0.49667  1.0000
  H   H576      1.0  0.10073  0.49560  0.00383  1.0000
  H   H577      1.0  0.25637  0.57961  0.13698  1.0000
  C   C737      1.0  0.11833  0.55971  0.00594  1.0000
  C   C738      1.0  0.24889  0.44985  0.49668  1.0000
  C   C739      1.0  0.06561  0.52998  0.01652  1.0000
  C   C740      1.0  0.24738  0.48850  0.49746  1.0000
  C   C741      1.0  0.12999  0.59092  0.00125  1.0000
  C   C742      1.0  0.39637  0.45007  0.49935  1.0000
  C   C743      1.0  0.34398  0.57850  0.50037  1.0000
  H   H578      1.0  0.32384  0.41563  0.49562  1.0000
  H   H579      1.0  0.11569  0.46177  0.70995  1.0000
  S   S97       1.0  0.22675  0.42967  0.76037  1.0000
  C   C744      1.0  0.47861  0.42762  0.66237  1.0000
  Fe  Fe48      1.0  0.27135  0.40341  0.78404  1.0000
  S   S98       1.0  0.26828  0.43468  0.77921  1.0000
  C   C745      1.0  0.15812  0.51494  0.91266  1.0000
  Fe  Fe49      1.0  0.23931  0.43175  0.80005  1.0000
  S   S99       1.0  0.22169  0.44813  0.83233  1.0000
  Fe  Fe50      1.0  0.25612  0.43016  0.73989  1.0000
  S   S100      1.0  0.26879  0.44683  0.70136  1.0000
  S   S101      1.0  0.26028  0.39898  0.74475  1.0000
  H   H580      1.0  0.24147  0.40366  0.94725  1.0000
  C   C746      1.0  0.13117  0.48193  0.94064  1.0000
  H   H581      1.0  0.24143  0.39420  0.86352  1.0000
  H   H582      1.0  0.10906  0.48952  0.89997  1.0000
  C   C747      1.0  0.39603  0.43859  0.54613  1.0000
  H   H583      1.0  0.43133  0.44670  0.63665  1.0000
  Fe  Fe51      1.0  0.29680  0.47736  0.53646  1.0000
  S   S102      1.0  0.27793  0.46381  0.57213  1.0000
  S   S103      1.0  0.32810  0.47561  0.53480  1.0000
  H   H584      1.0  0.31315  0.39495  0.74693  1.0000
  C   C748      1.0  0.36135  0.58540  0.50459  1.0000
  S   S104      1.0  0.21887  0.47334  0.95376  1.0000
  H   H585      1.0  0.48150  0.42079  0.59591  1.0000
  H   H586      1.0  0.11024  0.59145  0.94273  1.0000
  C   C749      1.0  0.18805  0.51343  0.93180  1.0000
  C   C750      1.0  0.11735  0.52663  0.84067  1.0000
  H   H587      1.0  0.46971  0.44390  0.62755  1.0000
  H   H588      1.0  0.18287  0.46254  0.74880  1.0000
  C   C751      1.0  0.14051  0.44799  0.72412  1.0000
  C   C752      1.0  0.16963  0.45606  0.69890  1.0000
  C   C753      1.0  0.22117  0.45354  0.86692  1.0000
  C   C754      1.0  0.20423  0.45992  0.87988  1.0000
  C   C755      1.0  0.20307  0.46518  0.90664  1.0000
  C   C756      1.0  0.21905  0.46495  0.92075  1.0000
  C   C757      1.0  0.23599  0.45840  0.90789  1.0000
  C   C758      1.0  0.23701  0.45252  0.88145  1.0000
  H   H589      1.0  0.19192  0.46096  0.86892  1.0000
  H   H590      1.0  0.18993  0.47008  0.91607  1.0000
  H   H591      1.0  0.24850  0.45799  0.91840  1.0000
  H   H592      1.0  0.25021  0.44777  0.87202  1.0000
  C   C759      1.0  0.27146  0.45091  0.66525  1.0000
  C   C760      1.0  0.28461  0.46356  0.65340  1.0000
  C   C761      1.0  0.28712  0.46741  0.62517  1.0000
  C   C762      1.0  0.27629  0.45889  0.60809  1.0000
  C   C763      1.0  0.26320  0.44620  0.61993  1.0000
  C   C764      1.0  0.26088  0.44214  0.64809  1.0000
  H   H593      1.0  0.29293  0.47050  0.66619  1.0000
  H   H594      1.0  0.29722  0.47723  0.61668  1.0000
  H   H595      1.0  0.25479  0.43936  0.60717  1.0000
  H   H596      1.0  0.25083  0.43228  0.65641  1.0000
  C   C765      1.0  0.45889  0.44442  0.74783  1.0000
  H   H597      1.0  0.23049  0.43235  0.69707  1.0000
  C   C766      1.0  0.11437  0.47320  0.98313  1.0000
  H   H598      1.0  0.43967  0.43450  0.51473  1.0000
  H   H599      1.0  0.16553  0.43937  0.93902  1.0000
  H   H600      1.0  0.39204  0.44104  0.68227  1.0000
  H   H601      1.0  0.34210  0.43009  0.57953  1.0000
  H   H602      1.0  0.11949  0.53702  0.82407  1.0000
  C   C767      1.0  0.12599  0.54113  0.92625  1.0000
  H   H603      1.0  0.18228  0.42777  0.84620  1.0000
  C   C768      1.0  0.11170  0.49991  0.88360  1.0000
  H   H604      1.0  0.09670  0.53707  0.92365  1.0000
  P   P27       1.0  0.42862  0.39861  0.74263  1.0000
  C   C769      1.0  0.42340  0.43591  0.62981  1.0000
  H   H605      1.0  0.21202  0.50750  0.90495  1.0000
  C   C770      1.0  0.18663  0.50863  0.88492  1.0000
  C   C771      1.0  0.34885  0.41706  0.57430  1.0000
  H   H606      1.0  0.13339  0.41600  0.86566  1.0000
  C   C772      1.0  0.43690  0.41974  0.75341  1.0000
  C   C773      1.0  0.45252  0.42796  0.73970  1.0000
  C   C774      1.0  0.36937  0.45302  0.58943  1.0000
  C   C775      1.0  0.44962  0.45286  0.76955  1.0000
  C   C776      1.0  0.43393  0.44487  0.78309  1.0000
  C   C777      1.0  0.42755  0.42839  0.77505  1.0000
  C   C778      1.0  0.33766  0.40284  0.56871  1.0000
  C   C779      1.0  0.13072  0.46030  0.70700  1.0000
  C   C780      1.0  0.24791  0.40458  0.92696  1.0000
  C   C781      1.0  0.14829  0.43827  0.87825  1.0000
  H   H607      1.0  0.28751  0.41967  0.89208  1.0000
  H   H608      1.0  0.42672  0.45142  0.79991  1.0000
  H   H609      1.0  0.23970  0.39914  0.69796  1.0000
  H   H610      1.0  0.24749  0.48366  0.54034  1.0000
  H   H611      1.0  0.16190  0.51858  0.95419  1.0000
  H   H612      1.0  0.16724  0.43621  0.73357  1.0000
  H   H613      1.0  0.39486  0.39718  0.60608  1.0000
  C   C782      1.0  0.21588  0.45911  0.61502  1.0000
  C   C783      1.0  0.35416  0.54709  0.51549  1.0000
  H   H614      1.0  0.45458  0.46559  0.77591  1.0000
  Fe  Fe52      1.0  0.19722  0.48071  0.98892  1.0000
  H   H615      1.0  0.14704  0.44675  0.85969  1.0000
  H   H616      1.0  0.38862  0.57798  0.51731  1.0000
  H   H617      1.0  0.05864  0.40092  0.96311  1.0000
  C   C784      1.0  0.00047  0.56338  0.98764  1.0000
  C   C785      1.0  0.10704  0.54672  0.92737  1.0000
  H   H618      1.0  0.37166  0.44877  0.52616  1.0000
  H   H619      1.0  0.24879  0.44949  0.53970  1.0000
  H   H620      1.0  0.16681  0.47639  0.66526  1.0000
  C   C786      1.0  0.14243  0.40953  0.90556  1.0000
  H   H621      1.0  0.15950  0.50973  0.87052  1.0000
  C   C787      1.0  0.19703  0.50989  0.90692  1.0000
  C   C788      1.0  0.18790  0.41474  0.69332  1.0000
  H   H622      1.0  0.43730  0.41371  0.65274  1.0000
  C   C789      1.0  0.20500  0.41765  0.94311  1.0000
  H   H623      1.0  0.37981  0.47301  0.55778  1.0000
  P   P28       1.0  0.13308  0.51798  0.91713  1.0000
  H   H624      1.0  0.15990  0.59196  0.99729  1.0000
  H   H625      1.0  0.17345  0.41862  0.69098  1.0000
  C   C790      1.0  0.15887  0.43402  0.92283  1.0000
  C   C791      1.0  0.04454  0.58770  0.98275  1.0000
  C   C792      1.0  0.10662  0.51141  0.83803  1.0000
  H   H626      1.0  0.20576  0.43668  0.64179  1.0000
  H   H627      1.0  0.45978  0.42162  0.72279  1.0000
  C   C793      1.0  0.39505  0.42678  0.68948  1.0000
  H   H628      1.0  0.13269  0.48007  0.67262  1.0000
  C   C794      1.0  0.22522  0.40349  0.69691  1.0000
  C   C795      1.0  0.35736  0.45084  0.61285  1.0000
  C   C796      1.0  0.40979  0.44057  0.61186  1.0000
  C   C797      1.0  0.48753  0.41112  0.67187  1.0000
  C   C798      1.0  0.07220  0.39865  0.95260  1.0000
  H   H629      1.0  0.39134  0.39609  0.55893  1.0000
  H   H630      1.0  0.18324  0.40541  0.75986  1.0000
  C   C799      1.0  0.13913  0.55399  0.93088  1.0000
  C   C800      1.0  0.18487  0.41498  0.98410  1.0000
  H   H631      1.0  0.09534  0.48634  0.85751  1.0000
  C   C801      1.0  0.37043  0.47062  0.57550  1.0000
  C   C802      1.0  0.10378  0.49808  0.85949  1.0000
  C   C803      1.0  0.26534  0.41237  0.92196  1.0000
  H   H632      1.0  0.10865  0.42237  0.92266  1.0000
  C   C804      1.0  0.42678  0.41738  0.63883  1.0000
  H   H633      1.0  0.21997  0.45029  0.59889  1.0000
  C   C805      1.0  0.26541  0.40683  0.87507  1.0000
  C   C806      1.0  0.48331  0.41800  0.61709  1.0000
  C   C807      1.0  0.49238  0.40143  0.62644  1.0000
  C   C808      1.0  0.34657  0.48303  0.60685  1.0000
  C   C809      1.0  0.21922  0.47804  0.61161  1.0000
  C   C810      1.0  0.21413  0.48944  0.63245  1.0000
  C   C811      1.0  0.20606  0.48185  0.65692  1.0000
  C   C812      1.0  0.20327  0.46271  0.66082  1.0000
  P   P29       1.0  0.19461  0.45269  0.69334  1.0000
  C   C813      1.0  0.20115  0.42816  0.69504  1.0000
  C   C814      1.0  0.20615  0.46348  0.71849  1.0000
  C   C815      1.0  0.22469  0.46865  0.71311  1.0000
  C   C816      1.0  0.23400  0.47628  0.73270  1.0000
  C   C817      1.0  0.22493  0.47884  0.75787  1.0000
  C   C818      1.0  0.20643  0.47401  0.76335  1.0000
  C   C819      1.0  0.19702  0.46645  0.74375  1.0000
  C   C820      1.0  0.41243  0.40421  0.71724  1.0000
  H   H634      1.0  0.42277  0.42769  0.55870  1.0000
  C   C821      1.0  0.38512  0.41255  0.68089  1.0000
  H   H635      1.0  0.13308  0.43983  0.74027  1.0000
  H   H636      1.0  0.34397  0.39900  0.66599  1.0000
  H   H637      1.0  0.22598  0.48382  0.59293  1.0000
  H   H638      1.0  0.21682  0.50410  0.62982  1.0000
  H   H639      1.0  0.20253  0.49080  0.67305  1.0000
  H   H640      1.0  0.23224  0.46637  0.69401  1.0000
  H   H641      1.0  0.24850  0.47962  0.72855  1.0000
  H   H642      1.0  0.23236  0.48412  0.77336  1.0000
  H   H643      1.0  0.19963  0.47554  0.78316  1.0000
  C   C822      1.0  0.24803  0.45805  0.52108  1.0000
  H   H644      1.0  0.21365  0.42615  0.92889  1.0000
  C   C823      1.0  0.18249  0.39634  0.98038  1.0000
  C   C824      1.0  0.18833  0.41405  0.85101  1.0000
  C   C825      1.0  0.11404  0.50540  0.96569  1.0000
  H   H645      1.0  0.47341  0.43779  0.67620  1.0000
  C   C826      1.0  0.37638  0.39801  0.56246  1.0000
  C   C827      1.0  0.12557  0.46828  0.96055  1.0000
  H   H646      1.0  0.11004  0.51972  0.96874  1.0000
  H   H647      1.0  0.27201  0.41765  0.93819  1.0000
  C   C828      1.0  0.10133  0.56479  0.93336  1.0000
  H   H648      1.0  0.13050  0.45396  0.95919  1.0000
  C   C829      1.0  0.36836  0.41458  0.57193  1.0000
  C   C830      1.0  0.14078  0.42070  0.88161  1.0000
  H   H649      1.0  0.13357  0.54040  0.86652  1.0000
  H   H650      1.0  0.10042  0.50998  0.81940  1.0000
  C   C831      1.0  0.15154  0.41636  0.92618  1.0000
  C   C832      1.0  0.12264  0.51510  0.88632  1.0000
  H   H651      1.0  0.15382  0.55029  0.93004  1.0000
  P   P30       1.0  0.38308  0.43315  0.57784  1.0000
  C   C833      1.0  0.08294  0.41365  0.94289  1.0000
  H   H652      1.0  0.07770  0.42767  0.94592  1.0000
  C   C834      1.0  0.14031  0.47057  0.68594  1.0000
  C   C835      1.0  0.19319  0.39586  0.69467  1.0000
  H   H653      1.0  0.19614  0.51386  0.94898  1.0000
  H   H654      1.0  0.14882  0.40475  0.75868  1.0000
  H   H655      1.0  0.11662  0.41681  0.99995  1.0000
  C   C836      1.0  0.12531  0.52850  0.86472  1.0000
  H   H656      1.0  0.32266  0.40498  0.57014  1.0000
  H   H657      1.0  0.08669  0.56898  0.93447  1.0000
  C   C837      1.0  0.11452  0.57746  0.93794  1.0000
  C   C838      1.0  0.15729  0.44492  0.89888  1.0000
  C   C839      1.0  0.14823  0.58299  0.99992  1.0000
  C   C840      1.0  0.20787  0.45145  0.63947  1.0000
  C   C841      1.0  0.16868  0.51591  0.93470  1.0000
  H   H658      1.0  0.41532  0.42249  0.78578  1.0000
  C   C842      1.0  0.15970  0.46845  0.68185  1.0000
  H   H659      1.0  0.38893  0.39865  0.76190  1.0000
  C   C843      1.0  0.40869  0.42267  0.70758  1.0000
  H   H660      1.0  0.19365  0.50536  0.86584  1.0000
  S   S105      1.0  0.24323  0.40081  0.80696  1.0000
  C   C844      1.0  0.38661  0.44608  0.52417  1.0000
  H   H661      1.0  0.19497  0.42048  0.88990  1.0000
  C   C845      1.0  0.47653  0.43107  0.63498  1.0000
  C   C846      1.0  0.16722  0.51108  0.88774  1.0000
  C   C847      1.0  0.23891  0.39821  0.90589  1.0000
  S   S106      1.0  0.29592  0.50709  0.51779  1.0000
  H   H662      1.0  0.33740  0.49449  0.61304  1.0000
  H   H663      1.0  0.14032  0.47802  0.92368  1.0000
  H   H664      1.0  0.40753  0.45497  0.60468  1.0000
  C   C848      1.0  0.12531  0.50059  0.94292  1.0000
  H   H665      1.0  0.19786  0.44011  0.96836  1.0000
  S   S107      1.0  0.16659  0.48119  0.98480  1.0000
  H   H666      1.0  0.18439  0.40434  0.81249  1.0000
  C   C849      1.0  0.19608  0.42563  0.96545  1.0000
  C   C850      1.0  0.27407  0.41352  0.89601  1.0000
  C   C851      1.0  0.15988  0.44595  0.72022  1.0000
  H   H667      1.0  0.41592  0.43396  0.71433  1.0000
  C   C852      1.0  0.21990  0.42235  0.69637  1.0000
  C   C853      1.0  0.13337  0.57205  0.93672  1.0000
  H   H668      1.0  0.38229  0.54454  0.52723  1.0000
  C   C854      1.0  0.10053  0.41054  0.92968  1.0000
  Fe  Fe53      1.0  0.32736  0.50443  0.51380  1.0000
  H   H669      1.0  0.16293  0.45860  0.89641  1.0000
  H   H670      1.0  0.15266  0.40839  0.94512  1.0000
  H   H671      1.0  0.02441  0.58566  0.95342  1.0000
  H   H672      1.0  0.47107  0.45062  0.73739  1.0000
  C   C855      1.0  0.40266  0.40818  0.61238  1.0000
  H   H673      1.0  0.37452  0.41577  0.66699  1.0000
  C   C856      1.0  0.41523  0.43423  0.54250  1.0000
  S   S108      1.0  0.35025  0.52310  0.52387  1.0000
  C   C857      1.0  0.24734  0.47737  0.52147  1.0000
  H   H674      1.0  0.35644  0.43745  0.62403  1.0000
  C   C858      1.0  0.19567  0.40987  0.87579  1.0000
  C   C859      1.0  0.37520  0.57294  0.51395  1.0000
  C   C860      1.0  0.35899  0.48551  0.58414  1.0000
  H   H675      1.0  0.35944  0.49892  0.57280  1.0000
  H   H676      1.0  0.33606  0.46382  0.63879  1.0000
  H   H677      1.0  0.48919  0.40836  0.69309  1.0000
  C   C861      1.0  0.10869  0.49174  0.98575  1.0000
  C   C862      1.0  0.39938  0.42673  0.60284  1.0000
  C   C863      1.0  0.34585  0.46573  0.62132  1.0000
  C   C864      1.0  0.37156  0.55396  0.51954  1.0000
  H   H678      1.0  0.01005  0.55270  0.97997  1.0000
  C   C865      1.0  0.41637  0.40356  0.63018  1.0000
  C   C866      1.0  0.20316  0.39877  0.93956  1.0000
  H   H679      1.0  0.32698  0.55445  0.50247  1.0000
  C   C867      1.0  0.38885  0.39417  0.69030  1.0000
  C   C868      1.0  0.42491  0.43799  0.51751  1.0000
  C   C869      1.0  0.24791  0.39923  0.87999  1.0000
  C   C870      1.0  0.03800  0.59010  0.95708  1.0000
  H   H680      1.0  0.27218  0.40769  0.85490  1.0000
  C   C871      1.0  0.34044  0.55947  0.50555  1.0000
  Fe  Fe54      1.0  0.23175  0.39884  0.76719  1.0000
  C   C872      1.0  0.18970  0.40093  0.83190  1.0000
  H   H681      1.0  0.16562  0.55770  0.00011  1.0000
  H   H682      1.0  0.14352  0.58183  0.94073  1.0000
  H   H683      1.0  0.11068  0.46268  0.99904  1.0000
  C   C873      1.0  0.49446  0.39809  0.65400  1.0000
  Fe  Fe55      1.0  0.41015  0.65540  0.45832  1.0000
  S   S109      1.0  0.41023  0.67135  0.41820  1.0000
  Fe  Fe56      1.0  0.41664  0.63678  0.28468  1.0000
  S   S110      1.0  0.41795  0.62061  0.24865  1.0000
  S   S111      1.0  0.42871  0.62247  0.32072  1.0000
  Fe  Fe57      1.0  0.39761  0.67026  0.25693  1.0000
  S   S112      1.0  0.39740  0.65629  0.21838  1.0000
  S   S113      1.0  0.38476  0.69843  0.26655  1.0000
  Fe  Fe58      1.0  0.38819  0.63095  0.24465  1.0000
  C   C874      1.0  0.37300  0.60511  0.31424  1.0000
  Fe  Fe59      1.0  0.42707  0.64719  0.22664  1.0000
  S   S114      1.0  0.45170  0.64781  0.19531  1.0000
  S   S115      1.0  0.38663  0.64561  0.28258  1.0000
  S   S116      1.0  0.42761  0.66278  0.26325  1.0000
  C   C875      1.0  0.02349  0.74669  0.08524  1.0000
  H   H684      1.0  0.48719  0.70301  0.27121  1.0000
  Fe  Fe60      1.0  0.07631  0.66160  0.03268  1.0000
  S   S117      1.0  0.06540  0.67152  0.07227  1.0000
  H   H685      1.0  0.16553  0.59895  0.05086  1.0000
  H   H686      1.0  0.01140  0.66127  0.08202  1.0000
  Fe  Fe61      1.0  0.05975  0.64601  0.26304  1.0000
  S   S118      1.0  0.05331  0.65660  0.22181  1.0000
  S   S119      1.0  0.03576  0.64133  0.29495  1.0000
  Fe  Fe62      1.0  0.10245  0.64455  0.24840  1.0000
  S   S120      1.0  0.09814  0.65582  0.20632  1.0000
  S   S121      1.0  0.13375  0.64068  0.25369  1.0000
  Fe  Fe63      1.0  0.07672  0.67583  0.22394  1.0000
  S   S122      1.0  0.07178  0.70560  0.20673  1.0000
  Fe  Fe64      1.0  0.07544  0.63567  0.20853  1.0000
  S   S123      1.0  0.07412  0.61714  0.17480  1.0000
  S   S124      1.0  0.08230  0.66631  0.26622  1.0000
  S   S125      1.0  0.08049  0.62335  0.24968  1.0000
  C   C876      1.0  0.01107  0.64240  0.29367  1.0000
  C   C877      1.0  0.16824  0.62296  0.25702  1.0000
  H   H687      1.0  0.35280  0.72080  0.49669  1.0000
  C   C878      1.0  0.02106  0.66500  0.12042  1.0000
  H   H688      1.0  0.00739  0.63197  0.33495  1.0000
  C   C879      1.0  0.10113  0.75583  0.23157  1.0000
  C   C880      1.0  0.08717  0.75821  0.21375  1.0000
  C   C881      1.0  0.07822  0.74269  0.20659  1.0000
  C   C882      1.0  0.08293  0.72473  0.21729  1.0000
  C   C883      1.0  0.09641  0.72243  0.23577  1.0000
  C   C884      1.0  0.10561  0.73790  0.24266  1.0000
  H   H689      1.0  0.08355  0.77193  0.20507  1.0000
  H   H690      1.0  0.06763  0.74462  0.19269  1.0000
  H   H691      1.0  0.09978  0.70872  0.24466  1.0000
  H   H692      1.0  0.11619  0.73599  0.25677  1.0000
  C   C885      1.0  0.06851  0.65588  0.09998  1.0000
  C   C886      1.0  0.06582  0.66253  0.12539  1.0000
  C   C887      1.0  0.06785  0.65057  0.14817  1.0000
  C   C888      1.0  0.07208  0.63175  0.14578  1.0000
  C   C889      1.0  0.07478  0.62491  0.12037  1.0000
  C   C890      1.0  0.07323  0.63706  0.09734  1.0000
  H   H693      1.0  0.06208  0.67697  0.12764  1.0000
  H   H694      1.0  0.06595  0.65600  0.16761  1.0000
  H   H695      1.0  0.07811  0.61032  0.11852  1.0000
  H   H696      1.0  0.07538  0.63184  0.07771  1.0000
  H   H697      1.0  0.43809  0.69973  0.22881  1.0000
  H   H698      1.0  0.37117  0.76710  0.31183  1.0000
  C   C891      1.0  0.14889  0.62069  0.25893  1.0000
  C   C892      1.0  0.39951  0.74830  0.49580  1.0000
  C   C893      1.0  0.30894  0.66252  0.41419  1.0000
  H   H699      1.0  0.03772  0.61544  0.10342  1.0000
  H   H700      1.0  0.07762  0.70161  0.09815  1.0000
  H   H701      1.0  0.35142  0.68698  0.49289  1.0000
  C   C894      1.0  0.33151  0.62201  0.24233  1.0000
  H   H702      1.0  0.47440  0.69366  0.31718  1.0000
  H   H703      1.0  0.01263  0.63684  0.17697  1.0000
  H   H704      1.0  0.33716  0.63565  0.24078  1.0000
  C   C895      1.0  0.39375  0.71899  0.25028  1.0000
  C   C896      1.0  0.39288  0.73516  0.26415  1.0000
  C   C897      1.0  0.39888  0.75202  0.25126  1.0000
  C   C898      1.0  0.40519  0.75301  0.22414  1.0000
  C   C899      1.0  0.40623  0.73683  0.21029  1.0000
  C   C900      1.0  0.40063  0.71983  0.22338  1.0000
  H   H705      1.0  0.38762  0.73467  0.28496  1.0000
  H   H706      1.0  0.39826  0.76438  0.26219  1.0000
  H   H707      1.0  0.41116  0.73747  0.18932  1.0000
  H   H708      1.0  0.40096  0.70754  0.21241  1.0000
  C   C901      1.0  0.48063  0.63201  0.50009  1.0000
  H   H709      1.0  0.45745  0.65139  0.31024  1.0000
  S   S126      1.0  0.27962  0.60107  0.24571  1.0000
  C   C902      1.0  0.41496  0.65751  0.39130  1.0000
  C   C903      1.0  0.41183  0.66493  0.36541  1.0000
  C   C904      1.0  0.41569  0.65403  0.34362  1.0000
  C   C905      1.0  0.42280  0.63581  0.34779  1.0000
  C   C906      1.0  0.42587  0.62839  0.37362  1.0000
  C   C907      1.0  0.42204  0.63928  0.39537  1.0000
  H   H710      1.0  0.40638  0.67907  0.36222  1.0000
  H   H711      1.0  0.41334  0.65982  0.32362  1.0000
  H   H712      1.0  0.43147  0.61434  0.37671  1.0000
  H   H713      1.0  0.42497  0.63367  0.41512  1.0000
  C   C908      1.0  0.46044  0.75781  0.19765  1.0000
  C   C909      1.0  0.17213  0.70701  0.16482  1.0000
  H   H714      1.0  0.34733  0.71716  0.24128  1.0000
  C   C910      1.0  0.12470  0.61069  0.14764  1.0000
  C   C911      1.0  0.33996  0.78530  0.39701  1.0000
  C   C912      1.0  0.00045  0.63675  0.31723  1.0000
  C   C913      1.0  0.36111  0.75853  0.40436  1.0000
  C   C914      1.0  0.15859  0.61241  0.05297  1.0000
  H   H715      1.0  0.42453  0.68330  0.19476  1.0000
  C   C915      1.0  0.20112  0.71565  0.13992  1.0000
  H   H716      1.0  0.30290  0.63238  0.24261  1.0000
  C   C916      1.0  0.47249  0.64585  0.34553  1.0000
  H   H717      1.0  0.48401  0.64293  0.16030  1.0000
  C   C917      1.0  0.48974  0.60142  0.15687  1.0000
  H   H718      1.0  0.02793  0.65282  0.01645  1.0000
  H   H719      1.0  0.30593  0.67055  0.43149  1.0000
  H   H720      1.0  0.00521  0.77384  0.32529  1.0000
  C   C918      1.0  0.02882  0.76748  0.20405  1.0000
  Fe  Fe65      1.0  0.39045  0.62726  0.49857  1.0000
  C   C919      1.0  0.46675  0.66464  0.41604  1.0000
  C   C920      1.0  0.04753  0.74000  0.26935  1.0000
  H   H721      1.0  0.45328  0.60178  0.45997  1.0000
  S   S127      1.0  0.36487  0.60961  0.49778  1.0000
  C   C921      1.0  0.47592  0.69334  0.43201  1.0000
  H   H722      1.0  0.02927  0.66490  0.16062  1.0000
  H   H723      1.0  0.02334  0.75447  0.04290  1.0000
  C   C922      1.0  0.03414  0.60809  0.03799  1.0000
  C   C923      1.0  0.21050  0.70066  0.15297  1.0000
  H   H724      1.0  0.12750  0.67951  0.26146  1.0000
  C   C924      1.0  0.02807  0.74006  0.27135  1.0000
  H   H725      1.0  0.39953  0.70245  0.48313  1.0000
  C   C925      1.0  0.45145  0.75107  0.48556  1.0000
  C   C926      1.0  0.35588  0.77474  0.27728  1.0000
  C   C927      1.0  0.99885  0.64712  0.02490  1.0000
  H   H726      1.0  0.47256  0.62818  0.44403  1.0000
  H   H727      1.0  0.43865  0.71075  0.46345  1.0000
  H   H728      1.0  0.10784  0.70704  0.17090  1.0000
  C   C928      1.0  0.47290  0.75821  0.41158  1.0000
  C   C929      1.0  0.18086  0.60780  0.26220  1.0000
  H   H729      1.0  0.47831  0.72252  0.16809  1.0000
  H   H730      1.0  0.02880  0.67708  0.11322  1.0000
  C   C930      1.0  0.01620  0.69211  0.19559  1.0000
  H   H731      1.0  0.03852  0.74523  0.08413  1.0000
  H   H732      1.0  0.47270  0.78786  0.25382  1.0000
  C   C931      1.0  0.34431  0.76310  0.21971  1.0000
  C   C932      1.0  0.46152  0.71696  0.25942  1.0000
  C   C933      1.0  0.01854  0.70722  0.02820  1.0000
  C   C934      1.0  0.45308  0.71278  0.49888  1.0000
  C   C935      1.0  0.36054  0.77638  0.30340  1.0000
  H   H733      1.0  0.38316  0.76263  0.42970  1.0000
  H   H734      1.0  0.15930  0.72796  0.26337  1.0000
  H   H735      1.0  0.41418  0.59639  0.41559  1.0000
  H   H736      1.0  0.03710  0.63262  0.05887  1.0000
  H   H737      1.0  0.45008  0.76591  0.48085  1.0000
  C   C936      1.0  0.34562  0.76696  0.39236  1.0000
  C   C937      1.0  0.44330  0.69378  0.16230  1.0000
  C   C938      1.0  0.45847  0.70483  0.15485  1.0000
  H   H738      1.0  0.33790  0.75948  0.37945  1.0000
  H   H739      1.0  0.40021  0.73392  0.45969  1.0000
  H   H740      1.0  0.06656  0.78022  0.11366  1.0000
  C   C939      1.0  0.45874  0.77718  0.19421  1.0000
  H   H741      1.0  0.42142  0.71953  0.30025  1.0000
  H   H742      1.0  0.43748  0.68601  0.14765  1.0000
  H   H743      1.0  0.43754  0.74467  0.45137  1.0000
  H   H744      1.0  0.43304  0.70831  0.40120  1.0000
  C   C940      1.0  0.01415  0.77273  0.15419  1.0000
  H   H745      1.0  0.22532  0.69821  0.14842  1.0000
  C   C941      1.0  0.36284  0.70060  0.42743  1.0000
  H   H746      1.0  0.37915  0.59993  0.29567  1.0000
  C   C942      1.0  0.46567  0.70146  0.30338  1.0000
  C   C943      1.0  0.48919  0.75748  0.42501  1.0000
  P   P31       1.0  0.32271  0.62760  0.34152  1.0000
  C   C944      1.0  0.31910  0.64376  0.31297  1.0000
  C   C945      1.0  0.31715  0.64113  0.37007  1.0000
  C   C946      1.0  0.30055  0.63878  0.38641  1.0000
  C   C947      1.0  0.29657  0.64934  0.40852  1.0000
  C   C948      1.0  0.32917  0.65489  0.37533  1.0000
  C   C949      1.0  0.33403  0.65364  0.30015  1.0000
  C   C950      1.0  0.33123  0.66641  0.27834  1.0000
  C   C951      1.0  0.31345  0.66958  0.26937  1.0000
  C   C952      1.0  0.29842  0.66021  0.28252  1.0000
  C   C953      1.0  0.30118  0.64748  0.30442  1.0000
  C   C954      1.0  0.34657  0.61895  0.33978  1.0000
  C   C955      1.0  0.35455  0.61200  0.31596  1.0000
  H   H747      1.0  0.99832  0.65089  0.04531  1.0000
  H   H748      1.0  0.17304  0.62452  0.01705  1.0000
  H   H749      1.0  0.99557  0.59699  0.09692  1.0000
  C   C956      1.0  0.35724  0.61875  0.36196  1.0000
  H   H750      1.0  0.11099  0.60743  0.14271  1.0000
  H   H751      1.0  0.30501  0.60983  0.29969  1.0000
  H   H752      1.0  0.29060  0.62893  0.38209  1.0000
  H   H753      1.0  0.28387  0.64729  0.42129  1.0000
  H   H754      1.0  0.34177  0.65734  0.36248  1.0000
  H   H755      1.0  0.34788  0.65150  0.30690  1.0000
  H   H756      1.0  0.34295  0.67366  0.26824  1.0000
  H   H757      1.0  0.31135  0.67920  0.25214  1.0000
  H   H758      1.0  0.28463  0.66257  0.27551  1.0000
  H   H759      1.0  0.28937  0.64037  0.31442  1.0000
  H   H760      1.0  0.34655  0.61194  0.29864  1.0000
  H   H761      1.0  0.11989  0.77505  0.17581  1.0000
  C   C957      1.0  0.48539  0.66006  0.40808  1.0000
  H   H762      1.0  0.11819  0.77937  0.12641  1.0000
  H   H763      1.0  0.35139  0.62353  0.38085  1.0000
  C   C958      1.0  0.12500  0.76408  0.16318  1.0000
  C   C959      1.0  0.13035  0.75227  0.11934  1.0000
  H   H764      1.0  0.17511  0.73071  0.13579  1.0000
  H   H765      1.0  0.39806  0.60037  0.33460  1.0000
  H   H766      1.0  0.42272  0.60854  0.19204  1.0000
  C   C960      1.0  0.13221  0.74735  0.17487  1.0000
  C   C961      1.0  0.99883  0.68592  0.19092  1.0000
  C   C962      1.0  0.42419  0.71960  0.39326  1.0000
  H   H767      1.0  0.16119  0.73214  0.21399  1.0000
  C   C963      1.0  0.15274  0.71829  0.25209  1.0000
  H   H768      1.0  0.47216  0.65101  0.24368  1.0000
  C   C964      1.0  0.47109  0.76002  0.24170  1.0000
  C   C965      1.0  0.00201  0.63985  0.11173  1.0000
  H   H769      1.0  0.48961  0.68915  0.21271  1.0000
  C   C966      1.0  0.35628  0.71641  0.32776  1.0000
  H   H770      1.0  0.03783  0.71067  0.18258  1.0000
  H   H771      1.0  0.43425  0.72994  0.25473  1.0000
  C   C967      1.0  0.35767  0.72858  0.20238  1.0000
  C   C968      1.0  0.30886  0.60735  0.34220  1.0000
  S   S128      1.0  0.38434  0.65737  0.48573  1.0000
  H   H772      1.0  0.45625  0.74987  0.18202  1.0000
  C   C969      1.0  0.02409  0.70659  0.17905  1.0000
  H   H773      1.0  0.15845  0.67673  0.14536  1.0000
  C   C970      1.0  0.01201  0.64208  0.15622  1.0000
  H   H774      1.0  0.39975  0.70951  0.41571  1.0000
  C   C971      1.0  0.02134  0.75506  0.16274  1.0000
  C   C972      1.0  0.40095  0.74813  0.37227  1.0000
  C   C973      1.0  0.44440  0.73907  0.46884  1.0000
  P   P32       1.0  0.02373  0.73642  0.14031  1.0000
  C   C974      1.0  0.01401  0.78748  0.17068  1.0000
  C   C975      1.0  0.14497  0.61528  0.07401  1.0000
  H   H775      1.0  0.36330  0.71472  0.30816  1.0000
  C   C976      1.0  0.34853  0.72962  0.22787  1.0000
  C   C977      1.0  0.47286  0.60702  0.38561  1.0000
  S   S129      1.0  0.41518  0.62491  0.46855  1.0000
  Fe  Fe66      1.0  0.43192  0.63440  0.50046  1.0000
  C   C978      1.0  0.12410  0.76655  0.13543  1.0000
  C   C979      1.0  0.44310  0.72190  0.26816  1.0000
  H   H776      1.0  0.39207  0.75917  0.36380  1.0000
  H   H777      1.0  0.10557  0.65809  0.12845  1.0000
  C   C980      1.0  0.14064  0.60670  0.13070  1.0000
  C   C981      1.0  0.32516  0.66540  0.39747  1.0000
  C   C982      1.0  0.33810  0.71063  0.33346  1.0000
  C   C983      1.0  0.16306  0.62696  0.03385  1.0000
  H   H778      1.0  0.00708  0.72783  0.31818  1.0000
  C   C984      1.0  0.13648  0.77402  0.02509  1.0000
  C   C985      1.0  0.44378  0.70164  0.20826  1.0000
  H   H779      1.0  0.08965  0.68459  0.15118  1.0000
  H   H780      1.0  0.13355  0.66088  0.05813  1.0000
  C   C986      1.0  0.35439  0.69616  0.47508  1.0000
  H   H781      1.0  0.03424  0.61569  0.01856  1.0000
  C   C987      1.0  0.02134  0.65811  0.14711  1.0000
  H   H782      1.0  0.13993  0.65423  0.12611  1.0000
  C   C988      1.0  0.49309  0.77212  0.44025  1.0000
  C   C989      1.0  0.31205  0.62010  0.24332  1.0000
  C   C990      1.0  0.45860  0.60333  0.43912  1.0000
  H   H783      1.0  0.13231  0.74571  0.19641  1.0000
  H   H784      1.0  0.20806  0.67734  0.18234  1.0000
  H   H785      1.0  0.11396  0.62216  0.18439  1.0000
  H   H786      1.0  0.09074  0.74842  0.13939  1.0000
  C   C991      1.0  0.46948  0.61836  0.42996  1.0000
  H   H787      1.0  0.10097  0.72170  0.11278  1.0000
  C   C992      1.0  0.14069  0.64741  0.05686  1.0000
  C   C993      1.0  0.44710  0.70587  0.31159  1.0000
  C   C994      1.0  0.30445  0.79325  0.20577  1.0000
  C   C995      1.0  0.47080  0.65175  0.31863  1.0000
  H   H788      1.0  0.15714  0.65549  0.02043  1.0000
  C   C996      1.0  0.48627  0.65813  0.30261  1.0000
  C   C997      1.0  0.02677  0.77306  0.27719  1.0000
  H   H789      1.0  0.46031  0.64130  0.35780  1.0000
  H   H790      1.0  0.00970  0.65322  0.25259  1.0000
  C   C998      1.0  0.13545  0.69352  0.22306  1.0000
  H   H791      1.0  0.20869  0.72485  0.12529  1.0000
  C   C999      1.0  0.13758  0.73553  0.13096  1.0000
  C   C1000     1.0  0.45894  0.71288  0.20093  1.0000
  C   C1001     1.0  0.05416  0.71651  0.11722  1.0000
  H   H792      1.0  0.05325  0.78572  0.27649  1.0000
  H   H793      1.0  0.12522  0.63524  0.09163  1.0000
  H   H794      1.0  0.12750  0.60087  0.26726  1.0000
  H   H795      1.0  0.07162  0.75629  0.27065  1.0000
  H   H796      1.0  0.45580  0.65549  0.41294  1.0000
  H   H797      1.0  0.38430  0.61311  0.37659  1.0000
  S   S130      1.0  0.10587  0.66386  0.01563  1.0000
  H   H798      1.0  0.33473  0.67567  0.40175  1.0000
  C   C1002     1.0  0.33823  0.72034  0.37849  1.0000
  H   H799      1.0  0.19565  0.60988  0.26111  1.0000
  C   C1003     1.0  0.43594  0.69228  0.18893  1.0000
  C   C1004     1.0  0.34256  0.78703  0.26589  1.0000
  H   H800      1.0  0.37976  0.72801  0.34254  1.0000
  C   C1005     1.0  0.10469  0.68302  0.14948  1.0000
  C   C1006     1.0  0.11365  0.66810  0.13688  1.0000
  H   H801      1.0  0.14464  0.63116  0.19632  1.0000
  H   H802      1.0  0.44763  0.68437  0.43460  1.0000
  C   C1007     1.0  0.13602  0.63287  0.07582  1.0000
  C   C1008     1.0  0.02153  0.78491  0.19547  1.0000
  C   C1009     1.0  0.30224  0.60189  0.31863  1.0000
  C   C1010     1.0  0.14934  0.77802  0.04292  1.0000
  H   H803      1.0  0.31497  0.70811  0.36326  1.0000
  H   H804      1.0  0.12213  0.77176  0.03233  1.0000
  C   C1011     1.0  0.43163  0.73330  0.37480  1.0000
  C   C1012     1.0  0.39335  0.73433  0.39055  1.0000
  H   H805      1.0  0.14213  0.72448  0.11825  1.0000
  P   P33       1.0  0.14751  0.71087  0.17324  1.0000
  H   H806      1.0  0.47566  0.75358  0.26036  1.0000
  C   C1013     1.0  0.18169  0.69207  0.17801  1.0000
  H   H807      1.0  0.99578  0.69716  0.33556  1.0000
  H   H808      1.0  0.46977  0.74677  0.40026  1.0000
  C   C1014     1.0  0.02040  0.70303  0.05552  1.0000
  C   C1015     1.0  0.34158  0.74675  0.23635  1.0000
  C   C1016     1.0  0.99560  0.75396  0.06215  1.0000
  C   C1017     1.0  0.35965  0.74464  0.18522  1.0000
  H   H809      1.0  0.01906  0.78616  0.27928  1.0000
  C   C1018     1.0  0.46206  0.68117  0.42814  1.0000
  C   C1019     1.0  0.13303  0.66592  0.13559  1.0000
  C   C1020     1.0  0.38369  0.60543  0.33612  1.0000
  H   H810      1.0  0.17352  0.63664  0.25197  1.0000
  C   C1021     1.0  0.39967  0.73242  0.48132  1.0000
  H   H811      1.0  0.45566  0.60943  0.20140  1.0000
  C   C1022     1.0  0.46696  0.74908  0.22126  1.0000
  C   C1023     1.0  0.20079  0.68889  0.17204  1.0000
  C   C1024     1.0  0.30433  0.60249  0.24494  1.0000
  H   H812      1.0  0.49128  0.61749  0.30222  1.0000
  H   H813      1.0  0.02134  0.72729  0.26904  1.0000
  H   H814      1.0  0.36641  0.69458  0.40848  1.0000
  H   H815      1.0  0.33110  0.72171  0.39813  1.0000
  C   C1025     1.0  0.05742  0.79195  0.11873  1.0000
  C   C1026     1.0  0.01133  0.65596  0.10278  1.0000
  S   S131      1.0  0.41119  0.77444  0.20716  1.0000
  C   C1027     1.0  0.36335  0.71984  0.42930  1.0000
  C   C1028     1.0  0.01435  0.71570  0.15840  1.0000
  H   H816      1.0  0.18191  0.60384  0.20707  1.0000
  H   H817      1.0  0.30725  0.59976  0.44754  1.0000
  H   H818      1.0  0.44632  0.73275  0.36839  1.0000
  C   C1029     1.0  0.46630  0.71430  0.17407  1.0000
  H   H819      1.0  0.33114  0.70445  0.31824  1.0000
  C   C1030     1.0  0.35281  0.76182  0.19369  1.0000
  H   H820      1.0  0.49330  0.61700  0.11860  1.0000
  H   H821      1.0  0.05768  0.75550  0.15018  1.0000
  C   C1031     1.0  0.04620  0.77292  0.27532  1.0000
  H   H822      1.0  0.36349  0.71536  0.19613  1.0000
  S   S132      1.0  0.42879  0.66468  0.48752  1.0000
  C   C1032     1.0  0.48972  0.64605  0.35654  1.0000
  C   C1033     1.0  0.36557  0.72401  0.34741  1.0000
  H   H823      1.0  0.03402  0.69921  0.06239  1.0000
  C   C1034     1.0  0.37100  0.76880  0.42056  1.0000
  H   H824      1.0  0.46437  0.70577  0.13428  1.0000
  C   C1035     1.0  0.08057  0.73967  0.13277  1.0000
  H   H825      1.0  0.42564  0.75838  0.35016  1.0000
  C   C1036     1.0  0.14465  0.70857  0.20940  1.0000
  C   C1037     1.0  0.44508  0.71997  0.47561  1.0000
  H   H826      1.0  0.27122  0.78099  0.26875  1.0000
  C   C1038     1.0  0.11506  0.69572  0.16083  1.0000
  C   C1039     1.0  0.47286  0.70682  0.27730  1.0000
  C   C1040     1.0  0.46952  0.77939  0.23807  1.0000
  C   C1041     1.0  0.14330  0.70347  0.26553  1.0000
  H   H827      1.0  0.03454  0.73941  0.19529  1.0000
  S   S133      1.0  0.11398  0.77469  0.23919  1.0000
  C   C1042     1.0  0.42001  0.74765  0.36445  1.0000
  P   P34       1.0  0.33677  0.78537  0.23186  1.0000
  H   H828      1.0  0.02367  0.68565  0.21198  1.0000
  C   C1043     1.0  0.14348  0.67868  0.14676  1.0000
  C   C1044     1.0  0.01271  0.74348  0.10969  1.0000
  H   H829      1.0  0.17275  0.62568  0.16547  1.0000
  H   H830      1.0  0.17026  0.61048  0.12360  1.0000
  H   H831      1.0  0.03148  0.60953  0.16195  1.0000
  C   C1045     1.0  0.13453  0.69369  0.15948  1.0000
  P   P35       1.0  0.36856  0.73478  0.39932  1.0000
  H   H832      1.0  0.17436  0.68285  0.19294  1.0000
  C   C1046     1.0  0.13875  0.73299  0.15882  1.0000
  C   C1047     1.0  0.01754  0.75647  0.27627  1.0000
  C   C1048     1.0  0.47648  0.62046  0.40303  1.0000
  H   H833      1.0  0.04414  0.70743  0.11095  1.0000
  C   C1049     1.0  0.00095  0.71191  0.01883  1.0000
  H   H834      1.0  0.46719  0.65747  0.48524  1.0000
  C   C1050     1.0  0.49009  0.61075  0.28397  1.0000
  C   C1051     1.0  0.01557  0.64823  0.00858  1.0000
  H   H835      1.0  0.12890  0.68353  0.21239  1.0000
  C   C1052     1.0  0.39932  0.71454  0.49457  1.0000
  C   C1053     1.0  0.08630  0.72459  0.11796  1.0000
  C   C1054     1.0  0.02843  0.75256  0.18810  1.0000
  C   C1055     1.0  0.06165  0.74343  0.13932  1.0000
  C   C1056     1.0  0.15937  0.62133  0.16058  1.0000
  C   C1057     1.0  0.00172  0.64867  0.27088  1.0000
  C   C1058     1.0  0.03576  0.61769  0.06076  1.0000
  C   C1059     1.0  0.15792  0.61254  0.13704  1.0000
  H   H836      1.0  0.36004  0.74175  0.45680  1.0000
  H   H837      1.0  0.03512  0.76558  0.22290  1.0000
  P   P36       1.0  0.47029  0.72413  0.22565  1.0000
  H   H838      1.0  0.31203  0.59922  0.38399  1.0000
  C   C1060     1.0  0.40516  0.72019  0.40128  1.0000
  C   C1061     1.0  0.43585  0.71616  0.29400  1.0000
  H   H839      1.0  0.44137  0.70122  0.33150  1.0000
  C   C1062     1.0  0.48212  0.64878  0.22685  1.0000
  C   C1063     1.0  0.13475  0.69106  0.25101  1.0000
  C   C1064     1.0  0.47568  0.64694  0.20156  1.0000
  H   H840      1.0  0.44821  0.77458  0.40176  1.0000
  H   H841      1.0  0.14256  0.70155  0.28720  1.0000
  C   C1065     1.0  0.48873  0.64404  0.17996  1.0000
  C   C1066     1.0  0.31189  0.78758  0.23019  1.0000
  C   C1067     1.0  0.12626  0.61934  0.17125  1.0000
  C   C1068     1.0  0.35510  0.71524  0.47720  1.0000
  C   C1069     1.0  0.18200  0.71888  0.14585  1.0000
  C   C1070     1.0  0.03607  0.60802  0.08587  1.0000
  C   C1071     1.0  0.35813  0.68887  0.45015  1.0000
  C   C1072     1.0  0.07310  0.71317  0.10990  1.0000
  C   C1073     1.0  0.14357  0.62450  0.17789  1.0000
  S   S134      1.0  0.39953  0.77040  0.47783  1.0000
  C   C1074     1.0  0.48019  0.65057  0.48997  1.0000
  C   C1075     1.0  0.05657  0.75636  0.27179  1.0000
  C   C1076     1.0  0.46078  0.77386  0.41233  1.0000
  C   C1077     1.0  0.35942  0.72709  0.45441  1.0000
  H   H842      1.0  0.35449  0.77403  0.18000  1.0000
  C   C1078     1.0  0.32905  0.71266  0.35880  1.0000
  H   H843      1.0  0.47851  0.60806  0.36493  1.0000
  H   H844      1.0  0.05565  0.72728  0.26579  1.0000
  C   C1079     1.0  0.36523  0.78702  0.42539  1.0000
  C   C1080     1.0  0.04829  0.73165  0.13212  1.0000
  H   H845      1.0  0.36313  0.76422  0.26583  1.0000
  C   C1081     1.0  0.15357  0.72074  0.22413  1.0000
  H   H846      1.0  0.35796  0.67402  0.44855  1.0000
  C   C1082     1.0  0.35665  0.72588  0.37305  1.0000
  H   H847      1.0  0.12933  0.75413  0.09788  1.0000
  C   C1083     1.0  0.99722  0.70877  0.15311  1.0000
  C   C1084     1.0  0.15407  0.64442  0.03573  1.0000
  H   H848      1.0  0.33464  0.74730  0.25623  1.0000
  C   C1085     1.0  0.14231  0.60290  0.26565  1.0000
  C   C1086     1.0  0.48111  0.78802  0.44021  1.0000
  S   S135      1.0  0.07319  0.63320  0.01911  1.0000
  H   H849      1.0  0.47237  0.70606  0.44153  1.0000
  S   S136      1.0  0.36835  0.60778  0.23906  1.0000
  H   H850      1.0  0.45323  0.78381  0.17626  1.0000
  C   C1087     1.0  0.16756  0.78200  0.03339  1.0000
  C   C1088     1.0  0.37587  0.61244  0.35985  1.0000
  H   H851      1.0  0.03092  0.70644  0.01461  1.0000
  C   C1089     1.0  0.34359  0.60628  0.24238  1.0000
  H   H852      1.0  0.14497  0.77872  0.06399  1.0000
  H   H853      1.0  0.00623  0.70063  0.09496  1.0000
  H   H854      1.0  0.00903  0.77534  0.13463  1.0000
  C   C1090     1.0  0.46342  0.78796  0.21431  1.0000
  C   C1091     1.0  0.00253  0.63260  0.13850  1.0000
  H   H855      1.0  0.36686  0.74383  0.16552  1.0000
  H   H856      1.0  0.47478  0.60321  0.15751  1.0000
  C   C1092     1.0  0.01495  0.75201  0.06166  1.0000
  C   C1093     1.0  0.00477  0.70368  0.07380  1.0000
  H   H857      1.0  0.48488  0.66284  0.28185  1.0000
  P   P37       1.0  0.49156  0.63912  0.39159  1.0000
  C   C1094     1.0  0.17300  0.78179  0.00604  1.0000
  H   H858      1.0  0.03806  0.78696  0.09033  1.0000
  C   C1095     1.0  0.29980  0.78275  0.25277  1.0000
  H   H859      1.0  0.46097  0.60580  0.29271  1.0000
  H   H860      1.0  0.25827  0.79231  0.22593  1.0000
  C   C1096     1.0  0.27320  0.79082  0.22708  1.0000
  H   H861      1.0  0.48151  0.77757  0.49414  1.0000
  C   C1097     1.0  0.28052  0.78453  0.25124  1.0000
  H   H862      1.0  0.30523  0.77762  0.27153  1.0000
  C   C1098     1.0  0.47303  0.60417  0.27859  1.0000
  H   H863      1.0  0.38831  0.59607  0.45120  1.0000
  H   H864      1.0  0.99844  0.60183  0.02325  1.0000
  H   H865      1.0  0.11257  0.60574  0.05695  1.0000
  C   C1099     1.0  0.30621  0.59582  0.36592  1.0000
  H   H866      1.0  0.17730  0.78571  0.04715  1.0000
  H   H867      1.0  0.21072  0.59587  0.17912  1.0000
  H   H868      1.0  0.39847  0.78878  0.39029  1.0000
  C   C1100     1.0  0.49446  0.68903  0.42368  1.0000
  C   C1101     1.0  0.49470  0.71760  0.21999  1.0000
  S   S137      1.0  0.43028  0.79309  0.26837  1.0000
  H   H869      1.0  0.26796  0.59494  0.17463  1.0000
  P   P38       1.0  0.13881  0.59692  0.09902  1.0000
  C   C1102     1.0  0.02732  0.59569  0.15920  1.0000
  H   H870      1.0  0.35623  0.79188  0.33820  1.0000
  H   H871      1.0  0.32798  0.79174  0.38779  1.0000
  C   C1103     1.0  0.46508  0.78885  0.42624  1.0000
  S   S138      1.0  0.39983  0.79275  0.33292  1.0000
  C   C1104     1.0  0.44991  0.59627  0.19852  1.0000
  C   C1105     1.0  0.35218  0.79050  0.31822  1.0000
  H   H872      1.0  0.37461  0.79016  0.20745  1.0000
  C   C1106     1.0  0.10636  0.59602  0.07225  1.0000
  C   C1107     1.0  0.43122  0.59577  0.19333  1.0000
  C   C1108     1.0  0.47145  0.59551  0.25500  1.0000
  C   C1109     1.0  0.48689  0.59368  0.23624  1.0000
  H   H873      1.0  0.44423  0.64160  0.56624  1.0000
  H   H874      1.0  0.43173  0.76135  0.62660  1.0000
  S   S139      1.0  0.39724  0.69008  0.53989  1.0000
  H   H875      1.0  0.09446  0.76128  0.99568  1.0000
  C   C1110     1.0  0.06620  0.60539  0.94006  1.0000
  H   H876      1.0  0.07426  0.61282  0.92384  1.0000
  C   C1111     1.0  0.42979  0.74964  0.58887  1.0000
  C   C1112     1.0  0.07281  0.60297  0.96551  1.0000
  S   S140      1.0  0.40748  0.63485  0.53173  1.0000
  H   H877      1.0  0.01030  0.68515  0.95248  1.0000
  H   H878      1.0  0.09788  0.72650  0.99729  1.0000
  C   C1113     1.0  0.49180  0.78569  0.52998  1.0000
  P   P39       1.0  0.16667  0.77800  0.95260  1.0000
  C   C1114     1.0  0.45627  0.73010  0.57342  1.0000
  H   H879      1.0  0.41616  0.75603  0.58577  1.0000
  C   C1115     1.0  0.46056  0.69234  0.55484  1.0000
  C   C1116     1.0  0.03540  0.72211  0.96407  1.0000
  S   S141      1.0  0.09143  0.65038  0.96069  1.0000
  C   C1117     1.0  0.09764  0.76484  0.95254  1.0000
  C   C1118     1.0  0.14191  0.77369  0.99776  1.0000
  C   C1119     1.0  0.46006  0.72478  0.51599  1.0000
  C   C1120     1.0  0.10146  0.72559  0.95435  1.0000
  C   C1121     1.0  0.10228  0.73627  0.92988  1.0000
  C   C1122     1.0  0.10028  0.75563  0.92898  1.0000
  H   H880      1.0  0.46341  0.75360  0.52269  1.0000
  C   C1123     1.0  0.04883  0.59890  0.93583  1.0000
  H   H881      1.0  0.10465  0.72951  0.91136  1.0000
  H   H882      1.0  0.10101  0.76355  0.90976  1.0000
  C   C1124     1.0  0.44881  0.65573  0.56343  1.0000
  H   H883      1.0  0.43231  0.70004  0.56951  1.0000
  C   C1125     1.0  0.49261  0.71747  0.54947  1.0000
  H   H884      1.0  0.16038  0.77107  0.89754  1.0000
  S   S142      1.0  0.03776  0.64166  0.96275  1.0000
  H   H885      1.0  0.01170  0.74617  0.94152  1.0000
  C   C1126     1.0  0.15421  0.74193  0.95401  1.0000
  C   C1127     1.0  0.46696  0.65913  0.55303  1.0000
  C   C1128     1.0  0.01994  0.71096  0.96467  1.0000
  H   H886      1.0  0.46285  0.74651  0.63365  1.0000
  H   H887      1.0  0.22938  0.74987  0.96465  1.0000
  C   C1129     1.0  0.46493  0.73301  0.59668  1.0000
  C   C1130     1.0  0.16032  0.77714  0.98813  1.0000
  C   C1131     1.0  0.15823  0.75830  0.93806  1.0000
  P   P40       1.0  0.46770  0.71601  0.54824  1.0000
  C   C1132     1.0  0.20051  0.78775  0.92515  1.0000
  H   H888      1.0  0.06394  0.72584  0.94943  1.0000
  C   C1133     1.0  0.03857  0.68940  0.93765  1.0000
  C   C1134     1.0  0.45610  0.74426  0.61578  1.0000
  C   C1135     1.0  0.39825  0.71236  0.52256  1.0000
  C   C1136     1.0  0.39772  0.72825  0.53709  1.0000
  C   C1137     1.0  0.39864  0.74615  0.52378  1.0000
  H   H889      1.0  0.03996  0.67646  0.92798  1.0000
  H   H890      1.0  0.14183  0.71522  0.90615  1.0000
  H   H891      1.0  0.39668  0.72668  0.55875  1.0000
  H   H892      1.0  0.39826  0.75827  0.53516  1.0000
  H   H893      1.0  0.48650  0.67960  0.53854  1.0000
  Fe  Fe67      1.0  0.06299  0.64919  0.98256  1.0000
  Fe  Fe68      1.0  0.40325  0.66480  0.51585  1.0000
  C   C1138     1.0  0.43859  0.73841  0.56979  1.0000
  C   C1139     1.0  0.09841  0.73462  0.97825  1.0000
  H   H894      1.0  0.03458  0.73463  0.97469  1.0000
  C   C1140     1.0  0.09662  0.75430  0.97735  1.0000
  C   C1141     1.0  0.00066  0.75219  0.95438  1.0000
  H   H895      1.0  0.00088  0.63288  0.95197  1.0000
  C   C1142     1.0  0.05213  0.71713  0.94991  1.0000
  H   H896      1.0  0.14484  0.71401  0.95485  1.0000
  C   C1143     1.0  0.47269  0.67735  0.54801  1.0000
  C   C1144     1.0  0.15695  0.75873  0.91028  1.0000
  C   C1145     1.0  0.01646  0.64268  0.98244  1.0000
  C   C1146     1.0  0.19157  0.77622  0.94556  1.0000
  Fe  Fe69      1.0  0.09331  0.67751  0.97935  1.0000
  H   H897      1.0  0.06694  0.69671  0.92636  1.0000
  C   C1147     1.0  0.14848  0.72645  0.94241  1.0000
  H   H898      1.0  0.14966  0.74376  0.87743  1.0000
  C   C1148     1.0  0.49376  0.78090  0.50344  1.0000
  C   C1149     1.0  0.43648  0.67056  0.56947  1.0000
  H   H899      1.0  0.08609  0.60835  0.96898  1.0000
  H   H900      1.0  0.24514  0.77093  0.92942  1.0000
  C   C1150     1.0  0.15108  0.74324  0.89877  1.0000
  H   H901      1.0  0.19531  0.75292  0.97465  1.0000
  C   C1151     1.0  0.44231  0.68880  0.56529  1.0000
  C   C1152     1.0  0.22134  0.76055  0.95379  1.0000
  H   H902      1.0  0.45297  0.69795  0.50391  1.0000
  H   H903      1.0  0.47645  0.64759  0.54826  1.0000
  C   C1153     1.0  0.05376  0.70076  0.93674  1.0000
  C   C1154     1.0  0.02172  0.69441  0.95162  1.0000
  C   C1155     1.0  0.43856  0.75261  0.61184  1.0000
  C   C1156     1.0  0.14681  0.72712  0.91485  1.0000
  H   H904      1.0  0.42221  0.66798  0.57681  1.0000
  S   S143      1.0  0.12682  0.61553  0.99790  1.0000
  H   H905      1.0  0.15544  0.74100  0.97538  1.0000
  H   H906      1.0  0.47811  0.78645  0.54063  1.0000
  Fe  Fe70      1.0  0.10190  0.63644  0.99858  1.0000
  S   S144      1.0  0.09554  0.78942  0.94886  1.0000
  C   C1157     1.0  0.20206  0.76237  0.95948  1.0000
  C   C1158     1.0  0.00029  0.63708  0.97224  1.0000
  H   H907      1.0  0.43158  0.73621  0.55217  1.0000
  S   S145      1.0  0.10608  0.70135  0.95320  1.0000
  H   H908      1.0  0.13163  0.77117  0.98403  1.0000
  H   H909      1.0  0.04346  0.60133  0.91631  1.0000
  H   H910      1.0  0.47847  0.72665  0.60018  1.0000
  C   C1159     1.0  0.45909  0.74400  0.50914  1.0000
  H   H911      1.0  0.00086  0.77834  0.93048  1.0000
  C   C1160     1.0  0.23021  0.77238  0.93390  1.0000
  H   H912      1.0  0.01554  0.78822  0.98932  1.0000
  P   P41       1.0  0.99843  0.71744  0.98342  1.0000
  H   H913      1.0  0.49498  0.74232  0.52262  1.0000
  S   S146      1.0  0.45992  0.61987  0.50737  1.0000
  H   H914      1.0  0.13312  0.78832  0.92428  1.0000
  S   S147      1.0  0.06402  0.67731  0.99776  1.0000
  C   C1161     1.0  0.21979  0.78591  0.91951  1.0000
  H   H915      1.0  0.18696  0.78557  0.99893  1.0000
  C   C1162     1.0  0.06204  0.59419  0.98674  1.0000
  P   P42       1.0  0.15617  0.87874  0.08727  1.0000
  C   C1163     1.0  0.36611  0.83545  0.18735  1.0000
  H   H916      1.0  0.04330  0.86519  0.16666  1.0000
  Fe  Fe71      1.0  0.24779  0.93357  0.22088  1.0000
  S   S148      1.0  0.24969  0.90249  0.22044  1.0000
  S   S149      1.0  0.23332  0.95169  0.18733  1.0000
  Fe  Fe72      1.0  0.25631  0.93163  0.28166  1.0000
  S   S150      1.0  0.25671  0.90044  0.28382  1.0000
  S   S151      1.0  0.26459  0.94450  0.32034  1.0000
  Fe  Fe73      1.0  0.27449  0.90238  0.24507  1.0000
  S   S152      1.0  0.29555  0.87751  0.24727  1.0000
  Fe  Fe74      1.0  0.23185  0.90208  0.25917  1.0000
  S   S153      1.0  0.21145  0.87861  0.25880  1.0000
  S   S154      1.0  0.27453  0.93385  0.24263  1.0000
  S   S155      1.0  0.22959  0.93324  0.26002  1.0000
  Fe  Fe75      1.0  0.30270  0.98466  0.46461  1.0000
  H   H917      1.0  0.24349  0.91679  0.36700  1.0000
  Fe  Fe76      1.0  0.42438  0.83062  0.45516  1.0000
  S   S156      1.0  0.43705  0.83780  0.41373  1.0000
  Fe  Fe77      1.0  0.39946  0.83684  0.24805  1.0000
  S   S157      1.0  0.38737  0.80892  0.25900  1.0000
  S   S158      1.0  0.38398  0.86468  0.23939  1.0000
  Fe  Fe78      1.0  0.43969  0.82192  0.25710  1.0000
  H   H918      1.0  0.15535  0.97819  0.09328  1.0000
  S   S159      1.0  0.46881  0.82754  0.26784  1.0000
  H   H919      1.0  0.03946  0.87782  0.21126  1.0000
  H   H920      1.0  0.04211  0.80987  0.05264  1.0000
  Fe  Fe79      1.0  0.40664  0.80636  0.29194  1.0000
  H   H921      1.0  0.11563  0.88983  0.01406  1.0000
  S   S160      1.0  0.42337  0.82598  0.22061  1.0000
  S   S161      1.0  0.41676  0.83509  0.28319  1.0000
  S   S162      1.0  0.09731  0.85082  0.02671  1.0000
  H   H922      1.0  0.39083  0.92118  0.48940  1.0000
  Fe  Fe80      1.0  0.10568  0.82063  0.03365  1.0000
  C   C1164     1.0  0.18181  0.90967  0.17831  1.0000
  C   C1165     1.0  0.34736  0.83726  0.19657  1.0000
  S   S163      1.0  0.09382  0.81700  0.27691  1.0000
  Fe  Fe81      1.0  0.08902  0.83907  0.20582  1.0000
  S   S164      1.0  0.08032  0.85419  0.24216  1.0000
  S   S165      1.0  0.08332  0.85462  0.16682  1.0000
  Fe  Fe82      1.0  0.10747  0.84259  0.25707  1.0000
  S   S166      1.0  0.12476  0.86302  0.27626  1.0000
  Fe  Fe83      1.0  0.06764  0.82740  0.25792  1.0000
  S   S167      1.0  0.03884  0.82495  0.27957  1.0000
  S   S168      1.0  0.11689  0.82898  0.21937  1.0000
  S   S169      1.0  0.07445  0.81299  0.22024  1.0000
  C   C1166     1.0  0.01890  0.82729  0.26112  1.0000
  C   C1167     1.0  0.34786  0.80473  0.21309  1.0000
  H   H923      1.0  0.49340  0.91219  0.28926  1.0000
  C   C1168     1.0  0.17463  0.89513  0.08264  1.0000
  H   H924      1.0  0.32479  0.81158  0.27189  1.0000
  C   C1169     1.0  0.10718  0.82116  0.09825  1.0000
  C   C1170     1.0  0.09179  0.83339  0.09496  1.0000
  C   C1171     1.0  0.08492  0.84422  0.11577  1.0000
  C   C1172     1.0  0.09297  0.84223  0.14025  1.0000
  C   C1173     1.0  0.10819  0.82982  0.14369  1.0000
  C   C1174     1.0  0.11550  0.81952  0.12252  1.0000
  H   H925      1.0  0.08485  0.83417  0.07667  1.0000
  H   H926      1.0  0.07296  0.85360  0.11324  1.0000
  H   H927      1.0  0.11451  0.82835  0.16250  1.0000
  C   C1175     1.0  0.19709  0.87927  0.18635  1.0000
  C   C1176     1.0  0.04148  0.79616  0.10498  1.0000
  H   H928      1.0  0.02594  0.83500  0.13542  1.0000
  C   C1177     1.0  0.15422  0.84425  0.06628  1.0000
  H   H929      1.0  0.48100  0.83103  0.21018  1.0000
  C   C1178     1.0  0.42963  0.82237  0.39202  1.0000
  C   C1179     1.0  0.43556  0.82428  0.36484  1.0000
  C   C1180     1.0  0.42749  0.81399  0.34667  1.0000
  C   C1181     1.0  0.41328  0.80203  0.35570  1.0000
  H   H930      1.0  0.40183  0.96239  0.39412  1.0000
  C   C1182     1.0  0.41716  0.80866  0.40138  1.0000
  H   H931      1.0  0.44602  0.83409  0.35780  1.0000
  H   H932      1.0  0.43198  0.81565  0.32568  1.0000
  H   H933      1.0  0.22819  0.91057  0.15875  1.0000
  H   H934      1.0  0.41348  0.80611  0.42249  1.0000
  H   H935      1.0  0.17596  0.82195  0.30040  1.0000
  H   H936      1.0  0.20305  0.97550  0.10564  1.0000
  C   C1183     1.0  0.28930  0.95539  0.35659  1.0000
  C   C1184     1.0  0.29375  0.96292  0.38057  1.0000
  H   H937      1.0  0.18099  0.87209  0.36102  1.0000
  H   H938      1.0  0.30033  0.95023  0.34287  1.0000
  H   H939      1.0  0.30807  0.96342  0.38507  1.0000
  C   C1185     1.0  0.32019  0.87496  0.24691  1.0000
  C   C1186     1.0  0.32820  0.85769  0.25592  1.0000
  C   C1187     1.0  0.34768  0.85444  0.25437  1.0000
  C   C1188     1.0  0.35940  0.86838  0.24332  1.0000
  C   C1189     1.0  0.35141  0.88574  0.23471  1.0000
  C   C1190     1.0  0.33193  0.88908  0.23667  1.0000
  H   H940      1.0  0.31924  0.84666  0.26375  1.0000
  H   H941      1.0  0.35361  0.84101  0.26098  1.0000
  H   H942      1.0  0.36032  0.89658  0.22598  1.0000
  H   H943      1.0  0.32597  0.90237  0.22945  1.0000
  C   C1191     1.0  0.18695  0.87591  0.26090  1.0000
  C   C1192     1.0  0.17417  0.88871  0.27247  1.0000
  C   C1193     1.0  0.15513  0.88475  0.27647  1.0000
  C   C1194     1.0  0.14851  0.86830  0.26812  1.0000
  C   C1195     1.0  0.16116  0.85597  0.25533  1.0000
  C   C1196     1.0  0.18028  0.85961  0.25220  1.0000
  H   H944      1.0  0.17904  0.90131  0.27926  1.0000
  H   H945      1.0  0.14548  0.89436  0.28647  1.0000
  H   H946      1.0  0.15635  0.84319  0.24906  1.0000
  H   H947      1.0  0.19004  0.84954  0.24347  1.0000
  S   S170      1.0  0.17844  0.98429  0.03989  1.0000
  C   C1197     1.0  0.12879  0.91349  0.16448  1.0000
  H   H948      1.0  0.26518  0.92334  0.49359  1.0000
  C   C1198     1.0  0.23181  0.95439  0.15154  1.0000
  C   C1199     1.0  0.24544  0.94710  0.13328  1.0000
  C   C1200     1.0  0.24409  0.95053  0.10530  1.0000
  H   H949      1.0  0.22665  0.87751  0.17593  1.0000
  C   C1201     1.0  0.16516  0.86912  0.03467  1.0000
  H   H950      1.0  0.12009  0.86588  0.07548  1.0000
  H   H951      1.0  0.37491  0.87116  0.44775  1.0000
  C   C1202     1.0  0.16069  0.94251  0.15445  1.0000
  C   C1203     1.0  0.10076  0.88921  0.07822  1.0000
  C   C1204     1.0  0.09815  0.90795  0.08315  1.0000
  C   C1205     1.0  0.11318  0.91792  0.08919  1.0000
  H   H952      1.0  0.13162  0.86097  0.18027  1.0000
  H   H953      1.0  0.08913  0.88140  0.07362  1.0000
  H   H954      1.0  0.08450  0.91475  0.08212  1.0000
  H   H955      1.0  0.11123  0.93250  0.09270  1.0000
  C   C1206     1.0  0.46005  0.90755  0.43305  1.0000
  H   H956      1.0  0.32402  0.82407  0.21769  1.0000
  H   H957      1.0  0.21582  0.90469  0.10660  1.0000
  P   P43       1.0  0.01038  0.81875  0.09116  1.0000
  H   H958      1.0  0.20670  0.82873  0.31424  1.0000
  H   H959      1.0  0.24111  0.88284  0.37363  1.0000
  H   H960      1.0  0.14778  0.83998  0.31649  1.0000
  H   H961      1.0  0.04416  0.79525  0.00971  1.0000
  H   H962      1.0  0.42222  0.88305  0.25020  1.0000
  C   C1207     1.0  0.24177  0.84104  0.41953  1.0000
  H   H963      1.0  0.15036  0.86510  0.34647  1.0000
  H   H964      1.0  0.00306  0.89705  0.06943  1.0000
  H   H965      1.0  0.34004  0.85070  0.19451  1.0000
  C   C1208     1.0  0.14281  0.85884  0.16490  1.0000
  H   H966      1.0  0.26865  0.94236  0.45040  1.0000
  H   H967      1.0  0.46127  0.91847  0.41708  1.0000
  Fe  Fe84      1.0  0.33409  0.96675  0.49685  1.0000
  H   H968      1.0  0.46186  0.86047  0.44289  1.0000
  C   C1209     1.0  0.48084  0.83661  0.49008  1.0000
  H   H969      1.0  0.44705  0.85852  0.24516  1.0000
  C   C1210     1.0  0.36670  0.80309  0.20388  1.0000
  C   C1211     1.0  0.02209  0.87350  0.07547  1.0000
  C   C1212     1.0  0.02395  0.85426  0.08083  1.0000
  H   H970      1.0  0.16823  0.88516  0.19670  1.0000
  S   S171      1.0  0.14913  0.94709  0.01743  1.0000
  H   H971      1.0  0.14378  0.90165  0.22644  1.0000
  S   S172      1.0  0.39506  0.82246  0.46494  1.0000
  C   C1213     1.0  0.27065  0.95448  0.35031  1.0000
  C   C1214     1.0  0.16122  0.84275  0.32320  1.0000
  S   S173      1.0  0.11604  0.80788  0.07213  1.0000
  C   C1215     1.0  0.20424  0.90585  0.09407  1.0000
  H   H972      1.0  0.14854  0.83917  0.08599  1.0000
  C   C1216     1.0  0.00811  0.84360  0.08485  1.0000
  H   H973      1.0  0.03444  0.88154  0.07155  1.0000
  H   H974      1.0  0.03777  0.84768  0.08087  1.0000
  C   C1217     1.0  0.43669  0.88676  0.24772  1.0000
  H   H975      1.0  0.00898  0.89111  0.22812  1.0000
  C   C1218     1.0  0.44142  0.90529  0.24750  1.0000
  H   H976      1.0  0.37327  0.84743  0.17811  1.0000
  C   C1219     1.0  0.23942  0.84674  0.39272  1.0000
  H   H977      1.0  0.39040  0.81694  0.18426  1.0000
  C   C1220     1.0  0.28578  0.90242  0.48137  1.0000
  H   H978      1.0  0.46370  0.88542  0.40633  1.0000
  H   H979      1.0  0.45759  0.86826  0.49002  1.0000
  C   C1221     1.0  0.16664  0.85699  0.01420  1.0000
  H   H980      1.0  0.00015  0.82087  0.29585  1.0000
  H   H981      1.0  0.20577  0.97028  0.15482  1.0000
  C   C1222     1.0  0.11837  0.89323  0.21261  1.0000
  H   H982      1.0  0.48227  0.92864  0.19575  1.0000
  C   C1223     1.0  0.01444  0.87027  0.15900  1.0000
  C   C1224     1.0  0.21495  0.90491  0.16622  1.0000
  C   C1225     1.0  0.37575  0.81833  0.19090  1.0000
  C   C1226     1.0  0.00443  0.88220  0.07404  1.0000
  H   H983      1.0  0.13731  0.95613  0.26376  1.0000
  H   H984      1.0  0.46835  0.80655  0.31859  1.0000
  H   H985      1.0  0.39531  0.88676  0.49340  1.0000
  C   C1227     1.0  0.01018  0.88489  0.20910  1.0000
  H   H986      1.0  0.09409  0.88667  0.19363  1.0000
  P   P44       1.0  0.16162  0.92535  0.18249  1.0000
  C   C1228     1.0  0.16835  0.93847  0.12884  1.0000
  H   H987      1.0  0.16275  0.82927  0.00370  1.0000
  S   S174      1.0  0.42387  0.84962  0.48824  1.0000
  H   H988      1.0  0.36066  0.84064  0.45624  1.0000
  C   C1229     1.0  0.17713  0.83258  0.31415  1.0000
  C   C1230     1.0  0.20846  0.83868  0.42818  1.0000
  C   C1231     1.0  0.45773  0.87932  0.47425  1.0000
  C   C1232     1.0  0.33926  0.80314  0.30684  1.0000
  C   C1233     1.0  0.33451  0.80147  0.28071  1.0000
  H   H989      1.0  0.24999  0.97364  0.40625  1.0000
  S   S175      1.0  0.08030  0.81006  0.01830  1.0000
  C   C1234     1.0  0.06178  0.80306  0.13867  1.0000
  H   H990      1.0  0.46346  0.92438  0.24391  1.0000
  H   H991      1.0  0.43054  0.91601  0.25002  1.0000
  H   H992      1.0  0.10331  0.90451  0.15088  1.0000
  H   H993      1.0  0.19651  0.86498  0.19447  1.0000
  C   C1235     1.0  0.02974  0.87050  0.17428  1.0000
  H   H994      1.0  0.17279  0.94854  0.08730  1.0000
  H   H995      1.0  0.19645  0.83561  0.44195  1.0000
  C   C1236     1.0  0.12696  0.89797  0.00492  1.0000
  H   H996      1.0  0.12199  0.91972  0.03201  1.0000
  C   C1237     1.0  0.49437  0.95471  0.19997  1.0000
  H   H997      1.0  0.45682  0.92644  0.46402  1.0000
  C   C1238     1.0  0.46047  0.87488  0.44758  1.0000
  C   C1239     1.0  0.16699  0.95822  0.25657  1.0000
  C   C1240     1.0  0.33830  0.82205  0.20966  1.0000
  H   H998      1.0  0.46187  0.80295  0.21179  1.0000
  H   H999      1.0  0.16270  0.91123  0.04952  1.0000
  C   C1241     1.0  0.14792  0.94260  0.22855  1.0000
  C   C1242     1.0  0.15062  0.95941  0.15761  1.0000
  C   C1243     1.0  0.44749  0.86377  0.31587  1.0000
  C   C1244     1.0  0.45801  0.87951  0.31070  1.0000
  C   C1245     1.0  0.45016  0.89690  0.31666  1.0000
  C   C1246     1.0  0.43177  0.89850  0.32782  1.0000
  C   C1247     1.0  0.42114  0.88268  0.33309  1.0000
  C   C1248     1.0  0.42916  0.86533  0.32716  1.0000
  P   P45       1.0  0.39752  0.88491  0.34777  1.0000
  C   C1249     1.0  0.38747  0.86240  0.35386  1.0000
  C   C1250     1.0  0.39913  0.89538  0.37892  1.0000
  C   C1251     1.0  0.41147  0.88729  0.39717  1.0000
  C   C1252     1.0  0.41275  0.89482  0.42168  1.0000
  C   C1253     1.0  0.40232  0.91090  0.42770  1.0000
  C   C1254     1.0  0.39037  0.91932  0.40943  1.0000
  C   C1255     1.0  0.38872  0.91163  0.38507  1.0000
  C   C1256     1.0  0.38193  0.85347  0.33214  1.0000
  C   C1257     1.0  0.37455  0.83588  0.33625  1.0000
  C   C1258     1.0  0.37252  0.82715  0.36206  1.0000
  C   C1259     1.0  0.37775  0.83600  0.38380  1.0000
  C   C1260     1.0  0.38515  0.85356  0.37979  1.0000
  C   C1261     1.0  0.38295  0.89764  0.32448  1.0000
  C   C1262     1.0  0.38951  0.90125  0.29753  1.0000
  C   C1263     1.0  0.37747  0.90879  0.27873  1.0000
  C   C1264     1.0  0.35876  0.91267  0.28658  1.0000
  C   C1265     1.0  0.35205  0.90898  0.31324  1.0000
  C   C1266     1.0  0.36406  0.90139  0.33213  1.0000
  H   H1000     1.0  0.45354  0.85028  0.31110  1.0000
  H   H1001     1.0  0.47218  0.87811  0.30190  1.0000
  H   H1002     1.0  0.45830  0.90912  0.31252  1.0000
  H   H1003     1.0  0.42580  0.91203  0.33238  1.0000
  H   H1004     1.0  0.42136  0.85294  0.33136  1.0000
  H   H1005     1.0  0.41981  0.87484  0.39274  1.0000
  H   H1006     1.0  0.42172  0.88803  0.43610  1.0000
  H   H1007     1.0  0.40349  0.91679  0.44656  1.0000
  H   H1008     1.0  0.38221  0.93170  0.41437  1.0000
  H   H1009     1.0  0.37943  0.91844  0.37124  1.0000
  H   H1010     1.0  0.38374  0.85984  0.31187  1.0000
  H   H1011     1.0  0.37110  0.82873  0.31926  1.0000
  H   H1012     1.0  0.36771  0.81317  0.36510  1.0000
  H   H1013     1.0  0.37678  0.82895  0.40367  1.0000
  H   H1014     1.0  0.38928  0.85982  0.39703  1.0000
  H   H1015     1.0  0.40367  0.89747  0.29059  1.0000
  H   H1016     1.0  0.38245  0.91085  0.25779  1.0000
  H   H1017     1.0  0.34932  0.91800  0.27180  1.0000
  H   H1018     1.0  0.33738  0.91146  0.31890  1.0000
  H   H1019     1.0  0.35853  0.89787  0.35249  1.0000
  H   H1020     1.0  0.13256  0.92116  0.14564  1.0000
  C   C1267     1.0  0.34412  0.94719  0.37291  1.0000
  C   C1268     1.0  0.35016  0.95582  0.39437  1.0000
  C   C1269     1.0  0.34718  0.94771  0.42043  1.0000
  C   C1270     1.0  0.33790  0.93113  0.42517  1.0000
  C   C1271     1.0  0.33166  0.92242  0.40376  1.0000
  C   C1272     1.0  0.33480  0.93059  0.37758  1.0000
  P   P46       1.0  0.31862  0.90167  0.41049  1.0000
  C   C1273     1.0  0.30967  0.89551  0.37979  1.0000
  C   C1274     1.0  0.33288  0.88223  0.42293  1.0000
  C   C1275     1.0  0.32531  0.86460  0.42666  1.0000
  C   C1276     1.0  0.33541  0.84959  0.43837  1.0000
  C   C1277     1.0  0.35323  0.85202  0.44597  1.0000
  C   C1278     1.0  0.36116  0.86933  0.44138  1.0000
  C   C1279     1.0  0.35101  0.88446  0.43002  1.0000
  C   C1280     1.0  0.32017  0.88316  0.36354  1.0000
  C   C1281     1.0  0.31426  0.87933  0.33878  1.0000
  C   C1282     1.0  0.29786  0.88780  0.32993  1.0000
  C   C1283     1.0  0.28730  0.90001  0.34593  1.0000
  C   C1284     1.0  0.29314  0.90390  0.37072  1.0000
  C   C1285     1.0  0.30048  0.90734  0.43609  1.0000
  C   C1286     1.0  0.01205  0.80913  0.05877  1.0000
  H   H1021     1.0  0.16829  0.96597  0.27388  1.0000
  H   H1022     1.0  0.13424  0.93875  0.22427  1.0000
  H   H1023     1.0  0.42397  0.92706  0.49139  1.0000
  H   H1024     1.0  0.48426  0.79991  0.45068  1.0000
  H   H1025     1.0  0.34605  0.95367  0.35274  1.0000
  H   H1026     1.0  0.35681  0.96896  0.39096  1.0000
  H   H1027     1.0  0.35190  0.95430  0.43712  1.0000
  H   H1028     1.0  0.33535  0.92530  0.44566  1.0000
  H   H1029     1.0  0.32952  0.92460  0.36085  1.0000
  H   H1030     1.0  0.31130  0.86266  0.42146  1.0000
  H   H1031     1.0  0.32921  0.83623  0.44243  1.0000
  C   C1287     1.0  0.16659  0.95146  0.10698  1.0000
  H   H1032     1.0  0.35721  0.89783  0.42763  1.0000
  H   H1033     1.0  0.33315  0.87671  0.36965  1.0000
  H   H1034     1.0  0.32257  0.87009  0.32609  1.0000
  H   H1035     1.0  0.29346  0.88513  0.31047  1.0000
  H   H1036     1.0  0.27476  0.90683  0.33875  1.0000
  H   H1037     1.0  0.28486  0.91377  0.38223  1.0000
  H   H1038     1.0  0.30742  0.88454  0.46497  1.0000
  S   S176      1.0  0.22878  0.96572  0.05908  1.0000
  C   C1288     1.0  0.02758  0.87771  0.19939  1.0000
  C   C1289     1.0  0.38152  0.89318  0.49624  1.0000
  H   H1039     1.0  0.48411  0.88269  0.19026  1.0000
  C   C1290     1.0  0.39531  0.97284  0.40654  1.0000
  H   H1040     1.0  0.22809  0.83265  0.45806  1.0000
  C   C1291     1.0  0.22154  0.84844  0.38339  1.0000
  P   P47       1.0  0.21869  0.85648  0.34887  1.0000
  C   C1292     1.0  0.22055  0.88146  0.34474  1.0000
  C   C1293     1.0  0.23674  0.84560  0.32751  1.0000
  C   C1294     1.0  0.24407  0.82768  0.33453  1.0000
  C   C1295     1.0  0.25821  0.81954  0.31792  1.0000
  C   C1296     1.0  0.25741  0.84677  0.28675  1.0000
  C   C1297     1.0  0.24325  0.85485  0.30328  1.0000
  C   C1298     1.0  0.21017  0.89205  0.32609  1.0000
  C   C1299     1.0  0.21150  0.91130  0.32267  1.0000
  C   C1300     1.0  0.22344  0.92018  0.33753  1.0000
  C   C1301     1.0  0.23401  0.90980  0.35591  1.0000
  C   C1302     1.0  0.23262  0.89051  0.35951  1.0000
  C   C1303     1.0  0.19617  0.85068  0.33925  1.0000
  C   C1304     1.0  0.19456  0.83652  0.32206  1.0000
  C   C1305     1.0  0.27482  0.91871  0.47752  1.0000
  C   C1306     1.0  0.14526  0.92582  0.00354  1.0000
  C   C1307     1.0  0.16270  0.85693  0.34012  1.0000
  C   C1308     1.0  0.18007  0.86087  0.34819  1.0000
  H   H1041     1.0  0.19211  0.84562  0.39494  1.0000
  H   H1042     1.0  0.25156  0.84994  0.37927  1.0000
  H   H1043     1.0  0.23880  0.81999  0.35271  1.0000
  H   H1044     1.0  0.23723  0.86825  0.29700  1.0000
  H   H1045     1.0  0.20117  0.88545  0.31386  1.0000
  H   H1046     1.0  0.20350  0.91928  0.30810  1.0000
  H   H1047     1.0  0.22480  0.93508  0.33446  1.0000
  S   S177      1.0  0.33389  0.98625  0.45969  1.0000
  C   C1309     1.0  0.18101  0.89087  0.18765  1.0000
  C   C1310     1.0  0.17166  0.84308  0.14990  1.0000
  H   H1048     1.0  0.45604  0.80126  0.42596  1.0000
  H   H1049     1.0  0.18859  0.93224  0.04082  1.0000
  H   H1050     1.0  0.14412  0.96265  0.17698  1.0000
  H   H1051     1.0  0.19632  0.95818  0.24408  1.0000
  C   C1311     1.0  0.46156  0.88898  0.42696  1.0000
  C   C1312     1.0  0.47422  0.89610  0.23999  1.0000
  H   H1052     1.0  0.16818  0.88346  0.02943  1.0000
  H   H1053     1.0  0.00831  0.80103  0.16424  1.0000
  H   H1054     1.0  0.11430  0.88534  0.23123  1.0000
  C   C1313     1.0  0.20396  0.91961  0.07298  1.0000
  C   C1314     1.0  0.28958  0.92382  0.43268  1.0000
  C   C1315     1.0  0.05020  0.81842  0.14485  1.0000
  H   H1055     1.0  0.99965  0.92158  0.18039  1.0000
  C   C1316     1.0  0.00769  0.84865  0.00994  1.0000
  C   C1317     1.0  0.11842  0.88046  0.07912  1.0000
  H   H1056     1.0  0.13051  0.87797  0.13621  1.0000
  H   H1057     1.0  0.25558  0.83984  0.42661  1.0000
  Fe  Fe85      1.0  0.40725  0.79853  0.49011  1.0000
  C   C1318     1.0  0.20606  0.84441  0.40139  1.0000
  H   H1058     1.0  0.05359  0.82700  0.16040  1.0000
  C   C1319     1.0  0.13063  0.91493  0.01512  1.0000
  C   C1320     1.0  0.45563  0.89785  0.48058  1.0000
  C   C1321     1.0  0.13085  0.90918  0.09020  1.0000
  H   H1059     1.0  0.25734  0.93927  0.14069  1.0000
  H   H1060     1.0  0.15785  0.83865  0.18954  1.0000
  C   C1322     1.0  0.18966  0.89365  0.09894  1.0000
  S   S178      1.0  0.04439  0.85202  0.01790  1.0000
  H   H1061     1.0  0.33323  0.81446  0.31803  1.0000
  C   C1323     1.0  0.18121  0.94357  0.21776  1.0000
  C   C1324     1.0  0.14865  0.97223  0.13561  1.0000
  H   H1062     1.0  0.25507  0.94524  0.09158  1.0000
  C   C1325     1.0  0.15584  0.83216  0.04573  1.0000
  C   C1326     1.0  0.14226  0.86856  0.13979  1.0000
  C   C1327     1.0  0.13364  0.89044  0.08486  1.0000
  C   C1328     1.0  0.15754  0.84618  0.17003  1.0000
  H   H1063     1.0  0.14228  0.91713  0.09503  1.0000
  C   C1329     1.0  0.03036  0.81221  0.10998  1.0000
  C   C1330     1.0  0.15927  0.86279  0.06106  1.0000
  H   H1064     1.0  0.26245  0.85425  0.26817  1.0000
  C   C1331     1.0  0.26498  0.82916  0.29411  1.0000
  C   C1332     1.0  0.03463  0.82302  0.13048  1.0000
  C   C1333     1.0  0.03072  0.79771  0.02040  1.0000
  C   C1334     1.0  0.16207  0.83850  0.01973  1.0000
  C   C1335     1.0  0.18277  0.95378  0.23990  1.0000
  H   H1065     1.0  0.00514  0.83829  0.19836  1.0000
  H   H1066     1.0  0.48006  0.86659  0.23922  1.0000
  C   C1336     1.0  0.48188  0.79939  0.35478  1.0000
  H   H1067     1.0  0.38159  0.97930  0.47177  1.0000
  H   H1068     1.0  0.17561  0.92532  0.12567  1.0000
  H   H1069     1.0  0.26389  0.80578  0.32346  1.0000
  C   C1337     1.0  0.10691  0.89405  0.19144  1.0000
  H   H1070     1.0  0.27597  0.82300  0.28119  1.0000
  H   H1071     1.0  0.29146  0.93276  0.41456  1.0000
  C   C1338     1.0  0.17114  0.85277  0.12472  1.0000
  C   C1339     1.0  0.02023  0.83207  0.23352  1.0000
  C   C1340     1.0  0.29862  0.89677  0.46085  1.0000
  H   H1072     1.0  0.19999  0.93096  0.16027  1.0000
  C   C1341     1.0  0.21407  0.88631  0.17588  1.0000
  H   H1073     1.0  0.18298  0.83311  0.15382  1.0000
  C   C1342     1.0  0.22629  0.83701  0.43726  1.0000
  C   C1343     1.0  0.15657  0.86583  0.11960  1.0000
  C   C1344     1.0  0.99689  0.87675  0.16908  1.0000
  H   H1074     1.0  0.21532  0.92896  0.06908  1.0000
  C   C1345     1.0  0.27673  0.92940  0.45316  1.0000
  C   C1346     1.0  0.00402  0.83434  0.21961  1.0000
  C   C1347     1.0  0.46936  0.87751  0.24127  1.0000
  C   C1348     1.0  0.11212  0.90416  0.16739  1.0000
  H   H1075     1.0  0.18212  0.85019  0.10924  1.0000
  C   C1349     1.0  0.17428  0.90939  0.06199  1.0000
  C   C1350     1.0  0.45068  0.87290  0.24474  1.0000
  C   C1351     1.0  0.02947  0.80581  0.04491  1.0000
  H   H1076     1.0  0.19028  0.88326  0.11551  1.0000
  C   C1352     1.0  0.19888  0.91649  0.16724  1.0000
  C   C1353     1.0  0.15675  0.96830  0.11036  1.0000
  H   H1077     1.0  0.14089  0.98524  0.13812  1.0000
  C   C1354     1.0  0.18896  0.92140  0.05700  1.0000
  C   C1355     1.0  0.16378  0.93774  0.21196  1.0000
  C   C1356     1.0  0.25667  0.96119  0.36867  1.0000
  H   H1078     1.0  0.19372  0.94042  0.20528  1.0000
  C   C1357     1.0  0.27965  0.96957  0.39893  1.0000
  H   H1079     1.0  0.01616  0.86523  0.13920  1.0000
  Fe  Fe86      1.0  0.10135  0.80413  0.23785  1.0000
  H   H1080     1.0  0.03371  0.83430  0.22297  1.0000
  C   C1358     1.0  0.26112  0.96864  0.39251  1.0000
  C   C1359     1.0  0.34970  0.79528  0.41366  1.0000
  H   H1081     1.0  0.15166  0.81801  0.04980  1.0000
  S   S179      1.0  0.28407  0.97856  0.43041  1.0000
  C   C1360     1.0  0.21649  0.96461  0.14111  1.0000
  C   C1361     1.0  0.14957  0.95266  0.25087  1.0000
  C   C1362     1.0  0.22893  0.96095  0.09486  1.0000
  H   H1082     1.0  0.24226  0.96065  0.36449  1.0000
  C   C1363     1.0  0.21490  0.96761  0.11311  1.0000
  H   H1083     1.0  0.47076  0.80547  0.36758  1.0000
  Fe  Fe87      1.0  0.20839  0.97751  0.02782  1.0000
  C   C1364     1.0  0.14037  0.91279  0.18575  1.0000
  S   S180      1.0  0.43664  0.80597  0.47781  1.0000
  H   H1084     1.0  0.34531  0.80943  0.41739  1.0000
  C   C1365     1.0  0.46012  0.90998  0.24381  1.0000
  C   C1366     1.0  0.13505  0.90249  0.20980  1.0000
  H   H1085     1.0  0.00484  0.85597  0.02781  1.0000
  C   C1367     1.0  0.99590  0.80631  0.04607  1.0000
  C   C1368     1.0  0.48056  0.80001  0.32715  1.0000
  H   H1086     1.0  0.12765  0.81038  0.12497  1.0000
  C   C1369     1.0  0.39280  0.96904  0.43432  1.0000
  H   H1087     1.0  0.07421  0.79994  0.14920  1.0000
  H   H1088     1.0  0.46876  0.83486  0.47931  1.0000
  C   C1370     1.0  0.00127  0.82448  0.27451  1.0000
  C   C1371     1.0  0.45727  0.91200  0.45977  1.0000
  C   C1372     1.0  0.49077  0.82980  0.24966  1.0000
  C   C1373     1.0  0.40887  0.79860  0.38317  1.0000
  H   H1089     1.0  0.39722  0.95569  0.44354  1.0000
  C   C1374     1.0  0.99723  0.79837  0.02144  1.0000
  Fe  Fe88      1.0  0.41225  0.79781  0.23424  1.0000
  C   C1375     1.0  0.49170  0.93584  0.20666  1.0000
  H   H1090     1.0  0.02173  0.79642  0.20803  1.0000
  C   C1376     1.0  0.38410  0.98237  0.45030  1.0000
  Fe  Fe89      1.0  0.17228  0.96752  0.00579  1.0000
  H   H1091     1.0  0.41287  0.95940  0.49735  1.0000
  H   H1092     1.0  0.00601  0.95370  0.18879  1.0000
  C   C1377     1.0  0.49296  0.83159  0.22165  1.0000
  H   H1093     1.0  0.49131  0.89507  0.49206  1.0000
  C   C1378     1.0  0.37894  0.91266  0.49368  1.0000
  H   H1094     1.0  0.17939  0.98416  0.18462  1.0000
  H   H1095     1.0  0.48691  0.96202  0.18419  1.0000
  C   C1379     1.0  0.38893  0.98992  0.39475  1.0000
  H   H1096     1.0  0.27951  0.79980  0.18553  1.0000
  S   S181      1.0  0.35919  0.94597  0.49384  1.0000
  Fe  Fe90      1.0  0.07328  0.84009  0.00751  1.0000
  C   C1380     1.0  0.36114  0.92131  0.49732  1.0000
  H   H1097     1.0  0.39032  0.99227  0.37317  1.0000
  H   H1098     1.0  0.31355  0.79647  0.18792  1.0000
  C   C1381     1.0  0.28517  0.79506  0.20432  1.0000
  H   H1099     1.0  0.37291  0.79463  0.43831  1.0000
  H   H1100     1.0  0.49406  0.79421  0.28911  1.0000
  C   C1382     1.0  0.01459  0.79379  0.00882  1.0000
  H   H1101     1.0  0.28468  0.89442  0.50056  1.0000
  Fe  Fe91      1.0  0.39534  0.83943  0.50039  1.0000
  H   H1102     1.0  0.23609  0.93791  0.77864  1.0000
  S   S182      1.0  0.12329  0.81944  0.99488  1.0000
  H   H1103     1.0  0.02466  0.91173  0.82798  1.0000
  C   C1383     1.0  0.40359  0.88344  0.55124  1.0000
  C   C1384     1.0  0.00640  0.92237  0.90027  1.0000
  C   C1385     1.0  0.00158  0.88969  0.94830  1.0000
  C   C1386     1.0  0.49116  0.89383  0.51369  1.0000
  C   C1387     1.0  0.42475  0.95358  0.50752  1.0000
  H   H1104     1.0  0.42851  0.97844  0.52703  1.0000
  C   C1388     1.0  0.06675  0.88815  0.96849  1.0000
  H   H1105     1.0  0.24577  0.95794  0.87154  1.0000
  S   S183      1.0  0.45959  0.82406  0.53562  1.0000
  S   S184      1.0  0.40545  0.81477  0.52698  1.0000
  C   C1389     1.0  0.44051  0.87034  0.54299  1.0000
  H   H1106     1.0  0.01735  0.88926  0.98338  1.0000
  C   C1390     1.0  0.00373  0.88979  0.97585  1.0000
  H   H1107     1.0  0.16763  0.92763  0.97251  1.0000
  H   H1108     1.0  0.17068  0.86216  0.99380  1.0000
  C   C1391     1.0  0.99643  0.83486  0.97216  1.0000
  S   S185      1.0  0.08825  0.84065  0.96653  1.0000
  C   C1392     1.0  0.19207  0.94337  0.73882  1.0000
  H   H1109     1.0  0.39824  0.85629  0.57018  1.0000
  C   C1393     1.0  0.23357  0.95946  0.86023  1.0000
  S   S186      1.0  0.13316  0.87095  0.96818  1.0000
  S   S187      1.0  0.20227  0.95996  0.99425  1.0000
  H   H1110     1.0  0.01775  0.82270  0.94555  1.0000
  H   H1111     1.0  0.18663  0.95636  0.86912  1.0000
  S   S188      1.0  0.20997  0.98998  0.92052  1.0000
  C   C1394     1.0  0.48017  0.83209  0.51772  1.0000
  H   H1112     1.0  0.06085  0.83699  0.88996  1.0000
  H   H1113     1.0  0.19825  0.91498  0.72972  1.0000
  H   H1114     1.0  0.18956  0.96572  0.82058  1.0000
  H   H1115     1.0  0.17979  0.94484  0.72767  1.0000
  C   C1395     1.0  0.20022  0.95863  0.85886  1.0000
  C   C1396     1.0  0.43101  0.93523  0.50432  1.0000
  C   C1397     1.0  0.15656  0.83365  0.93660  1.0000
  H   H1116     1.0  0.16090  0.89799  0.95392  1.0000
  C   C1398     1.0  0.20195  0.96410  0.83147  1.0000
  C   C1399     1.0  0.00253  0.93494  0.87863  1.0000
  H   H1117     1.0  0.22633  0.91157  0.75537  1.0000
  P   P48       1.0  0.22110  0.97558  0.78311  1.0000
  Fe  Fe92      1.0  0.20244  0.98648  0.96656  1.0000
  H   H1118     1.0  0.19265  0.79802  0.91332  1.0000
  H   H1119     1.0  0.00600  0.94080  0.83580  1.0000
  C   C1400     1.0  0.20246  0.92654  0.73999  1.0000
  P   P49       1.0  0.45293  0.90310  0.51536  1.0000
  S   S189      1.0  0.36913  0.85757  0.50984  1.0000
  C   C1401     1.0  0.13774  0.89180  0.98265  1.0000
  C   C1402     1.0  0.13996  0.83441  0.92402  1.0000
  H   H1120     1.0  0.04392  0.83155  0.97025  1.0000
  H   H1121     1.0  0.46267  0.89747  0.57088  1.0000
  H   H1122     1.0  0.30874  0.98863  0.60529  1.0000
  H   H1123     1.0  0.08721  0.90869  0.96968  1.0000
  H   H1124     1.0  0.99628  0.86107  0.91123  1.0000
  H   H1125     1.0  0.13316  0.84775  0.91877  1.0000
  H   H1126     1.0  0.07233  0.93108  0.93709  1.0000
  C   C1403     1.0  0.26914  0.98068  0.73384  1.0000
  C   C1404     1.0  0.07458  0.90525  0.96117  1.0000
  C   C1405     1.0  0.25149  0.97547  0.74463  1.0000
  H   H1127     1.0  0.24918  0.96665  0.82329  1.0000
  C   C1406     1.0  0.40867  0.86536  0.56038  1.0000
  Fe  Fe93      1.0  0.30226  0.98994  0.52638  1.0000
  C   C1407     1.0  0.24446  0.98093  0.76990  1.0000
  C   C1408     1.0  0.47521  0.89513  0.55795  1.0000
  H   H1128     1.0  0.27430  0.97704  0.71396  1.0000
  C   C1409     1.0  0.34582  0.91021  0.50366  1.0000
  C   C1410     1.0  0.21828  0.92461  0.75441  1.0000
  C   C1411     1.0  0.47476  0.89732  0.52997  1.0000
  C   C1412     1.0  0.02344  0.90209  0.86976  1.0000
  C   C1413     1.0  0.34846  0.89070  0.50709  1.0000
  H   H1129     1.0  0.04501  0.87003  0.96277  1.0000
  C   C1414     1.0  0.21947  0.96791  0.81839  1.0000
  C   C1415     1.0  0.03168  0.83222  0.88934  1.0000
  H   H1130     1.0  0.16252  0.84645  0.94098  1.0000
  C   C1416     1.0  0.36634  0.88208  0.50369  1.0000
  C   C1417     1.0  0.02554  0.86665  0.91170  1.0000
  C   C1418     1.0  0.15246  0.90261  0.97114  1.0000
  C   C1419     1.0  0.04375  0.85971  0.90510  1.0000
  C   C1420     1.0  0.25517  0.99208  0.78371  1.0000
  H   H1131     1.0  0.45468  0.86482  0.53982  1.0000
  H   H1132     1.0  0.03160  0.88948  0.86591  1.0000
  H   H1133     1.0  0.11851  0.81854  0.91049  1.0000
  H   H1134     1.0  0.21461  0.95289  0.89471  1.0000
  C   C1421     1.0  0.14016  0.80082  0.92709  1.0000
  H   H1135     1.0  0.05568  0.86753  0.90825  1.0000
  H   H1136     1.0  0.07314  0.87844  0.98293  1.0000
  C   C1422     1.0  0.15688  0.79994  0.93960  1.0000
  C   C1423     1.0  0.43350  0.96427  0.52434  1.0000
  C   C1424     1.0  0.01675  0.90577  0.89595  1.0000
  C   C1425     1.0  0.22377  0.93954  0.76756  1.0000
  C   C1426     1.0  0.04999  0.91327  0.93166  1.0000
  C   C1427     1.0  0.44588  0.92728  0.51830  1.0000
  H   H1137     1.0  0.17739  0.81616  0.95524  1.0000
  C   C1428     1.0  0.01489  0.83017  0.96331  1.0000
  H   H1138     1.0  0.38917  0.88837  0.55402  1.0000
  C   C1429     1.0  0.02615  0.84451  0.00065  1.0000
  C   C1430     1.0  0.16492  0.81649  0.94460  1.0000
  C   C1431     1.0  0.02973  0.83501  0.97745  1.0000
  C   C1432     1.0  0.41690  0.89501  0.53790  1.0000
  C   C1433     1.0  0.21600  0.95651  0.87329  1.0000
  C   C1434     1.0  0.05073  0.88346  0.95717  1.0000
  C   C1435     1.0  0.00908  0.93110  0.85258  1.0000
  H   H1139     1.0  0.04379  0.92321  0.91742  1.0000
  H   H1140     1.0  0.03403  0.81877  0.88127  1.0000
  C   C1436     1.0  0.13177  0.81800  0.91928  1.0000
  H   H1141     1.0  0.45528  0.96493  0.55104  1.0000
  H   H1142     1.0  0.49193  0.88736  0.59100  1.0000
  C   C1437     1.0  0.06619  0.91783  0.94278  1.0000
  C   C1438     1.0  0.43553  0.88856  0.53348  1.0000
  C   C1439     1.0  0.45472  0.93820  0.53497  1.0000
  C   C1440     1.0  0.23536  0.96485  0.83282  1.0000
  C   C1441     1.0  0.44854  0.95663  0.53792  1.0000
  H   H1143     1.0  0.43108  0.84485  0.56373  1.0000
  P   P50       1.0  0.02157  0.88952  0.92394  1.0000
  S   S190      1.0  0.33342  0.99006  0.52430  1.0000
  C   C1442     1.0  0.01047  0.85631  0.90635  1.0000
  H   H1144     1.0  0.00177  0.83113  0.89197  1.0000
  C   C1443     1.0  0.01355  0.83921  0.89518  1.0000
  Fe  Fe94      1.0  0.43422  0.82408  0.51194  1.0000
  C   C1444     1.0  0.04214  0.89599  0.93875  1.0000
  C   C1445     1.0  0.01957  0.91471  0.84817  1.0000
  H   H1145     1.0  0.24324  0.96770  0.73277  1.0000
  H   H1146     1.0  0.46626  0.93255  0.54590  1.0000
  H   H1147     1.0  0.41233  0.90884  0.53108  1.0000
  Fe  Fe95      1.0  0.09709  0.81103  0.97881  1.0000
  H   H1148     1.0  0.18920  0.97118  0.75093  1.0000
  C   C1446     1.0  0.19752  0.95833  0.75196  1.0000
  C   C1447     1.0  0.04678  0.84246  0.89432  1.0000
  C   C1448     1.0  0.42716  0.85890  0.55656  1.0000
  C   C1449     1.0  0.21353  0.95654  0.76621  1.0000
  C   C1450     1.0  0.15630  0.91946  0.98161  1.0000
  C   C1451     1.0  0.27991  0.99128  0.74818  1.0000
  C   C1452     1.0  0.49175  0.88937  0.56942  1.0000
  Fe  Fe96      1.0  0.11303  0.84915  0.98663  1.0000
  H   H1149     1.0  0.33202  0.91664  0.50654  1.0000
  H   H1150     1.0  0.33660  0.88225  0.51272  1.0000
  S   S191      1.0  0.30279  0.96463  0.50166  1.0000
  S   S192      1.0  0.17168  0.99269  0.97625  1.0000
  H   H1151     1.0  0.22664  0.79491  0.90382  1.0000
  H   H1152     1.0  0.00127  0.92556  0.92035  1.0000
  C   C1453     1.0  0.83972  0.03569  0.08467  1.0000
  H   H1153     1.0  0.53404  0.08325  0.41129  1.0000
  C   C1454     1.0  0.50205  0.11731  0.43669  1.0000
  C   C1455     1.0  0.54594  0.11140  0.44890  1.0000
  H   H1154     1.0  0.81738  0.01665  0.30989  1.0000
  H   H1155     1.0  0.82923  0.02395  0.13767  1.0000
  C   C1456     1.0  0.54107  0.16088  0.41791  1.0000
  C   C1457     1.0  0.55913  0.10373  0.34499  1.0000
  H   H1156     1.0  0.56604  0.10943  0.32638  1.0000
  S   S193      1.0  0.56802  0.15743  0.47449  1.0000
  C   C1458     1.0  0.62230  0.07943  0.47028  1.0000
  H   H1157     1.0  0.55753  0.12969  0.36303  1.0000
  S   S194      1.0  0.60334  0.11362  0.47230  1.0000
  C   C1459     1.0  0.61927  0.09568  0.48410  1.0000
  C   C1460     1.0  0.86598  0.05833  0.10883  1.0000
  C   C1461     1.0  0.98541  0.15582  0.01066  1.0000
  H   H1158     1.0  0.50718  0.10795  0.45253  1.0000
  S   S195      1.0  0.91398  0.14398  0.04387  1.0000
  C   C1462     1.0  0.87810  0.01334  0.06118  1.0000
  C   C1463     1.0  0.57022  0.14391  0.40735  1.0000
  H   H1159     1.0  0.54252  0.06316  0.37419  1.0000
  C   C1464     1.0  0.55443  0.11516  0.36596  1.0000
  C   C1465     1.0  0.88066  0.02662  0.07930  1.0000
  H   H1160     1.0  0.79184  0.03649  0.05404  1.0000
  Fe  Fe97      1.0  0.58304  0.18267  0.48369  1.0000
  S   S196      1.0  0.67071  0.99757  0.47838  1.0000
  H   H1161     1.0  0.78063  0.99758  0.22025  1.0000
  Fe  Fe98      1.0  0.91040  0.17216  0.02158  1.0000
  S   S197      1.0  0.80950  0.01140  0.00406  1.0000
  C   C1466     1.0  0.86233  0.06381  0.13502  1.0000
  P   P51       1.0  0.53919  0.12232  0.41739  1.0000
  H   H1162     1.0  0.63758  0.05295  0.46735  1.0000
  P   P52       1.0  0.86128  0.03519  0.10078  1.0000
  H   H1163     1.0  0.88066  0.09945  0.07821  1.0000
  C   C1467     1.0  0.55086  0.14400  0.41331  1.0000
  H   H1164     1.0  0.89923  0.08495  0.00823  1.0000
  C   C1468     1.0  0.84165  0.01668  0.14451  1.0000
  C   C1469     1.0  0.80513  0.03634  0.06266  1.0000
  H   H1165     1.0  0.92730  0.03180  0.06502  1.0000
  C   C1470     1.0  0.55494  0.08498  0.34800  1.0000
  H   H1166     1.0  0.54303  0.19040  0.41987  1.0000
  C   C1471     1.0  0.81344  0.01952  0.07199  1.0000
  C   C1472     1.0  0.63522  0.06517  0.47848  1.0000
  C   C1473     1.0  0.86557  0.08196  0.14073  1.0000
  Fe  Fe99      1.0  0.93801  0.13959  0.01321  1.0000
  C   C1474     1.0  0.87258  0.07132  0.08841  1.0000
  C   C1475     1.0  0.53848  0.11835  0.47297  1.0000
  C   C1476     1.0  0.88555  0.07931  0.00961  1.0000
  C   C1477     1.0  0.54589  0.07767  0.37192  1.0000
  S   S198      1.0  0.60785  0.16537  0.49690  1.0000
  H   H1167     1.0  0.87503  0.06753  0.06790  1.0000
  C   C1478     1.0  0.87501  0.01041  0.14083  1.0000
  C   C1479     1.0  0.83990  0.00398  0.16696  1.0000
  C   C1480     1.0  0.82644  0.00882  0.32321  1.0000
  H   H1168     1.0  0.80648  0.00675  0.07077  1.0000
  H   H1169     1.0  0.56667  0.09218  0.43146  1.0000
  H   H1170     1.0  0.86275  0.08618  0.16093  1.0000
  C   C1481     1.0  0.54427  0.11075  0.49749  1.0000
  C   C1482     1.0  0.83068  0.01913  0.08279  1.0000
  H   H1171     1.0  0.94779  0.09212  0.01309  1.0000
  C   C1483     1.0  0.85223  0.08301  0.01842  1.0000
  C   C1484     1.0  0.85016  0.06434  0.01331  1.0000
  C   C1485     1.0  0.86991  0.09065  0.01650  1.0000
  H   H1172     1.0  0.86446  0.00842  0.05901  1.0000
  H   H1173     1.0  0.97587  0.18545  0.06918  1.0000
  S   S199      1.0  0.87176  0.11408  0.02410  1.0000
  C   C1486     1.0  0.81404  0.05287  0.06424  1.0000
  S   S200      1.0  0.96481  0.12500  0.02577  1.0000
  H   H1174     1.0  0.77290  0.01261  0.32911  1.0000
  H   H1175     1.0  0.85691  0.05418  0.15102  1.0000
  C   C1487     1.0  0.51431  0.12630  0.41723  1.0000
  H   H1176     1.0  0.57697  0.19015  0.40754  1.0000
  C   C1488     1.0  0.89862  0.03298  0.08088  1.0000
  C   C1489     1.0  0.54574  0.10779  0.39028  1.0000
  C   C1490     1.0  0.86582  0.05291  0.00696  1.0000
  C   C1491     1.0  0.55044  0.17749  0.41547  1.0000
  C   C1492     1.0  0.85918  0.01971  0.13090  1.0000
  H   H1177     1.0  0.51622  0.14427  0.38066  1.0000
  H   H1178     1.0  0.57652  0.07870  0.47475  1.0000
  H   H1179     1.0  0.83680  0.00589  0.08996  1.0000
  C   C1493     1.0  0.85566  0.99452  0.17641  1.0000
  C   C1494     1.0  0.50638  0.15870  0.48801  1.0000
  Fe  Fe100     1.0  0.89644  0.13290  0.01397  1.0000
  H   H1180     1.0  0.52638  0.16123  0.42427  1.0000
  C   C1495     1.0  0.54118  0.08905  0.39292  1.0000
  H   H1181     1.0  0.97241  0.16324  0.00729  1.0000
  C   C1496     1.0  0.98556  0.13724  0.02069  1.0000
  H   H1182     1.0  0.55865  0.07614  0.33176  1.0000
  H   H1183     1.0  0.87465  0.10887  0.12462  1.0000
  H   H1184     1.0  0.82624  0.00139  0.17688  1.0000
  H   H1185     1.0  0.86660  0.01341  0.35275  1.0000
  C   C1497     1.0  0.84262  0.01677  0.32966  1.0000
  H   H1186     1.0  0.90110  0.04304  0.09491  1.0000
  C   C1498     1.0  0.83124  0.05259  0.07524  1.0000
  H   H1187     1.0  0.83648  0.05873  0.01442  1.0000
  H   H1188     1.0  0.57821  0.13095  0.40532  1.0000
  H   H1189     1.0  0.80771  0.06592  0.05672  1.0000
  C   C1499     1.0  0.87574  0.08944  0.09416  1.0000
  C   C1500     1.0  0.55974  0.09703  0.44969  1.0000
  H   H1190     1.0  0.75026  0.02284  0.36507  1.0000
  H   H1191     1.0  0.84609  0.03051  0.32107  1.0000
  C   C1501     1.0  0.75852  0.00124  0.39414  1.0000
  C   C1502     1.0  0.87228  0.09476  0.12030  1.0000
  C   C1503     1.0  0.85416  0.00717  0.34757  1.0000
  H   H1192     1.0  0.84003  0.09163  0.02381  1.0000
  H   H1193     1.0  0.61480  0.07797  0.45284  1.0000
  C   C1504     1.0  0.57951  0.16056  0.40478  1.0000
  H   H1194     1.0  0.83777  0.06563  0.07613  1.0000
  C   C1505     1.0  0.75946  0.01081  0.36884  1.0000
  C   C1506     1.0  0.56962  0.17735  0.40868  1.0000
  Fe  Fe101     1.0  0.59182  0.14007  0.49177  1.0000
  C   C1507     1.0  0.77215  0.00479  0.34839  1.0000
  C   C1508     1.0  0.88350  0.06055  0.00499  1.0000
  H   H1195     1.0  0.52840  0.12986  0.47278  1.0000
  H   H1196     1.0  0.74850  0.00570  0.40991  1.0000
  H   H1197     1.0  0.93027  0.06366  0.01142  1.0000
  H   H1198     1.0  0.59451  0.16039  0.40072  1.0000
  H   H1199     1.0  0.51944  0.16252  0.47736  1.0000
  C   C1509     1.0  0.56540  0.08932  0.47428  1.0000
  C   C1510     1.0  0.55775  0.09623  0.49816  1.0000
  C   C1511     1.0  0.98919  0.19141  0.06303  1.0000
  C   C1512     1.0  0.91359  0.02654  0.06408  1.0000
  H   H1200     1.0  0.81381  0.99632  0.22984  1.0000
  C   C1513     1.0  0.91080  0.01353  0.04582  1.0000
  H   H1201     1.0  0.88870  0.01269  0.13098  1.0000
  H   H1202     1.0  0.92227  0.00877  0.03242  1.0000
  C   C1514     1.0  0.80315  0.99451  0.24618  1.0000
  H   H1203     1.0  0.49663  0.18474  0.38977  1.0000
  C   C1515     1.0  0.89310  0.00685  0.04452  1.0000
  C   C1516     1.0  0.78444  0.99527  0.24073  1.0000
  C   C1517     1.0  0.50700  0.13771  0.39634  1.0000
  C   C1518     1.0  0.87323  0.99787  0.16351  1.0000
  S   S201      1.0  0.86427  0.02902  0.00169  1.0000
  H   H1204     1.0  0.89074  0.99717  0.02983  1.0000
  Fe  Fe102     1.0  0.84081  0.00860  0.00237  1.0000
  C   C1519     1.0  0.64538  0.06700  0.50064  1.0000
  C   C1520     1.0  0.98367  0.17762  0.64120  1.0000
  H   H1205     1.0  0.70197  0.16655  0.53354  1.0000
  H   H1206     1.0  0.53382  0.14559  0.65928  1.0000
  Fe  Fe103     1.0  0.75391  0.04408  0.71823  1.0000
  S   S202      1.0  0.75895  0.07471  0.72000  1.0000
  S   S203      1.0  0.74611  0.03639  0.67598  1.0000
  Fe  Fe104     1.0  0.75998  0.03690  0.77973  1.0000
  S   S204      1.0  0.76348  0.06707  0.78407  1.0000
  S   S205      1.0  0.76518  0.01444  0.81438  1.0000
  Fe  Fe105     1.0  0.73980  0.07288  0.75766  1.0000
  S   S206      1.0  0.71984  0.09817  0.76280  1.0000
  Fe  Fe106     1.0  0.78239  0.06660  0.74617  1.0000
  S   S207      1.0  0.81042  0.07835  0.75378  1.0000
  S   S208      1.0  0.73430  0.04259  0.75597  1.0000
  S   S209      1.0  0.77920  0.03607  0.74179  1.0000
  H   H1207     1.0  0.86669  0.01506  0.78888  1.0000
  C   C1521     1.0  0.85148  0.15607  0.85706  1.0000
  H   H1208     1.0  0.71058  0.12813  0.66342  1.0000
  H   H1209     1.0  0.78551  0.08448  0.86314  1.0000
  S   S210      1.0  0.57769  0.13894  0.53333  1.0000
  C   C1522     1.0  0.81690  0.06154  0.82201  1.0000
  Fe  Fe107     1.0  0.59205  0.16532  0.53721  1.0000
  S   S211      1.0  0.60695  0.17247  0.57199  1.0000
  C   C1523     1.0  0.55511  0.18427  0.63320  1.0000
  Fe  Fe108     1.0  0.61250  0.12882  0.76011  1.0000
  S   S212      1.0  0.61793  0.14523  0.72078  1.0000
  S   S213      1.0  0.63155  0.10414  0.77232  1.0000
  Fe  Fe109     1.0  0.57350  0.14795  0.77022  1.0000
  S   S214      1.0  0.57656  0.16560  0.73160  1.0000
  S   S215      1.0  0.54621  0.15267  0.79496  1.0000
  Fe  Fe110     1.0  0.58836  0.13957  0.71445  1.0000
  S   S216      1.0  0.57647  0.12945  0.67878  1.0000
  Fe  Fe111     1.0  0.60548  0.16963  0.74244  1.0000
  H   H1210     1.0  0.94112  0.04039  0.97923  1.0000
  S   S217      1.0  0.58353  0.12160  0.75226  1.0000
  S   S218      1.0  0.60192  0.15360  0.78259  1.0000
  Fe  Fe112     1.0  0.91583  0.15592  0.96771  1.0000
  S   S219      1.0  0.91468  0.16718  0.92498  1.0000
  Fe  Fe113     1.0  0.90201  0.13827  0.74237  1.0000
  S   S220      1.0  0.89654  0.14754  0.78393  1.0000
  S   S221      1.0  0.87861  0.13055  0.71774  1.0000
  Fe  Fe114     1.0  0.94404  0.14545  0.74130  1.0000
  S   S222      1.0  0.94151  0.15491  0.78284  1.0000
  S   S223      1.0  0.97060  0.14585  0.71350  1.0000
  Fe  Fe115     1.0  0.92275  0.13106  0.79258  1.0000
  S   S224      1.0  0.92405  0.11337  0.83139  1.0000
  C   C1524     1.0  0.68609  0.14781  0.56099  1.0000
  S   S225      1.0  0.92717  0.12002  0.75184  1.0000
  S   S226      1.0  0.91923  0.16301  0.72812  1.0000
  H   H1211     1.0  0.58946  0.10373  0.59967  1.0000
  H   H1212     1.0  0.67301  0.10676  0.84833  1.0000
  H   H1213     1.0  0.51392  0.11118  0.74296  1.0000
  H   H1214     1.0  0.59022  0.01892  0.59617  1.0000
  C   C1525     1.0  0.91696  0.15162  0.89982  1.0000
  C   C1526     1.0  0.91603  0.15879  0.87333  1.0000
  C   C1527     1.0  0.91820  0.14704  0.85240  1.0000
  C   C1528     1.0  0.92132  0.12797  0.85785  1.0000
  C   C1529     1.0  0.92197  0.12066  0.88444  1.0000
  C   C1530     1.0  0.91974  0.13250  0.90550  1.0000
  H   H1215     1.0  0.63842  0.12419  0.55509  1.0000
  H   H1216     1.0  0.91734  0.15279  0.83205  1.0000
  H   H1217     1.0  0.92435  0.10591  0.88867  1.0000
  H   H1218     1.0  0.92035  0.12687  0.92597  1.0000
  C   C1531     1.0  0.66733  0.11902  0.83760  1.0000
  C   C1532     1.0  0.52636  0.14373  0.78286  1.0000
  C   C1533     1.0  0.52821  0.12959  0.76526  1.0000
  C   C1534     1.0  0.66465  0.14084  0.67156  1.0000
  H   H1219     1.0  0.54186  0.12399  0.75888  1.0000
  C   C1535     1.0  0.59837  0.16060  0.60165  1.0000
  C   C1536     1.0  0.60793  0.16086  0.62469  1.0000
  C   C1537     1.0  0.60124  0.15127  0.64853  1.0000
  C   C1538     1.0  0.58510  0.14127  0.64918  1.0000
  C   C1539     1.0  0.57552  0.14102  0.62617  1.0000
  C   C1540     1.0  0.58205  0.15086  0.60245  1.0000
  H   H1220     1.0  0.62047  0.16847  0.62415  1.0000
  H   H1221     1.0  0.60859  0.15159  0.66631  1.0000
  H   H1222     1.0  0.56290  0.13348  0.62678  1.0000
  H   H1223     1.0  0.57430  0.15114  0.58499  1.0000
  C   C1541     1.0  0.68303  0.13729  0.67786  1.0000
  H   H1224     1.0  0.51255  0.19276  0.77517  1.0000
  C   C1542     1.0  0.52710  0.15600  0.69770  1.0000
  C   C1543     1.0  0.73523  0.02402  0.65175  1.0000
  C   C1544     1.0  0.56621  0.18476  0.65459  1.0000
  H   H1225     1.0  0.60591  0.11512  0.55667  1.0000
  C   C1545     1.0  0.97475  0.07198  0.96326  1.0000
  C   C1546     1.0  0.72746  0.02175  0.60498  1.0000
  C   C1547     1.0  0.73622  0.03075  0.62448  1.0000
  H   H1226     1.0  0.52358  0.16083  0.59575  1.0000
  H   H1227     1.0  0.72850  0.02724  0.58428  1.0000
  H   H1228     1.0  0.74386  0.04306  0.61835  1.0000
  C   C1548     1.0  0.82922  0.09292  0.74289  1.0000
  C   C1549     1.0  0.84344  0.09429  0.76014  1.0000
  C   C1550     1.0  0.85851  0.10585  0.75285  1.0000
  C   C1551     1.0  0.85962  0.11615  0.72810  1.0000
  C   C1552     1.0  0.84536  0.11491  0.71090  1.0000
  C   C1553     1.0  0.83020  0.10342  0.71825  1.0000
  H   H1229     1.0  0.84270  0.08643  0.77938  1.0000
  H   H1230     1.0  0.86944  0.10661  0.76613  1.0000
  H   H1231     1.0  0.84609  0.12280  0.69166  1.0000
  H   H1232     1.0  0.81937  0.10259  0.70480  1.0000
  C   C1554     1.0  0.69533  0.09914  0.76141  1.0000
  C   C1555     1.0  0.68488  0.08323  0.76532  1.0000
  C   C1556     1.0  0.66529  0.08491  0.76690  1.0000
  C   C1557     1.0  0.65598  0.10245  0.76465  1.0000
  C   C1558     1.0  0.66644  0.11822  0.75895  1.0000
  C   C1559     1.0  0.68603  0.11657  0.75757  1.0000
  H   H1233     1.0  0.69188  0.06973  0.76806  1.0000
  H   H1234     1.0  0.65729  0.07260  0.77091  1.0000
  H   H1235     1.0  0.65945  0.13177  0.75706  1.0000
  H   H1236     1.0  0.69402  0.12893  0.75441  1.0000
  C   C1560     1.0  0.77473  0.01376  0.84658  1.0000
  C   C1561     1.0  0.77543  0.02953  0.86098  1.0000
  C   C1562     1.0  0.78208  0.02802  0.88692  1.0000
  C   C1563     1.0  0.78873  0.01090  0.89878  1.0000
  H   H1237     1.0  0.56392  0.17524  0.67219  1.0000
  C   C1564     1.0  0.65426  0.15803  0.57289  1.0000
  H   H1238     1.0  0.77041  0.04282  0.85241  1.0000
  H   H1239     1.0  0.78194  0.04022  0.89801  1.0000
  Fe  Fe116     1.0  0.81205  0.99478  0.96734  1.0000
  C   C1565     1.0  0.69619  0.13026  0.65886  1.0000
  S   S227      1.0  0.52553  0.15342  0.53386  1.0000
  H   H1240     1.0  0.97684  0.12542  0.85137  1.0000
  C   C1566     1.0  0.50392  0.14974  0.66754  1.0000
  C   C1567     1.0  0.69856  0.01545  0.72225  1.0000
  C   C1568     1.0  0.84720  0.13585  0.97283  1.0000
  H   H1241     1.0  0.54144  0.15522  0.70274  1.0000
  C   C1569     1.0  0.66971  0.01888  0.68810  1.0000
  C   C1570     1.0  0.67981  0.03448  0.69175  1.0000
  C   C1571     1.0  0.69417  0.03268  0.70916  1.0000
  P   P53       1.0  0.67427  0.05659  0.67426  1.0000
  C   C1572     1.0  0.69454  0.07046  0.67267  1.0000
  C   C1573     1.0  0.66874  0.05250  0.64070  1.0000
  C   C1574     1.0  0.67855  0.03854  0.62673  1.0000
  C   C1575     1.0  0.67424  0.03525  0.60091  1.0000
  C   C1576     1.0  0.66011  0.04583  0.58880  1.0000
  C   C1577     1.0  0.65022  0.05971  0.60252  1.0000
  C   C1578     1.0  0.65441  0.06296  0.62842  1.0000
  C   C1579     1.0  0.69643  0.08300  0.69218  1.0000
  C   C1580     1.0  0.71271  0.09274  0.69189  1.0000
  C   C1581     1.0  0.72723  0.09004  0.67226  1.0000
  C   C1582     1.0  0.72555  0.07746  0.65302  1.0000
  C   C1583     1.0  0.70937  0.06755  0.65343  1.0000
  C   C1584     1.0  0.65465  0.06844  0.69121  1.0000
  C   C1585     1.0  0.64192  0.05857  0.70888  1.0000
  C   C1586     1.0  0.62621  0.06779  0.72067  1.0000
  C   C1587     1.0  0.62307  0.08682  0.71478  1.0000
  C   C1588     1.0  0.63580  0.09677  0.69752  1.0000
  C   C1589     1.0  0.65157  0.08765  0.68583  1.0000
  H   H1242     1.0  0.58584  0.18799  0.81853  1.0000
  C   C1590     1.0  0.69704  0.07457  0.55589  1.0000
  C   C1591     1.0  0.97873  0.13754  0.95450  1.0000
  H   H1243     1.0  0.65854  0.01997  0.67487  1.0000
  H   H1244     1.0  0.70232  0.04439  0.71230  1.0000
  H   H1245     1.0  0.68963  0.03024  0.63569  1.0000
  H   H1246     1.0  0.68202  0.02464  0.59006  1.0000
  H   H1247     1.0  0.65698  0.04337  0.56867  1.0000
  H   H1248     1.0  0.63941  0.06804  0.59292  1.0000
  H   H1249     1.0  0.64643  0.07362  0.63866  1.0000
  H   H1250     1.0  0.68567  0.08485  0.70818  1.0000
  H   H1251     1.0  0.71427  0.10209  0.70728  1.0000
  C   C1592     1.0  0.81973  0.01864  0.80330  1.0000
  H   H1252     1.0  0.73724  0.07454  0.63877  1.0000
  H   H1253     1.0  0.70887  0.05700  0.63955  1.0000
  H   H1254     1.0  0.64407  0.04383  0.71369  1.0000
  H   H1255     1.0  0.61654  0.06026  0.73465  1.0000
  H   H1256     1.0  0.61100  0.09397  0.72417  1.0000
  H   H1257     1.0  0.63349  0.11158  0.69346  1.0000
  H   H1258     1.0  0.66131  0.09555  0.67248  1.0000
  H   H1259     1.0  0.51064  0.13201  0.58198  1.0000
  H   H1260     1.0  0.88186  0.02025  0.84782  1.0000
  C   C1593     1.0  0.62917  0.09731  0.50652  1.0000
  C   C1594     1.0  0.51233  0.12232  0.75624  1.0000
  C   C1595     1.0  0.66872  0.14450  0.57486  1.0000
  C   C1596     1.0  0.86939  0.16266  0.85642  1.0000
  C   C1597     1.0  0.87650  0.17365  0.83420  1.0000
  H   H1261     1.0  0.97466  0.17058  0.90359  1.0000
  H   H1262     1.0  0.62591  0.12992  0.96718  1.0000
  C   C1598     1.0  0.64119  0.11703  0.59729  1.0000
  H   H1263     1.0  0.87784  0.15924  0.87306  1.0000
  C   C1599     1.0  0.65349  0.15090  0.80942  1.0000
  H   H1264     1.0  0.87245  0.05504  0.85714  1.0000
  C   C1600     1.0  0.67260  0.14650  0.80767  1.0000
  C   C1601     1.0  0.69704  0.07567  0.58350  1.0000
  C   C1602     1.0  0.71789  0.00543  0.61212  1.0000
  C   C1603     1.0  0.94271  0.06589  0.99811  1.0000
  C   C1604     1.0  0.82250  0.14288  0.78443  1.0000
  H   H1265     1.0  0.54678  0.09169  0.64530  1.0000
  H   H1266     1.0  0.64098  0.15592  0.58406  1.0000
  C   C1605     1.0  0.61317  0.11366  0.57475  1.0000
  C   C1606     1.0  0.98949  0.09205  0.91244  1.0000
  C   C1607     1.0  0.51299  0.16194  0.71617  1.0000
  H   H1267     1.0  0.98501  0.05515  0.89675  1.0000
  C   C1608     1.0  0.65935  0.13696  0.64649  1.0000
  H   H1268     1.0  0.70400  0.06467  0.59523  1.0000
  S   S228      1.0  0.93548  0.16828  0.99294  1.0000
  S   S229      1.0  0.89049  0.16167  0.99496  1.0000
  C   C1609     1.0  0.84912  0.17074  0.73602  1.0000
  C   C1610     1.0  0.88194  0.06749  0.78093  1.0000
  H   H1269     1.0  0.89776  0.07616  0.84035  1.0000
  C   C1611     1.0  0.88948  0.07014  0.82646  1.0000
  C   C1612     1.0  0.82710  0.05141  0.84118  1.0000
  H   H1270     1.0  0.51968  0.18907  0.56593  1.0000
  H   H1271     1.0  0.83054  0.04656  0.88373  1.0000
  H   H1272     1.0  0.85350  0.16476  0.96968  1.0000
  H   H1273     1.0  0.68692  0.09055  0.61745  1.0000
  H   H1274     1.0  0.97594  0.09753  0.98281  1.0000
  H   H1275     1.0  0.96922  0.04546  0.94874  1.0000
  H   H1276     1.0  0.89570  0.05185  0.99996  1.0000
  H   H1277     1.0  0.77067  0.15630  0.77484  1.0000
  H   H1278     1.0  0.56274  0.09077  0.51707  1.0000
  C   C1613     1.0  0.50846  0.15085  0.79087  1.0000
  H   H1279     1.0  0.80910  0.02449  0.81707  1.0000
  C   C1614     1.0  0.53893  0.10054  0.63146  1.0000
  C   C1615     1.0  0.54292  0.09989  0.60384  1.0000
  C   C1616     1.0  0.53265  0.11127  0.58613  1.0000
  C   C1617     1.0  0.85943  0.17482  0.71161  1.0000
  Fe  Fe117     1.0  0.67368  0.01980  0.50690  1.0000
  C   C1618     1.0  0.80782  0.06595  0.87627  1.0000
  H   H1280     1.0  0.60619  0.10015  0.64104  1.0000
  S   S230      1.0  0.66260  0.05004  0.51149  1.0000
  C   C1619     1.0  0.60398  0.10702  0.59890  1.0000
  H   H1281     1.0  0.55388  0.09052  0.59616  1.0000
  H   H1282     1.0  0.53558  0.11076  0.56471  1.0000
  C   C1620     1.0  0.78123  0.99660  0.85855  1.0000
  H   H1283     1.0  0.80402  0.06728  0.89733  1.0000
  C   C1621     1.0  0.68755  0.09047  0.59588  1.0000
  H   H1284     1.0  0.98764  0.17739  0.85074  1.0000
  C   C1622     1.0  0.67872  0.10346  0.55261  1.0000
  C   C1623     1.0  0.98638  0.19211  0.65712  1.0000
  C   C1624     1.0  0.87074  0.01397  0.86065  1.0000
  H   H1285     1.0  0.63466  0.00172  0.61076  1.0000
  H   H1286     1.0  0.74008  0.09714  0.67261  1.0000
  C   C1625     1.0  0.83998  0.10405  0.84648  1.0000
  C   C1626     1.0  0.85502  0.11029  0.82945  1.0000
  C   C1627     1.0  0.87209  0.11247  0.83966  1.0000
  C   C1628     1.0  0.87425  0.10814  0.86684  1.0000
  C   C1629     1.0  0.85932  0.10159  0.88416  1.0000
  C   C1630     1.0  0.84206  0.09986  0.87378  1.0000
  P   P54       1.0  0.86221  0.09658  0.91953  1.0000
  C   C1631     1.0  0.85923  0.11814  0.93554  1.0000
  C   C1632     1.0  0.84552  0.07980  0.93347  1.0000
  C   C1633     1.0  0.85089  0.06093  0.93770  1.0000
  C   C1634     1.0  0.83770  0.04794  0.94705  1.0000
  C   C1635     1.0  0.81912  0.05362  0.95261  1.0000
  C   C1636     1.0  0.81370  0.07239  0.94902  1.0000
  C   C1637     1.0  0.82679  0.08542  0.93928  1.0000
  C   C1638     1.0  0.84947  0.11902  0.96080  1.0000
  C   C1639     1.0  0.68865  0.99993  0.71819  1.0000
  C   C1640     1.0  0.85494  0.15183  0.96000  1.0000
  C   C1641     1.0  0.86545  0.15089  0.93548  1.0000
  C   C1642     1.0  0.86767  0.13408  0.92337  1.0000
  C   C1643     1.0  0.88561  0.08726  0.92319  1.0000
  C   C1644     1.0  0.89382  0.07481  0.90518  1.0000
  C   C1645     1.0  0.91222  0.06821  0.90700  1.0000
  C   C1646     1.0  0.92252  0.07391  0.92700  1.0000
  C   C1647     1.0  0.91433  0.08601  0.94536  1.0000
  C   C1648     1.0  0.89593  0.09269  0.94352  1.0000
  H   H1287     1.0  0.82675  0.10239  0.83844  1.0000
  H   H1288     1.0  0.85348  0.11338  0.80834  1.0000
  H   H1289     1.0  0.88377  0.11733  0.82644  1.0000
  H   H1290     1.0  0.88765  0.10981  0.87424  1.0000
  H   H1291     1.0  0.83018  0.09518  0.88651  1.0000
  H   H1292     1.0  0.86520  0.05607  0.93401  1.0000
  H   H1293     1.0  0.84193  0.03341  0.95026  1.0000
  H   H1294     1.0  0.80895  0.04343  0.95966  1.0000
  H   H1295     1.0  0.79929  0.07675  0.95350  1.0000
  H   H1296     1.0  0.82227  0.09985  0.93610  1.0000
  H   H1297     1.0  0.84407  0.10668  0.97168  1.0000
  H   H1298     1.0  0.61215  0.05201  0.52732  1.0000
  H   H1299     1.0  0.87237  0.16304  0.92630  1.0000
  H   H1300     1.0  0.87641  0.13344  0.90492  1.0000
  H   H1301     1.0  0.88601  0.07037  0.88959  1.0000
  H   H1302     1.0  0.91856  0.05888  0.89269  1.0000
  H   H1303     1.0  0.93688  0.06912  0.92808  1.0000
  H   H1304     1.0  0.92228  0.09039  0.96090  1.0000
  H   H1305     1.0  0.88988  0.10215  0.95788  1.0000
  H   H1306     1.0  0.83703  0.13891  0.78627  1.0000
  H   H1307     1.0  0.88962  0.99655  0.88376  1.0000
  C   C1649     1.0  0.86769  0.19192  0.70633  1.0000
  C   C1650     1.0  0.98052  0.11624  0.86840  1.0000
  C   C1651     1.0  0.64805  0.12316  0.83912  1.0000
  C   C1652     1.0  0.64128  0.13933  0.82517  1.0000
  P   P55       1.0  0.63234  0.10836  0.86003  1.0000
  C   C1653     1.0  0.63016  0.11567  0.89373  1.0000
  C   C1654     1.0  0.60969  0.10998  0.84673  1.0000
  C   C1655     1.0  0.59720  0.12496  0.85241  1.0000
  C   C1656     1.0  0.57991  0.12663  0.84152  1.0000
  C   C1657     1.0  0.57493  0.11336  0.82497  1.0000
  C   C1658     1.0  0.58722  0.09842  0.81929  1.0000
  C   C1659     1.0  0.60452  0.09670  0.83013  1.0000
  C   C1660     1.0  0.64443  0.12518  0.90336  1.0000
  C   C1661     1.0  0.64285  0.13034  0.92975  1.0000
  C   C1662     1.0  0.62706  0.12600  0.94670  1.0000
  H   H1308     1.0  0.84605  0.14741  0.87424  1.0000
  C   C1663     1.0  0.61438  0.11127  0.91092  1.0000
  C   C1664     1.0  0.64173  0.08469  0.86031  1.0000
  C   C1665     1.0  0.65029  0.07800  0.83666  1.0000
  C   C1666     1.0  0.65848  0.06009  0.83672  1.0000
  C   C1667     1.0  0.65801  0.04860  0.86043  1.0000
  C   C1668     1.0  0.64929  0.05503  0.88405  1.0000
  C   C1669     1.0  0.64117  0.07301  0.88404  1.0000
  H   H1309     1.0  0.53864  0.11652  0.51585  1.0000
  C   C1670     1.0  0.84692  0.18387  0.75533  1.0000
  C   C1671     1.0  0.63166  0.11874  0.57393  1.0000
  C   C1672     1.0  0.67394  0.17734  0.54202  1.0000
  H   H1310     1.0  0.62657  0.14293  0.82606  1.0000
  H   H1311     1.0  0.60095  0.13555  0.86483  1.0000
  H   H1312     1.0  0.57042  0.13837  0.84542  1.0000
  H   H1313     1.0  0.56165  0.11486  0.81617  1.0000
  H   H1314     1.0  0.58354  0.08837  0.80594  1.0000
  H   H1315     1.0  0.61394  0.08526  0.82480  1.0000
  H   H1316     1.0  0.65686  0.12850  0.89066  1.0000
  H   H1317     1.0  0.50686  0.16174  0.80456  1.0000
  H   H1318     1.0  0.81440  0.11460  0.78362  1.0000
  H   H1319     1.0  0.84009  0.13631  0.99266  1.0000
  H   H1320     1.0  0.60336  0.10365  0.90403  1.0000
  H   H1321     1.0  0.65080  0.08679  0.81824  1.0000
  H   H1322     1.0  0.66533  0.05522  0.81838  1.0000
  C   C1673     1.0  0.81430  0.00747  0.78410  1.0000
  H   H1323     1.0  0.64898  0.04610  0.90243  1.0000
  H   H1324     1.0  0.63467  0.07772  0.90261  1.0000
  C   C1674     1.0  0.72537  0.00789  0.65890  1.0000
  C   C1675     1.0  0.59830  0.01967  0.57705  1.0000
  H   H1325     1.0  0.95786  0.12635  0.89445  1.0000
  C   C1676     1.0  0.52263  0.15020  0.67324  1.0000
  C   C1677     1.0  0.85205  0.01898  0.85689  1.0000
  C   C1678     1.0  0.61342  0.10501  0.62218  1.0000
  H   H1326     1.0  0.64519  0.14049  0.64164  1.0000
  H   H1327     1.0  0.85687  0.99560  0.75469  1.0000
  H   H1328     1.0  0.62880  0.02421  0.50969  1.0000
  C   C1679     1.0  0.79119  0.13393  0.77912  1.0000
  C   C1680     1.0  0.50558  0.15400  0.51561  1.0000
  S   S231      1.0  0.56845  0.18420  0.52451  1.0000
  H   H1329     1.0  0.62720  0.10977  0.51708  1.0000
  C   C1681     1.0  0.63203  0.10970  0.62128  1.0000
  H   H1330     1.0  0.95527  0.15199  0.93728  1.0000
  H   H1331     1.0  0.65455  0.14678  0.68602  1.0000
  C   C1682     1.0  0.59984  0.03697  0.56263  1.0000
  H   H1332     1.0  0.66729  0.99387  0.62067  1.0000
  C   C1683     1.0  0.68864  0.16416  0.54454  1.0000
  H   H1333     1.0  0.54422  0.17442  0.63423  1.0000
  C   C1684     1.0  0.83862  0.02207  0.80461  1.0000
  C   C1685     1.0  0.71697  0.99867  0.63934  1.0000
  S   S232      1.0  0.92076  0.12663  0.98472  1.0000
  C   C1686     1.0  0.84058  0.16068  0.83556  1.0000
  H   H1334     1.0  0.52193  0.11299  0.66285  1.0000
  H   H1335     1.0  0.66827  0.18076  0.65655  1.0000
  C   C1687     1.0  0.68786  0.08844  0.54046  1.0000
  H   H1336     1.0  0.54169  0.18365  0.75036  1.0000
  H   H1337     1.0  0.64949  0.08456  0.53218  1.0000
  C   C1688     1.0  0.96962  0.11657  0.89264  1.0000
  C   C1689     1.0  0.67221  0.12861  0.62801  1.0000
  H   H1338     1.0  0.70998  0.01406  0.73510  1.0000
  C   C1690     1.0  0.80982  0.12909  0.78265  1.0000
  C   C1691     1.0  0.69084  0.12588  0.63404  1.0000
  C   C1692     1.0  0.87521  0.00040  0.88080  1.0000
  Fe  Fe118     1.0  0.91563  0.17075  0.77060  1.0000
  H   H1339     1.0  0.90361  0.08429  0.79182  1.0000
  C   C1693     1.0  0.86773  0.05555  0.79024  1.0000
  H   H1340     1.0  0.79402  0.08088  0.81474  1.0000
  Fe  Fe119     1.0  0.55517  0.15793  0.51659  1.0000
  C   C1694     1.0  0.80204  0.07351  0.82986  1.0000
  H   H1341     1.0  0.64808  0.16309  0.79815  1.0000
  S   S233      1.0  0.70459  0.01306  0.50927  1.0000
  C   C1695     1.0  0.79737  0.07560  0.85703  1.0000
  C   C1696     1.0  0.86458  0.05049  0.81775  1.0000
  S   S234      1.0  0.66534  0.00079  0.54306  1.0000
  C   C1697     1.0  0.96482  0.05579  0.96263  1.0000
  C   C1698     1.0  0.94885  0.05280  0.97997  1.0000
  H   H1342     1.0  0.79966  0.00511  0.78303  1.0000
  C   C1699     1.0  0.89280  0.07478  0.79902  1.0000
  H   H1343     1.0  0.97015  0.12958  0.96943  1.0000
  C   C1700     1.0  0.82275  0.05399  0.86844  1.0000
  H   H1344     1.0  0.82021  0.05978  0.80094  1.0000
  H   H1345     1.0  0.67137  0.11385  0.54028  1.0000
  C   C1701     1.0  0.98134  0.16091  0.91760  1.0000
  C   C1702     1.0  0.78512  0.15260  0.77776  1.0000
  C   C1703     1.0  0.61284  0.11647  0.93728  1.0000
  C   C1704     1.0  0.52493  0.11282  0.64136  1.0000
  H   H1346     1.0  0.68713  0.14022  0.69736  1.0000
  S   S235      1.0  0.79772  0.01017  0.93138  1.0000
  C   C1705     1.0  0.87528  0.05820  0.83583  1.0000
  C   C1706     1.0  0.97032  0.15029  0.93650  1.0000
  C   C1707     1.0  0.67420  0.00165  0.70117  1.0000
  H   H1347     1.0  0.60066  0.11297  0.95047  1.0000
  P   P56       1.0  0.83299  0.17928  0.78655  1.0000
  P   P57       1.0  0.84584  0.03569  0.83023  1.0000
  C   C1708     1.0  0.51519  0.12496  0.62368  1.0000
  H   H1348     1.0  0.98452  0.16042  0.81063  1.0000
  H   H1349     1.0  0.59287  0.04921  0.57050  1.0000
  H   H1350     1.0  0.51629  0.16555  0.73562  1.0000
  P   P58       1.0  0.66520  0.12336  0.59579  1.0000
  H   H1351     1.0  0.66450  0.03476  0.86049  1.0000
  H   H1352     1.0  0.63912  0.10773  0.63939  1.0000
  C   C1709     1.0  0.79769  0.16644  0.78001  1.0000
  H   H1353     1.0  0.69428  0.12687  0.81979  1.0000
  C   C1710     1.0  0.61070  0.03857  0.53829  1.0000
  H   H1354     1.0  0.91337  0.17350  0.86900  1.0000
  H   H1355     1.0  0.50021  0.19327  0.85638  1.0000
  C   C1711     1.0  0.81648  0.16166  0.78353  1.0000
  C   C1712     1.0  0.86574  0.17811  0.81256  1.0000
  H   H1356     1.0  0.68202  0.15521  0.79497  1.0000
  H   H1357     1.0  0.85896  0.05075  0.77593  1.0000
  H   H1358     1.0  0.96817  0.17879  0.75086  1.0000
  C   C1713     1.0  0.67951  0.13056  0.82172  1.0000
  H   H1359     1.0  0.69760  0.13772  0.56269  1.0000
  H   H1360     1.0  0.89048  0.17860  0.83350  1.0000
  H   H1361     1.0  0.65394  0.13761  0.93710  1.0000
  H   H1362     1.0  0.96502  0.10478  0.93288  1.0000
  H   H1363     1.0  0.88420  0.07147  0.75967  1.0000
  C   C1714     1.0  0.83796  0.00973  0.87278  1.0000
  H   H1364     1.0  0.72449  0.00229  0.67953  1.0000
  P   P59       1.0  0.49791  0.14163  0.63649  1.0000
  H   H1365     1.0  0.70130  0.12055  0.61957  1.0000
  C   C1715     1.0  0.67865  0.10471  0.58041  1.0000
  H   H1366     1.0  0.68740  0.08724  0.51912  1.0000
  H   H1367     1.0  0.86127  0.16453  0.69692  1.0000
  H   H1368     1.0  0.96970  0.17344  0.63895  1.0000
  H   H1369     1.0  0.84312  0.15726  0.73960  1.0000
  H   H1370     1.0  0.82658  0.15579  0.83665  1.0000
  C   C1716     1.0  0.50831  0.18487  0.58026  1.0000
  C   C1717     1.0  0.65677  0.17428  0.55626  1.0000
  C   C1718     1.0  0.96848  0.08502  0.98165  1.0000
  H   H1371     1.0  0.70379  0.06274  0.54648  1.0000
  C   C1719     1.0  0.84765  0.17176  0.81311  1.0000
  C   C1720     1.0  0.97388  0.10437  0.91449  1.0000
  C   C1721     1.0  0.49537  0.16233  0.61435  1.0000
  H   H1372     1.0  0.78153  0.12316  0.77714  1.0000
  C   C1722     1.0  0.78832  0.99519  0.88420  1.0000
  C   C1723     1.0  0.51863  0.12353  0.59600  1.0000
  C   C1724     1.0  0.85201  0.01327  0.78743  1.0000
  Fe  Fe120     1.0  0.69604  0.99399  0.54544  1.0000
  C   C1725     1.0  0.61999  0.02288  0.52827  1.0000
  H   H1373     1.0  0.79265  0.18077  0.77896  1.0000
  C   C1726     1.0  0.61840  0.00556  0.54254  1.0000
  C   C1727     1.0  0.95253  0.08196  0.99895  1.0000
  C   C1728     1.0  0.64202  0.08307  0.51476  1.0000
  H   H1374     1.0  0.95659  0.18043  0.86558  1.0000
  C   C1729     1.0  0.84245  0.99620  0.89287  1.0000
  C   C1730     1.0  0.51037  0.16861  0.59693  1.0000
  H   H1375     1.0  0.82347  0.01292  0.86952  1.0000
  C   C1731     1.0  0.60750  0.00379  0.56699  1.0000
  H   H1376     1.0  0.87166  0.18651  0.79549  1.0000
  H   H1377     1.0  0.55653  0.18991  0.79606  1.0000
  H   H1378     1.0  0.99429  0.15019  0.75850  1.0000
  H   H1379     1.0  0.99436  0.18305  0.71681  1.0000
  H   H1380     1.0  0.64540  0.19241  0.69165  1.0000
  H   H1381     1.0  0.64528  0.18440  0.55427  1.0000
  H   H1382     1.0  0.66307  0.18778  0.60861  1.0000
  C   C1732     1.0  0.97108  0.19261  0.74212  1.0000
  H   H1383     1.0  0.50431  0.19287  0.65224  1.0000
  C   C1733     1.0  0.94723  0.19242  0.86781  1.0000
  C   C1734     1.0  0.65315  0.19298  0.62391  1.0000
  C   C1735     1.0  0.65606  0.18896  0.65091  1.0000
  H   H1384     1.0  0.67581  0.18989  0.52898  1.0000
  C   C1736     1.0  0.82765  0.99933  0.76641  1.0000
  C   C1737     1.0  0.84652  0.00213  0.76819  1.0000
  C   C1738     1.0  0.99498  0.14533  0.71669  1.0000
  H   H1385     1.0  0.95040  0.19349  0.91004  1.0000
  C   C1739     1.0  0.54404  0.24855  0.44920  1.0000
  C   C1740     1.0  0.90449  0.23753  0.03586  1.0000
  C   C1741     1.0  0.87066  0.38890  0.01201  1.0000
  H   H1386     1.0  0.76676  0.37812  0.14260  1.0000
  H   H1387     1.0  0.50364  0.23280  0.41139  1.0000
  S   S236      1.0  0.59780  0.29438  0.46539  1.0000
  H   H1388     1.0  0.50036  0.29689  0.45069  1.0000
  H   H1389     1.0  0.98828  0.27678  0.01754  1.0000
  P   P60       1.0  0.52108  0.26932  0.48385  1.0000
  H   H1390     1.0  0.97702  0.21794  0.05039  1.0000
  C   C1742     1.0  0.54555  0.29698  0.46572  1.0000
  C   C1743     1.0  0.54778  0.23755  0.42754  1.0000
  H   H1391     1.0  0.90163  0.26756  0.03140  1.0000
  Fe  Fe121     1.0  0.59162  0.31472  0.49768  1.0000
  H   H1392     1.0  0.56206  0.23379  0.42095  1.0000
  H   H1393     1.0  0.53621  0.22351  0.39699  1.0000
  S   S237      1.0  0.96427  0.31864  0.02738  1.0000
  Fe  Fe122     1.0  0.93866  0.32714  0.00527  1.0000
  S   S238      1.0  0.91015  0.31889  0.02297  1.0000
  C   C1744     1.0  0.51974  0.31740  0.43540  1.0000
  C   C1745     1.0  0.51108  0.24769  0.44421  1.0000
  C   C1746     1.0  0.51441  0.30138  0.45100  1.0000
  H   H1394     1.0  0.50973  0.32538  0.42376  1.0000
  H   H1395     1.0  0.90350  0.23690  0.05752  1.0000
  C   C1747     1.0  0.90629  0.22093  0.02282  1.0000
  H   H1396     1.0  0.56519  0.31695  0.44869  1.0000
  S   S239      1.0  0.58609  0.20828  0.45460  1.0000
  Fe  Fe123     1.0  0.89971  0.34598  0.00194  1.0000
  C   C1748     1.0  0.49712  0.33845  0.49069  1.0000
  H   H1397     1.0  0.49687  0.25190  0.45006  1.0000
  C   C1749     1.0  0.52564  0.25339  0.45802  1.0000
  H   H1398     1.0  0.49869  0.34130  0.46921  1.0000
  C   C1750     1.0  0.55090  0.31283  0.44975  1.0000
  C   C1751     1.0  0.53321  0.23174  0.41406  1.0000
  C   C1752     1.0  0.90350  0.25494  0.02109  1.0000
  C   C1753     1.0  0.99485  0.26281  0.06907  1.0000
  H   H1399     1.0  0.55592  0.28902  0.47673  1.0000
  H   H1400     1.0  0.84195  0.38764  0.02743  1.0000
  C   C1754     1.0  0.98097  0.26619  0.00903  1.0000
  H   H1401     1.0  0.55552  0.25362  0.45868  1.0000
  H   H1402     1.0  0.98098  0.25948  0.06479  1.0000
  C   C1755     1.0  0.51486  0.23691  0.42229  1.0000
  C   C1756     1.0  0.98660  0.32573  0.01465  1.0000
  C   C1757     1.0  0.59044  0.23159  0.46055  1.0000
  C   C1758     1.0  0.58633  0.23929  0.48534  1.0000
  C   C1759     1.0  0.58816  0.25861  0.48754  1.0000
  C   C1760     1.0  0.59473  0.27009  0.46513  1.0000
  C   C1761     1.0  0.59912  0.26212  0.44078  1.0000
  C   C1762     1.0  0.59688  0.24319  0.43847  1.0000
  H   H1403     1.0  0.60418  0.27073  0.42335  1.0000
  H   H1404     1.0  0.60009  0.23753  0.41923  1.0000
  C   C1763     1.0  0.79084  0.38056  0.16449  1.0000
  C   C1764     1.0  0.53797  0.32317  0.43486  1.0000
  C   C1765     1.0  0.80638  0.39087  0.16718  1.0000
  H   H1405     1.0  0.54217  0.33555  0.42276  1.0000
  S   S240      1.0  0.57151  0.33965  0.49336  1.0000
  C   C1766     1.0  0.52720  0.29124  0.46664  1.0000
  C   C1767     1.0  0.98753  0.24757  0.01051  1.0000
  H   H1406     1.0  0.78797  0.36844  0.17804  1.0000
  H   H1407     1.0  0.52677  0.33587  0.49486  1.0000
  C   C1768     1.0  0.98990  0.20975  0.05199  1.0000
  S   S241      1.0  0.87499  0.36445  0.01788  1.0000
  H   H1408     1.0  0.81553  0.38675  0.18286  1.0000
  S   S242      1.0  0.90599  0.19922  0.04195  1.0000
  H   H1409     1.0  0.49982  0.19964  0.49958  1.0000
  C   C1769     1.0  0.77893  0.38599  0.14448  1.0000
  C   C1770     1.0  0.49740  0.26900  0.49835  1.0000
  H   H1410     1.0  0.98465  0.28112  0.09933  1.0000
  H   H1411     1.0  0.49719  0.20520  0.34761  1.0000
  Fe  Fe124     1.0  0.59919  0.32243  0.55356  1.0000
  C   C1771     1.0  0.55410  0.28005  0.83223  1.0000
  S   S243      1.0  0.61430  0.31165  0.58937  1.0000
  S   S244      1.0  0.57910  0.30426  0.53774  1.0000
  S   S245      1.0  0.57908  0.34693  0.55450  1.0000
  Fe  Fe125     1.0  0.57735  0.29922  0.75754  1.0000
  S   S246      1.0  0.58155  0.31341  0.79469  1.0000
  S   S247      1.0  0.56786  0.26970  0.75791  1.0000
  Fe  Fe126     1.0  0.57643  0.33611  0.72438  1.0000
  S   S248      1.0  0.58028  0.35300  0.75893  1.0000
  S   S249      1.0  0.57128  0.35083  0.68477  1.0000
  Fe  Fe127     1.0  0.60235  0.33102  0.76894  1.0000
  S   S250      1.0  0.63243  0.33438  0.77978  1.0000
  Fe  Fe128     1.0  0.55927  0.33398  0.78086  1.0000
  S   S251      1.0  0.53463  0.34306  0.80854  1.0000
  S   S252      1.0  0.59956  0.31506  0.73264  1.0000
  S   S253      1.0  0.55409  0.31899  0.74544  1.0000
  Fe  Fe129     1.0  0.92444  0.33950  0.95164  1.0000
  S   S254      1.0  0.93356  0.34961  0.90946  1.0000
  C   C1772     1.0  0.51772  0.20176  0.75823  1.0000
  Fe  Fe130     1.0  0.89597  0.31676  0.78664  1.0000
  S   S255      1.0  0.90622  0.34403  0.76833  1.0000
  S   S256      1.0  0.89012  0.30805  0.83003  1.0000
  Fe  Fe131     1.0  0.89709  0.29935  0.73367  1.0000
  S   S257      1.0  0.90681  0.32549  0.71088  1.0000
  S   S258      1.0  0.89585  0.27286  0.71287  1.0000
  Fe  Fe132     1.0  0.92667  0.32678  0.74311  1.0000
  S   S259      1.0  0.95815  0.32335  0.73436  1.0000
  Fe  Fe133     1.0  0.88537  0.34030  0.73811  1.0000
  H   H1412     1.0  0.54067  0.23477  0.50386  1.0000
  S   S260      1.0  0.91762  0.29996  0.76420  1.0000
  S   S261      1.0  0.87413  0.31384  0.75815  1.0000
  Fe  Fe134     1.0  0.56014  0.32972  0.53460  1.0000
  C   C1773     1.0  0.83156  0.35242  0.74190  1.0000
  H   H1413     1.0  0.80407  0.34288  0.75426  1.0000
  H   H1414     1.0  0.83820  0.33873  0.74422  1.0000
  C   C1774     1.0  0.82101  0.37249  0.90389  1.0000
  C   C1775     1.0  0.74128  0.30294  0.62961  1.0000
  C   C1776     1.0  0.96447  0.27133  0.99723  1.0000
  H   H1415     1.0  0.77642  0.33278  0.62778  1.0000
  H   H1416     1.0  0.95474  0.32271  0.82991  1.0000
  C   C1777     1.0  0.90741  0.21949  0.76526  1.0000
  C   C1778     1.0  0.90350  0.23641  0.77680  1.0000
  C   C1779     1.0  0.90013  0.25279  0.76082  1.0000
  C   C1780     1.0  0.90096  0.25249  0.73300  1.0000
  C   C1781     1.0  0.90551  0.23570  0.72124  1.0000
  C   C1782     1.0  0.90874  0.21919  0.73736  1.0000
  H   H1417     1.0  0.90269  0.23689  0.79824  1.0000
  H   H1418     1.0  0.89644  0.26558  0.77013  1.0000
  H   H1419     1.0  0.90624  0.23538  0.69969  1.0000
  C   C1783     1.0  0.98600  0.19505  0.72287  1.0000
  C   C1784     1.0  0.92167  0.33805  0.88723  1.0000
  C   C1785     1.0  0.92347  0.34344  0.85982  1.0000
  C   C1786     1.0  0.91386  0.33423  0.84201  1.0000
  C   C1787     1.0  0.90226  0.31985  0.85168  1.0000
  C   C1788     1.0  0.90053  0.31446  0.87904  1.0000
  C   C1789     1.0  0.91041  0.32340  0.89672  1.0000
  H   H1420     1.0  0.93234  0.35464  0.85238  1.0000
  H   H1421     1.0  0.91551  0.33824  0.82091  1.0000
  H   H1422     1.0  0.89192  0.30305  0.88653  1.0000
  H   H1423     1.0  0.90967  0.31853  0.91758  1.0000
  C   C1790     1.0  0.64746  0.35359  0.77726  1.0000
  C   C1791     1.0  0.64115  0.37194  0.77118  1.0000
  H   H1424     1.0  0.59501  0.38308  0.67920  1.0000
  C   C1792     1.0  0.98586  0.33005  0.55884  1.0000
  H   H1425     1.0  0.62671  0.37482  0.76744  1.0000
  H   H1426     1.0  0.94175  0.26219  0.97718  1.0000
  C   C1793     1.0  0.99414  0.35991  0.75733  1.0000
  C   C1794     1.0  0.58258  0.25000  0.75211  1.0000
  C   C1795     1.0  0.57447  0.23283  0.75166  1.0000
  C   C1796     1.0  0.58554  0.21665  0.74754  1.0000
  C   C1797     1.0  0.60485  0.21757  0.74328  1.0000
  C   C1798     1.0  0.61299  0.23484  0.74308  1.0000
  C   C1799     1.0  0.60189  0.25103  0.74760  1.0000
  H   H1427     1.0  0.55953  0.23204  0.75468  1.0000
  H   H1428     1.0  0.50558  0.21710  0.81897  1.0000
  H   H1429     1.0  0.62792  0.23568  0.73953  1.0000
  H   H1430     1.0  0.60821  0.26429  0.74744  1.0000
  H   H1431     1.0  0.97595  0.27672  0.70280  1.0000
  C   C1800     1.0  0.51099  0.33752  0.80731  1.0000
  H   H1432     1.0  0.58442  0.26461  0.50640  1.0000
  H   H1433     1.0  0.80896  0.30918  0.95709  1.0000
  H   H1434     1.0  0.51226  0.33125  0.76590  1.0000
  C   C1801     1.0  0.57070  0.23191  0.83260  1.0000
  C   C1802     1.0  0.60420  0.32292  0.61684  1.0000
  C   C1803     1.0  0.59802  0.34146  0.61343  1.0000
  C   C1804     1.0  0.58733  0.34974  0.63411  1.0000
  C   C1805     1.0  0.58376  0.33981  0.65880  1.0000
  C   C1806     1.0  0.59042  0.32137  0.66256  1.0000
  C   C1807     1.0  0.60069  0.31292  0.64154  1.0000
  H   H1435     1.0  0.60160  0.34946  0.59487  1.0000
  H   H1436     1.0  0.58217  0.36398  0.63121  1.0000
  H   H1437     1.0  0.58709  0.31344  0.68128  1.0000
  H   H1438     1.0  0.60522  0.29849  0.64399  1.0000
  H   H1439     1.0  0.77166  0.33005  0.72972  1.0000
  H   H1440     1.0  0.97405  0.32817  0.92400  1.0000
  C   C1808     1.0  0.81215  0.35479  0.74740  1.0000
  C   C1809     1.0  0.98956  0.34385  0.66300  1.0000
  C   C1810     1.0  0.55375  0.25462  0.55808  1.0000
  C   C1811     1.0  0.86828  0.24696  0.94665  1.0000
  C   C1812     1.0  0.87937  0.25028  0.92272  1.0000
  C   C1813     1.0  0.88906  0.23549  0.91048  1.0000
  C   C1814     1.0  0.88658  0.21724  0.92160  1.0000
  P   P61       1.0  0.90311  0.23983  0.87945  1.0000
  C   C1815     1.0  0.91696  0.25998  0.87931  1.0000
  C   C1816     1.0  0.92032  0.22126  0.87465  1.0000
  C   C1817     1.0  0.92461  0.21453  0.84933  1.0000
  P   P62       1.0  0.57700  0.25081  0.85110  1.0000
  C   C1818     1.0  0.58266  0.24099  0.88376  1.0000
  C   C1819     1.0  0.51329  0.33237  0.65843  1.0000
  C   C1820     1.0  0.93032  0.21408  0.89621  1.0000
  C   C1821     1.0  0.92198  0.26620  0.90339  1.0000
  C   C1822     1.0  0.93374  0.28102  0.90304  1.0000
  C   C1823     1.0  0.94077  0.28962  0.87866  1.0000
  C   C1824     1.0  0.93605  0.28336  0.85457  1.0000
  C   C1825     1.0  0.92428  0.26852  0.85487  1.0000
  C   C1826     1.0  0.88683  0.24215  0.85391  1.0000
  C   C1827     1.0  0.87939  0.22637  0.84499  1.0000
  C   C1828     1.0  0.86665  0.22831  0.82530  1.0000
  C   C1829     1.0  0.86112  0.24597  0.81466  1.0000
  C   C1830     1.0  0.86800  0.26172  0.82417  1.0000
  C   C1831     1.0  0.88057  0.25980  0.84403  1.0000
  C   C1832     1.0  0.49748  0.28161  0.80573  1.0000
  H   H1441     1.0  0.90749  0.23974  0.95863  1.0000
  C   C1833     1.0  0.63740  0.20361  0.61658  1.0000
  H   H1442     1.0  0.88085  0.26444  0.91430  1.0000
  C   C1834     1.0  0.55415  0.23290  0.81959  1.0000
  H   H1443     1.0  0.91749  0.22018  0.83226  1.0000
  H   H1444     1.0  0.76536  0.30822  0.60224  1.0000
  C   C1835     1.0  0.53983  0.29372  0.83445  1.0000
  C   C1836     1.0  0.52381  0.35944  0.63097  1.0000
  H   H1445     1.0  0.92746  0.21929  0.91586  1.0000
  H   H1446     1.0  0.91683  0.25975  0.92251  1.0000
  H   H1447     1.0  0.93703  0.28610  0.92177  1.0000
  H   H1448     1.0  0.94938  0.30149  0.87855  1.0000
  H   H1449     1.0  0.94107  0.29030  0.83564  1.0000
  H   H1450     1.0  0.92073  0.26388  0.83602  1.0000
  H   H1451     1.0  0.88364  0.21260  0.85295  1.0000
  H   H1452     1.0  0.86137  0.21614  0.81789  1.0000
  H   H1453     1.0  0.85162  0.24745  0.79895  1.0000
  H   H1454     1.0  0.86378  0.27548  0.81608  1.0000
  H   H1455     1.0  0.88539  0.27211  0.85170  1.0000
  C   C1837     1.0  0.61246  0.26374  0.56465  1.0000
  C   C1838     1.0  0.61416  0.25327  0.54234  1.0000
  C   C1839     1.0  0.61228  0.23410  0.54565  1.0000
  C   C1840     1.0  0.60897  0.22538  0.57133  1.0000
  C   C1841     1.0  0.60745  0.23571  0.59405  1.0000
  C   C1842     1.0  0.60916  0.25507  0.59039  1.0000
  P   P63       1.0  0.60376  0.22401  0.62735  1.0000
  C   C1843     1.0  0.59909  0.24086  0.65212  1.0000
  C   C1844     1.0  0.82034  0.20671  0.82103  1.0000
  C   C1845     1.0  0.96685  0.28576  0.69105  1.0000
  S   S262      1.0  0.92854  0.35509  0.98749  1.0000
  C   C1846     1.0  0.58203  0.21555  0.83233  1.0000
  C   C1847     1.0  0.93797  0.20009  0.84594  1.0000
  H   H1456     1.0  0.90927  0.20931  0.98452  1.0000
  C   C1848     1.0  0.61340  0.25205  0.65791  1.0000
  C   C1849     1.0  0.60987  0.26562  0.67622  1.0000
  C   C1850     1.0  0.59209  0.26806  0.68899  1.0000
  C   C1851     1.0  0.57797  0.25653  0.68415  1.0000
  C   C1852     1.0  0.58140  0.24297  0.66576  1.0000
  C   C1853     1.0  0.62439  0.21037  0.63629  1.0000
  H   H1457     1.0  0.50818  0.24248  0.72235  1.0000
  H   H1458     1.0  0.57912  0.20346  0.74783  1.0000
  H   H1459     1.0  0.57545  0.30118  0.60391  1.0000
  H   H1460     1.0  0.50200  0.28897  0.59034  1.0000
  C   C1854     1.0  0.50341  0.33226  0.78422  1.0000
  H   H1461     1.0  0.61384  0.27863  0.56193  1.0000
  C   C1855     1.0  0.96941  0.32445  0.83167  1.0000
  H   H1462     1.0  0.61345  0.22597  0.52828  1.0000
  H   H1463     1.0  0.60761  0.21052  0.57344  1.0000
  H   H1464     1.0  0.60807  0.26369  0.60710  1.0000
  C   C1856     1.0  0.98419  0.36371  0.89489  1.0000
  C   C1857     1.0  0.98775  0.32198  0.92727  1.0000
  H   H1465     1.0  0.53207  0.26794  0.68722  1.0000
  C   C1858     1.0  0.97391  0.31754  0.57320  1.0000
  C   C1859     1.0  0.57200  0.22676  0.89691  1.0000
  H   H1466     1.0  0.62723  0.25042  0.64798  1.0000
  H   H1467     1.0  0.62088  0.27435  0.68047  1.0000
  H   H1468     1.0  0.58935  0.27857  0.70323  1.0000
  H   H1469     1.0  0.56448  0.25805  0.69508  1.0000
  H   H1470     1.0  0.57020  0.23431  0.66222  1.0000
  H   H1471     1.0  0.52603  0.27765  0.79014  1.0000
  H   H1472     1.0  0.81017  0.33807  0.92749  1.0000
  Fe  Fe135     1.0  0.90814  0.30574  0.98423  1.0000
  C   C1860     1.0  0.61535  0.29007  0.82816  1.0000
  H   H1473     1.0  0.69268  0.36226  0.78710  1.0000
  H   H1474     1.0  0.79812  0.24900  0.81099  1.0000
  H   H1475     1.0  0.81177  0.22849  0.84689  1.0000
  C   C1861     1.0  0.51302  0.33551  0.50521  1.0000
  C   C1862     1.0  0.68990  0.37675  0.65312  1.0000
  H   H1476     1.0  0.61793  0.30399  0.83319  1.0000
  H   H1477     1.0  0.57438  0.26851  0.62212  1.0000
  H   H1478     1.0  0.97717  0.37249  0.85463  1.0000
  H   H1479     1.0  0.52152  0.24374  0.60960  1.0000
  C   C1863     1.0  0.98880  0.34048  0.99507  1.0000
  C   C1864     1.0  0.95471  0.25812  0.98591  1.0000
  H   H1480     1.0  0.86828  0.30074  0.94397  1.0000
  H   H1481     1.0  0.94340  0.34603  0.69357  1.0000
  C   C1865     1.0  0.50485  0.27975  0.67882  1.0000
  C   C1866     1.0  0.98100  0.36723  0.92200  1.0000
  H   H1482     1.0  0.84906  0.34430  0.78721  1.0000
  C   C1867     1.0  0.62748  0.20622  0.66343  1.0000
  H   H1483     1.0  0.56781  0.20812  0.93230  1.0000
  P   P64       1.0  0.76229  0.34849  0.67763  1.0000
  C   C1868     1.0  0.78710  0.34407  0.67937  1.0000
  C   C1869     1.0  0.79433  0.32572  0.68290  1.0000
  C   C1870     1.0  0.81347  0.32211  0.68431  1.0000
  C   C1871     1.0  0.82555  0.33676  0.68207  1.0000
  C   C1872     1.0  0.81851  0.35502  0.67840  1.0000
  C   C1873     1.0  0.79938  0.35871  0.67719  1.0000
  C   C1874     1.0  0.75033  0.34723  0.71071  1.0000
  C   C1875     1.0  0.75807  0.33694  0.73224  1.0000
  C   C1876     1.0  0.74868  0.33627  0.75779  1.0000
  C   C1877     1.0  0.73150  0.34579  0.76198  1.0000
  C   C1878     1.0  0.72360  0.35585  0.74056  1.0000
  C   C1879     1.0  0.73293  0.35653  0.71501  1.0000
  H   H1484     1.0  0.78516  0.31420  0.68488  1.0000
  H   H1485     1.0  0.81897  0.30797  0.68743  1.0000
  H   H1486     1.0  0.84034  0.33406  0.68373  1.0000
  H   H1487     1.0  0.61268  0.37889  0.63544  1.0000
  H   H1488     1.0  0.53064  0.29097  0.52659  1.0000
  C   C1880     1.0  0.99273  0.34445  0.57164  1.0000
  H   H1489     1.0  0.75510  0.32898  0.77455  1.0000
  H   H1490     1.0  0.72453  0.34574  0.78194  1.0000
  H   H1491     1.0  0.71050  0.36359  0.74389  1.0000
  H   H1492     1.0  0.72670  0.36464  0.69876  1.0000
  H   H1493     1.0  0.98002  0.24162  0.70792  1.0000
  H   H1494     1.0  0.59406  0.21963  0.95440  1.0000
  C   C1881     1.0  0.53492  0.26363  0.51180  1.0000
  H   H1495     1.0  0.95903  0.28552  0.99759  1.0000
  C   C1882     1.0  0.54123  0.20736  0.72153  1.0000
  C   C1883     1.0  0.53167  0.22387  0.71358  1.0000
  C   C1884     1.0  0.51528  0.22946  0.72819  1.0000
  H   H1496     1.0  0.83624  0.38140  0.84926  1.0000
  H   H1497     1.0  0.49707  0.23907  0.50241  1.0000
  C   C1885     1.0  0.99403  0.33533  0.85596  1.0000
  H   H1498     1.0  0.60892  0.37194  0.72133  1.0000
  C   C1886     1.0  0.67215  0.38343  0.77638  1.0000
  C   C1887     1.0  0.98256  0.31906  0.81145  1.0000
  H   H1499     1.0  0.61694  0.26006  0.52246  1.0000
  H   H1500     1.0  0.53708  0.23238  0.69628  1.0000
  H   H1501     1.0  0.95342  0.36544  0.61044  1.0000
  C   C1888     1.0  0.51103  0.33202  0.53305  1.0000
  H   H1502     1.0  0.52097  0.20960  0.61311  1.0000
  H   H1503     1.0  0.51785  0.30565  0.86013  1.0000
  C   C1889     1.0  0.95942  0.20776  0.74895  1.0000
  C   C1890     1.0  0.98775  0.25646  0.78334  1.0000
  C   C1891     1.0  0.61662  0.37012  0.70221  1.0000
  C   C1892     1.0  0.63420  0.36113  0.70130  1.0000
  C   C1893     1.0  0.64401  0.35827  0.67654  1.0000
  C   C1894     1.0  0.63639  0.36528  0.65281  1.0000
  P   P65       1.0  0.66732  0.34824  0.67537  1.0000
  C   C1895     1.0  0.67266  0.33556  0.64597  1.0000
  C   C1896     1.0  0.68163  0.36782  0.67667  1.0000
  C   C1897     1.0  0.97818  0.33404  0.74286  1.0000
  H   H1504     1.0  0.65180  0.31008  0.60348  1.0000
  C   C1898     1.0  0.75372  0.33089  0.65872  1.0000
  H   H1505     1.0  0.98005  0.23445  0.81357  1.0000
  C   C1899     1.0  0.64321  0.19555  0.67065  1.0000
  C   C1900     1.0  0.65860  0.32656  0.63495  1.0000
  C   C1901     1.0  0.66277  0.31675  0.61215  1.0000
  C   C1902     1.0  0.68098  0.31563  0.60041  1.0000
  C   C1903     1.0  0.69106  0.33379  0.63467  1.0000
  C   C1904     1.0  0.67010  0.33150  0.70343  1.0000
  C   C1905     1.0  0.65553  0.31995  0.71289  1.0000
  C   C1906     1.0  0.65760  0.30715  0.73490  1.0000
  C   C1907     1.0  0.67428  0.30563  0.74734  1.0000
  C   C1908     1.0  0.68903  0.31673  0.73752  1.0000
  C   C1909     1.0  0.68699  0.32954  0.71552  1.0000
  C   C1910     1.0  0.55854  0.19599  0.61008  1.0000
  C   C1911     1.0  0.86257  0.36774  0.90566  1.0000
  H   H1506     1.0  0.55337  0.37614  0.53561  1.0000
  H   H1507     1.0  0.64005  0.35641  0.71993  1.0000
  H   H1508     1.0  0.64392  0.36381  0.63349  1.0000
  H   H1509     1.0  0.86175  0.25853  0.95684  1.0000
  H   H1510     1.0  0.90474  0.38126  0.87685  1.0000
  H   H1511     1.0  0.53736  0.30348  0.81750  1.0000
  H   H1512     1.0  0.67590  0.36939  0.71952  1.0000
  H   H1513     1.0  0.64438  0.32712  0.64380  1.0000
  H   H1514     1.0  0.70225  0.33995  0.64348  1.0000
  H   H1515     1.0  0.64241  0.32109  0.70371  1.0000
  H   H1516     1.0  0.64600  0.29886  0.74283  1.0000
  H   H1517     1.0  0.67565  0.29605  0.76482  1.0000
  H   H1518     1.0  0.70192  0.31563  0.74727  1.0000
  H   H1519     1.0  0.69849  0.33805  0.70819  1.0000
  C   C1912     1.0  0.54622  0.38547  0.54932  1.0000
  H   H1520     1.0  0.98490  0.24774  0.89577  1.0000
  H   H1521     1.0  0.98851  0.35927  0.93705  1.0000
  H   H1522     1.0  0.85429  0.21127  0.76458  1.0000
  S   S263      1.0  0.61351  0.33134  0.51366  1.0000
  C   C1913     1.0  0.54217  0.24548  0.51733  1.0000
  S   S264      1.0  0.59555  0.38690  0.50606  1.0000
  C   C1914     1.0  0.85541  0.20100  0.74990  1.0000
  C   C1915     1.0  0.82109  0.20091  0.79489  1.0000
  H   H1523     1.0  0.87188  0.21834  0.72129  1.0000
  H   H1524     1.0  0.52119  0.24825  0.77145  1.0000
  C   C1916     1.0  0.94856  0.28092  0.68879  1.0000
  C   C1917     1.0  0.93670  0.29287  0.67424  1.0000
  C   C1918     1.0  0.94299  0.30973  0.66215  1.0000
  H   H1525     1.0  0.98596  0.22721  0.93760  1.0000
  C   C1919     1.0  0.60886  0.37654  0.67848  1.0000
  C   C1920     1.0  0.97515  0.24529  0.79946  1.0000
  H   H1526     1.0  0.98977  0.26934  0.83265  1.0000
  P   P66       1.0  0.50621  0.27174  0.64542  1.0000
  C   C1921     1.0  0.87674  0.37208  0.88554  1.0000
  P   P67       1.0  0.96924  0.33658  0.64847  1.0000
  H   H1527     1.0  0.57496  0.21750  0.59047  1.0000
  C   C1922     1.0  0.84013  0.36757  0.84338  1.0000
  C   C1923     1.0  0.53087  0.37959  0.56611  1.0000
  H   H1528     1.0  0.50134  0.38545  0.66190  1.0000
  H   H1529     1.0  0.49968  0.29467  0.81398  1.0000
  H   H1530     1.0  0.54125  0.34174  0.65588  1.0000
  H   H1531     1.0  0.94339  0.26811  0.69872  1.0000
  H   H1532     1.0  0.92243  0.28924  0.67283  1.0000
  H   H1533     1.0  0.93345  0.31892  0.65132  1.0000
  C   C1924     1.0  0.96147  0.38843  0.88372  1.0000
  C   C1925     1.0  0.93084  0.37906  0.63264  1.0000
  H   H1534     1.0  0.91710  0.36891  0.69838  1.0000
  C   C1926     1.0  0.53213  0.28238  0.88041  1.0000
  H   H1535     1.0  0.74974  0.36221  0.62445  1.0000
  H   H1536     1.0  0.54901  0.25941  0.89565  1.0000
  C   C1927     1.0  0.92514  0.36817  0.67923  1.0000
  H   H1537     1.0  0.95949  0.30959  0.61100  1.0000
  C   C1928     1.0  0.50465  0.20789  0.65091  1.0000
  C   C1929     1.0  0.85556  0.30877  0.94002  1.0000
  C   C1930     1.0  0.95600  0.24804  0.79764  1.0000
  C   C1931     1.0  0.81209  0.22400  0.82676  1.0000
  H   H1538     1.0  0.92726  0.38836  0.61569  1.0000
  P   P68       1.0  0.50038  0.38434  0.60315  1.0000
  S   S265      1.0  0.86668  0.36518  0.72458  1.0000
  S   S266      1.0  0.93693  0.31269  0.96789  1.0000
  C   C1932     1.0  0.61877  0.37412  0.65382  1.0000
  C   C1933     1.0  0.85634  0.32511  0.92322  1.0000
  C   C1934     1.0  0.80442  0.23556  0.80654  1.0000
  H   H1539     1.0  0.61302  0.24475  0.93144  1.0000
  C   C1935     1.0  0.86555  0.20505  0.72541  1.0000
  H   H1540     1.0  0.91189  0.20624  0.72822  1.0000
  C   C1936     1.0  0.84222  0.36762  0.73270  1.0000
  C   C1937     1.0  0.76373  0.32594  0.63498  1.0000
  H   H1541     1.0  0.86975  0.32943  0.91417  1.0000
  H   H1542     1.0  0.85060  0.32351  0.86903  1.0000
  H   H1543     1.0  0.85553  0.36537  0.94863  1.0000
  H   H1544     1.0  0.84014  0.37572  0.80104  1.0000
  C   C1938     1.0  0.70039  0.39236  0.65441  1.0000
  H   H1545     1.0  0.58076  0.38454  0.58315  1.0000
  C   C1939     1.0  0.75151  0.37393  0.63593  1.0000
  C   C1940     1.0  0.92052  0.38009  0.65733  1.0000
  C   C1941     1.0  0.54657  0.26879  0.87835  1.0000
  S   S267      1.0  0.89522  0.33187  0.96480  1.0000
  C   C1942     1.0  0.87553  0.21398  0.94556  1.0000
  C   C1943     1.0  0.60804  0.25471  0.81377  1.0000
  H   H1546     1.0  0.54726  0.28307  0.56682  1.0000
  H   H1547     1.0  0.95624  0.28420  0.75017  1.0000
  C   C1944     1.0  0.84323  0.35293  0.86285  1.0000
  C   C1945     1.0  0.84941  0.33195  0.82745  1.0000
  H   H1548     1.0  0.94751  0.20575  0.76331  1.0000
  C   C1946     1.0  0.73736  0.32175  0.66770  1.0000
  H   H1549     1.0  0.81371  0.20839  0.75441  1.0000
  C   C1947     1.0  0.86649  0.22884  0.95819  1.0000
  C   C1948     1.0  0.62660  0.28202  0.80788  1.0000
  H   H1550     1.0  0.97518  0.36580  0.68474  1.0000
  C   C1949     1.0  0.60157  0.23971  0.92178  1.0000
  C   C1950     1.0  0.51997  0.27594  0.69461  1.0000
  H   H1551     1.0  0.54518  0.24531  0.81916  1.0000
  H   H1552     1.0  0.97808  0.31307  0.79405  1.0000
  H   H1553     1.0  0.71865  0.30070  0.66031  1.0000
  C   C1951     1.0  0.69515  0.32407  0.61174  1.0000
  C   C1952     1.0  0.52883  0.29491  0.85851  1.0000
  H   H1554     1.0  0.96506  0.38314  0.95106  1.0000
  C   C1953     1.0  0.51978  0.28280  0.71991  1.0000
  H   H1555     1.0  0.72940  0.32513  0.68599  1.0000
  C   C1954     1.0  0.54900  0.21770  0.80675  1.0000
  C   C1955     1.0  0.82290  0.32998  0.93066  1.0000
  H   H1556     1.0  0.97668  0.34757  0.98716  1.0000
  H   H1557     1.0  0.85852  0.22638  0.97729  1.0000
  H   H1558     1.0  0.53489  0.36878  0.62465  1.0000
  H   H1559     1.0  0.83799  0.29054  0.96559  1.0000
  C   C1956     1.0  0.97794  0.22792  0.71757  1.0000
  C   C1957     1.0  0.65337  0.38670  0.77092  1.0000
  C   C1958     1.0  0.84004  0.33590  0.91853  1.0000
  H   H1560     1.0  0.94638  0.23929  0.80993  1.0000
  C   C1959     1.0  0.94922  0.26205  0.77991  1.0000
  C   C1960     1.0  0.97572  0.33380  0.61342  1.0000
  C   C1961     1.0  0.58454  0.20862  0.62950  1.0000
  H   H1561     1.0  0.93436  0.26408  0.77848  1.0000
  S   S268      1.0  0.91021  0.19915  0.78658  1.0000
  C   C1962     1.0  0.80308  0.37236  0.74377  1.0000
  C   C1963     1.0  0.75750  0.31204  0.62047  1.0000
  H   H1562     1.0  0.55782  0.22721  0.54400  1.0000
  C   C1964     1.0  0.52887  0.29903  0.61977  1.0000
  S   S269      1.0  0.53032  0.32768  0.55230  1.0000
  Fe  Fe136     1.0  0.59227  0.35533  0.51352  1.0000
  H   H1563     1.0  0.68405  0.30816  0.58257  1.0000
  S   S270      1.0  0.77849  0.37427  0.75029  1.0000
  C   C1965     1.0  0.51451  0.23666  0.62714  1.0000
  C   C1966     1.0  0.84788  0.33506  0.85467  1.0000
  H   H1564     1.0  0.98307  0.22009  0.99850  1.0000
  C   C1967     1.0  0.50938  0.25534  0.78144  1.0000
  C   C1968     1.0  0.53657  0.27700  0.53011  1.0000
  H   H1565     1.0  0.96475  0.33646  0.86957  1.0000
  C   C1969     1.0  0.49929  0.33902  0.83073  1.0000
  C   C1970     1.0  0.83848  0.30305  0.95221  1.0000
  C   C1971     1.0  0.50588  0.24675  0.64784  1.0000
  H   H1566     1.0  0.50434  0.29899  0.74918  1.0000
  C   C1972     1.0  0.96152  0.23969  0.98630  1.0000
  H   H1567     1.0  0.70928  0.32308  0.60270  1.0000
  H   H1568     1.0  0.63169  0.25807  0.78498  1.0000
  C   C1973     1.0  0.96276  0.22538  0.73652  1.0000
  H   H1569     1.0  0.89340  0.20549  0.91215  1.0000
  C   C1974     1.0  0.50444  0.29347  0.72973  1.0000
  P   P69       1.0  0.84151  0.35745  0.89785  1.0000
  H   H1570     1.0  0.66377  0.39270  0.60661  1.0000
  H   H1571     1.0  0.85301  0.31816  0.82117  1.0000
  C   C1975     1.0  0.52795  0.28040  0.62982  1.0000
  C   C1976     1.0  0.96133  0.31475  0.66438  1.0000
  H   H1572     1.0  0.87440  0.19996  0.95471  1.0000
  H   H1573     1.0  0.59485  0.21448  0.84223  1.0000
  C   C1977     1.0  0.83312  0.38518  0.72885  1.0000
  H   H1574     1.0  0.95320  0.23692  0.74100  1.0000
  H   H1575     1.0  0.53165  0.28007  0.73180  1.0000
  H   H1576     1.0  0.68801  0.37191  0.63376  1.0000
  C   C1978     1.0  0.96782  0.38092  0.92998  1.0000
  C   C1979     1.0  0.82054  0.38621  0.92224  1.0000
  C   C1980     1.0  0.50592  0.36281  0.62208  1.0000
  H   H1577     1.0  0.56241  0.27923  0.81337  1.0000
  H   H1578     1.0  0.73655  0.29207  0.61846  1.0000
  C   C1981     1.0  0.62305  0.26429  0.80085  1.0000
  C   C1982     1.0  0.52745  0.34423  0.64899  1.0000
  H   H1579     1.0  0.69320  0.38254  0.58200  1.0000
  H   H1580     1.0  0.61777  0.21118  0.67919  1.0000
  C   C1983     1.0  0.73121  0.30781  0.65319  1.0000
  C   C1984     1.0  0.90668  0.23929  0.98015  1.0000
  H   H1581     1.0  0.56043  0.22164  0.88759  1.0000
  C   C1985     1.0  0.54590  0.27248  0.55314  1.0000
  C   C1986     1.0  0.57694  0.20048  0.81913  1.0000
  H   H1582     1.0  0.54450  0.25533  0.63977  1.0000
  H   H1583     1.0  0.96421  0.35888  0.75666  1.0000
  H   H1584     1.0  0.63788  0.28971  0.79740  1.0000
  C   C1987     1.0  0.97748  0.35155  0.75297  1.0000
  C   C1988     1.0  0.81322  0.21257  0.77473  1.0000
  C   C1989     1.0  0.75743  0.37140  0.66199  1.0000
  C   C1990     1.0  0.97322  0.30261  0.67893  1.0000
  H   H1585     1.0  0.63591  0.37902  0.50858  1.0000
  C   C1991     1.0  0.84219  0.36445  0.81615  1.0000
  C   C1992     1.0  0.56229  0.29541  0.61138  1.0000
  C   C1993     1.0  0.98768  0.34635  0.59880  1.0000
  C   C1994     1.0  0.96158  0.27325  0.76383  1.0000
  H   H1586     1.0  0.77764  0.38123  0.88202  1.0000
  C   C1995     1.0  0.56160  0.27690  0.62144  1.0000
  H   H1587     1.0  0.51615  0.32076  0.67269  1.0000
  H   H1588     1.0  0.53642  0.21860  0.79643  1.0000
  H   H1589     1.0  0.58132  0.23047  0.50249  1.0000
  C   C1996     1.0  0.55773  0.26762  0.85420  1.0000
  C   C1997     1.0  0.54456  0.26945  0.63097  1.0000
  C   C1998     1.0  0.80493  0.22982  0.78055  1.0000
  C   C1999     1.0  0.51409  0.21730  0.62891  1.0000
  C   C2000     1.0  0.55172  0.24107  0.54029  1.0000
  C   C2001     1.0  0.97512  0.33240  0.85399  1.0000
  H   H1590     1.0  0.56151  0.25138  0.57552  1.0000
  H   H1591     1.0  0.79440  0.37301  0.67498  1.0000
  C   C2002     1.0  0.56039  0.20154  0.80645  1.0000
  H   H1592     1.0  0.79906  0.23881  0.76483  1.0000
  H   H1593     1.0  0.67135  0.33625  0.78743  1.0000
  C   C2003     1.0  0.57612  0.21908  0.92227  1.0000
  H   H1594     1.0  0.51643  0.30794  0.61904  1.0000
  H   H1595     1.0  0.96850  0.30644  0.56322  1.0000
  C   C2004     1.0  0.59653  0.26280  0.83401  1.0000
  C   C2005     1.0  0.94571  0.36600  0.62976  1.0000
  C   C2006     1.0  0.66630  0.35030  0.78237  1.0000
  C   C2007     1.0  0.54597  0.30649  0.61076  1.0000
  H   H1596     1.0  0.60532  0.24125  0.80736  1.0000
  H   H1597     1.0  0.88517  0.37681  0.95984  1.0000
  H   H1598     1.0  0.54658  0.32092  0.60310  1.0000
  C   C2008     1.0  0.78960  0.38259  0.89331  1.0000
  H   H1599     1.0  0.59159  0.28717  0.85653  1.0000
  C   C2009     1.0  0.59089  0.22556  0.93471  1.0000
  C   C2010     1.0  0.98077  0.27050  0.76549  1.0000
  H   H1600     1.0  0.52647  0.36552  0.56554  1.0000
  C   C2011     1.0  0.67854  0.36505  0.78191  1.0000
  H   H1601     1.0  0.60597  0.25834  0.88681  1.0000
  H   H1602     1.0  0.52359  0.28336  0.89907  1.0000
  C   C2012     1.0  0.75957  0.38701  0.67618  1.0000
  C   C2013     1.0  0.59750  0.24742  0.89639  1.0000
  C   C2014     1.0  0.60038  0.28053  0.84119  1.0000
  H   H1603     1.0  0.82787  0.36639  0.67732  1.0000
  H   H1604     1.0  0.50488  0.34318  0.84858  1.0000
  C   C2015     1.0  0.98972  0.30873  0.94880  1.0000
  C   C2016     1.0  0.57289  0.20842  0.60844  1.0000
  H   H1605     1.0  0.99302  0.35769  0.60838  1.0000
  C   C2017     1.0  0.82216  0.31359  0.94745  1.0000
  C   C2018     1.0  0.94000  0.35514  0.67642  1.0000
  H   H1606     1.0  0.98985  0.22947  0.63498  1.0000
  C   C2019     1.0  0.68302  0.37541  0.70126  1.0000
  C   C2020     1.0  0.94361  0.19961  0.89284  1.0000
  H   H1607     1.0  0.90979  0.38493  0.92419  1.0000
  C   C2021     1.0  0.95029  0.35380  0.65164  1.0000
  H   H1608     1.0  0.63548  0.20625  0.59555  1.0000
  H   H1609     1.0  0.82631  0.19811  0.83702  1.0000
  S   S271      1.0  0.90022  0.27714  0.97361  1.0000
  C   C2022     1.0  0.86574  0.36960  0.93252  1.0000
  C   C2023     1.0  0.50823  0.21851  0.75068  1.0000
  C   C2024     1.0  0.96883  0.31939  0.60039  1.0000
  C   C2025     1.0  0.84700  0.34667  0.80824  1.0000
  H   H1610     1.0  0.87527  0.36972  0.86486  1.0000
  C   C2026     1.0  0.90776  0.22194  0.99484  1.0000
  H   H1611     1.0  0.98718  0.30634  0.68180  1.0000
  H   H1612     1.0  0.49866  0.37889  0.54516  1.0000
  C   C2027     1.0  0.97461  0.37468  0.87571  1.0000
  C   C2028     1.0  0.80527  0.37061  0.88973  1.0000
  H   H1613     1.0  0.89446  0.39020  0.82467  1.0000
  C   C2029     1.0  0.81367  0.38757  0.73438  1.0000
  H   H1614     1.0  0.83223  0.38790  0.93376  1.0000
  H   H1615     1.0  0.95371  0.22940  0.97797  1.0000
  C   C2030     1.0  0.88259  0.37607  0.93904  1.0000
  C   C2031     1.0  0.97801  0.23444  0.99827  1.0000
  H   H1616     1.0  0.87590  0.19489  0.68756  1.0000
  C   C2032     1.0  0.89355  0.37863  0.89220  1.0000
  C   C2033     1.0  0.49585  0.23728  0.66945  1.0000
  C   C2034     1.0  0.98837  0.35881  0.67936  1.0000
  H   H1617     1.0  0.80514  0.35999  0.87571  1.0000
  H   H1618     1.0  0.76418  0.38539  0.69628  1.0000
  H   H1619     1.0  0.61187  0.37860  0.56028  1.0000
  H   H1620     1.0  0.98996  0.27950  0.75303  1.0000
  C   C2035     1.0  0.89645  0.38065  0.91893  1.0000
  C   C2036     1.0  0.51229  0.27203  0.79239  1.0000
  H   H1621     1.0  0.99360  0.37373  0.76422  1.0000
  H   H1622     1.0  0.97775  0.30508  0.96227  1.0000
  C   C2037     1.0  0.74777  0.39185  0.62440  1.0000
  C   C2038     1.0  0.69334  0.39111  0.70242  1.0000
  H   H1623     1.0  0.90890  0.39007  0.65956  1.0000
  C   C2039     1.0  0.99029  0.23351  0.89497  1.0000
  C   C2040     1.0  0.49538  0.21789  0.67103  1.0000
  H   H1624     1.0  0.98660  0.26103  0.61305  1.0000
  C   C2041     1.0  0.90410  0.25588  0.99311  1.0000
  H   H1625     1.0  0.55037  0.19513  0.59312  1.0000
  C   C2042     1.0  0.95798  0.39146  0.91087  1.0000
  H   H1626     1.0  0.98974  0.32863  0.53776  1.0000
  S   S272      1.0  0.61906  0.19741  0.73800  1.0000
  C   C2043     1.0  0.49562  0.33531  0.64905  1.0000
  C   C2044     1.0  0.99418  0.25872  0.63083  1.0000
  C   C2045     1.0  0.60998  0.38894  0.57490  1.0000
  H   H1627     1.0  0.97433  0.19909  0.66678  1.0000
  H   H1628     1.0  0.58967  0.19653  0.66927  1.0000
  H   H1629     1.0  0.55409  0.20312  0.71052  1.0000
  C   C2046     1.0  0.99084  0.22195  0.91853  1.0000
  C   C2047     1.0  0.98967  0.21269  0.71055  1.0000
  C   C2048     1.0  0.52096  0.39190  0.58289  1.0000
  C   C2049     1.0  0.59236  0.39244  0.58760  1.0000
  C   C2050     1.0  0.53432  0.19643  0.74398  1.0000
  H   H1630     1.0  0.94054  0.19439  0.82658  1.0000
  C   C2051     1.0  0.58096  0.19675  0.65270  1.0000
  Fe  Fe137     1.0  0.69439  0.50322  0.47267  1.0000
  S   S273      1.0  0.71125  0.51992  0.43792  1.0000
  S   S274      1.0  0.66449  0.49546  0.47193  1.0000
  H   H1631     1.0  0.64058  0.49973  0.34038  1.0000
  H   H1632     1.0  0.69679  0.51892  0.31559  1.0000
  P   P70       1.0  0.80300  0.43247  0.10761  1.0000
  C   C2052     1.0  0.81229  0.52657  0.26951  1.0000
  C   C2053     1.0  0.77584  0.54593  0.38785  1.0000
  Fe  Fe138     1.0  0.79763  0.49120  0.02471  1.0000
  S   S275      1.0  0.77725  0.49777  0.06176  1.0000
  S   S276      1.0  0.82804  0.49733  0.02018  1.0000
  Fe  Fe139     1.0  0.75923  0.58017  0.24534  1.0000
  S   S277      1.0  0.76846  0.55012  0.24920  1.0000
  H   H1633     1.0  0.99098  0.58673  0.20055  1.0000
  Fe  Fe140     1.0  0.71948  0.57097  0.23382  1.0000
  S   S278      1.0  0.72704  0.54019  0.23598  1.0000
  C   C2054     1.0  0.64711  0.54094  0.40345  1.0000
  Fe  Fe141     1.0  0.74081  0.54560  0.27339  1.0000
  S   S279      1.0  0.73523  0.52498  0.31070  1.0000
  Fe  Fe142     1.0  0.75391  0.54725  0.21143  1.0000
  S   S280      1.0  0.77218  0.53394  0.17663  1.0000
  S   S281      1.0  0.73237  0.57604  0.27165  1.0000
  S   S282      1.0  0.74542  0.57769  0.20727  1.0000
  C   C2055     1.0  0.77625  0.50862  0.09315  1.0000
  C   C2056     1.0  0.75877  0.51224  0.10702  1.0000
  C   C2057     1.0  0.75715  0.52039  0.13199  1.0000
  C   C2058     1.0  0.77305  0.52492  0.14393  1.0000
  C   C2059     1.0  0.79052  0.52139  0.13001  1.0000
  C   C2060     1.0  0.79214  0.51345  0.10488  1.0000
  H   H1634     1.0  0.74630  0.50865  0.09840  1.0000
  H   H1635     1.0  0.74358  0.52284  0.14222  1.0000
  H   H1636     1.0  0.80295  0.52454  0.13904  1.0000
  H   H1637     1.0  0.80572  0.51077  0.09479  1.0000
  C   C2061     1.0  0.71648  0.52134  0.40214  1.0000
  C   C2062     1.0  0.72282  0.53812  0.38901  1.0000
  C   C2063     1.0  0.72833  0.53965  0.36119  1.0000
  C   C2064     1.0  0.72769  0.52436  0.34586  1.0000
  C   C2065     1.0  0.72117  0.50765  0.35894  1.0000
  C   C2066     1.0  0.71543  0.50619  0.38668  1.0000
  H   H1638     1.0  0.72375  0.54999  0.40057  1.0000
  H   H1639     1.0  0.73357  0.55253  0.35180  1.0000
  H   H1640     1.0  0.72064  0.49564  0.34752  1.0000
  H   H1641     1.0  0.71071  0.49314  0.39625  1.0000
  H   H1642     1.0  0.82298  0.52758  0.25309  1.0000
  C   C2067     1.0  0.79769  0.51466  0.26875  1.0000
  H   H1643     1.0  0.82671  0.57620  0.31637  1.0000
  C   C2068     1.0  0.77729  0.44874  0.07296  1.0000
  C   C2069     1.0  0.61684  0.54038  0.36800  1.0000
  C   C2070     1.0  0.83218  0.59139  0.26182  1.0000
  H   H1644     1.0  0.66197  0.57647  0.37661  1.0000
  H   H1645     1.0  0.80174  0.51023  0.36103  1.0000
  C   C2071     1.0  0.99403  0.59089  0.01201  1.0000
  H   H1646     1.0  0.62488  0.44753  0.49839  1.0000
  H   H1647     1.0  0.63858  0.47316  0.43473  1.0000
  H   H1648     1.0  0.75826  0.58783  0.15482  1.0000
  C   C2072     1.0  0.68754  0.57266  0.35236  1.0000
  C   C2073     1.0  0.81300  0.53737  0.29129  1.0000
  C   C2074     1.0  0.78089  0.41945  0.03946  1.0000
  H   H1649     1.0  0.77109  0.56179  0.08192  1.0000
  C   C2075     1.0  0.78191  0.50745  0.39523  1.0000
  C   C2076     1.0  0.77994  0.54457  0.01925  1.0000
  H   H1650     1.0  0.83433  0.54722  0.03422  1.0000
  H   H1651     1.0  0.68614  0.55037  0.43291  1.0000
  H   H1652     1.0  0.50086  0.55307  0.17119  1.0000
  H   H1653     1.0  0.56773  0.56152  0.35359  1.0000
  S   S283      1.0  0.68972  0.57974  0.22338  1.0000
  P   P71       1.0  0.81053  0.57149  0.06777  1.0000
  H   H1654     1.0  0.82738  0.53006  0.37643  1.0000
  H   H1655     1.0  0.75809  0.46140  0.04571  1.0000
  C   C2077     1.0  0.58526  0.53658  0.35649  1.0000
  C   C2078     1.0  0.68018  0.54177  0.29910  1.0000
  H   H1656     1.0  0.50400  0.52582  0.26461  1.0000
  C   C2079     1.0  0.65157  0.54953  0.32530  1.0000
  C   C2080     1.0  0.84043  0.57561  0.17921  1.0000
  C   C2081     1.0  0.50335  0.53183  0.24425  1.0000
  C   C2082     1.0  0.80882  0.56798  0.19546  1.0000
  C   C2083     1.0  0.81453  0.54936  0.19995  1.0000
  C   C2084     1.0  0.83323  0.54387  0.19485  1.0000
  C   C2085     1.0  0.84618  0.55696  0.18480  1.0000
  C   C2086     1.0  0.86561  0.56985  0.12159  1.0000
  H   H1657     1.0  0.62351  0.56867  0.37332  1.0000
  H   H1658     1.0  0.76059  0.50869  0.42790  1.0000
  H   H1659     1.0  0.67668  0.53661  0.39309  1.0000
  C   C2087     1.0  0.83808  0.41596  0.09392  1.0000
  C   C2088     1.0  0.82448  0.55276  0.34602  1.0000
  H   H1660     1.0  0.87347  0.55279  0.08872  1.0000
  C   C2089     1.0  0.76880  0.51654  0.41225  1.0000
  C   C2090     1.0  0.67239  0.52474  0.34175  1.0000
  C   C2091     1.0  0.59523  0.56713  0.36368  1.0000
  C   C2092     1.0  0.78262  0.40162  0.12696  1.0000
  C   C2093     1.0  0.63862  0.49830  0.40861  1.0000
  C   C2094     1.0  0.88456  0.40077  0.00123  1.0000
  C   C2095     1.0  0.49502  0.55778  0.21318  1.0000
  H   H1661     1.0  0.86121  0.55814  0.13473  1.0000
  C   C2096     1.0  0.84038  0.53027  0.10833  1.0000
  C   C2097     1.0  0.83372  0.44859  0.07970  1.0000
  H   H1662     1.0  0.79435  0.57225  0.19991  1.0000
  H   H1663     1.0  0.80440  0.53925  0.20751  1.0000
  H   H1664     1.0  0.83767  0.52946  0.19868  1.0000
  H   H1665     1.0  0.86068  0.55256  0.18136  1.0000
  C   C2098     1.0  0.79870  0.56580  0.03942  1.0000
  P   P72       1.0  0.63981  0.53086  0.37446  1.0000
  H   H1666     1.0  0.60555  0.51415  0.36079  1.0000
  C   C2099     1.0  0.63929  0.55395  0.44631  1.0000
  C   C2100     1.0  0.50158  0.54731  0.19168  1.0000
  C   C2101     1.0  0.50910  0.52928  0.19648  1.0000
  C   C2102     1.0  0.90913  0.58963  0.21231  1.0000
  H   H1667     1.0  0.84174  0.52522  0.12898  1.0000
  H   H1668     1.0  0.77301  0.40577  0.11193  1.0000
  H   H1669     1.0  0.61906  0.54533  0.42169  1.0000
  C   C2103     1.0  0.87864  0.58145  0.07779  1.0000
  C   C2104     1.0  0.65582  0.53559  0.34527  1.0000
  C   C2105     1.0  0.78363  0.51377  0.28963  1.0000
  C   C2106     1.0  0.79917  0.53617  0.31270  1.0000
  C   C2107     1.0  0.78425  0.52462  0.31134  1.0000
  P   P73       1.0  0.80028  0.54949  0.34150  1.0000
  C   C2108     1.0  0.78902  0.57216  0.33624  1.0000
  C   C2109     1.0  0.78889  0.53689  0.37040  1.0000
  C   C2110     1.0  0.79386  0.58676  0.35087  1.0000
  H   H1670     1.0  0.97271  0.59122  0.06496  1.0000
  C   C2111     1.0  0.79197  0.51757  0.37445  1.0000
  C   C2112     1.0  0.49860  0.59169  0.17795  1.0000
  H   H1671     1.0  0.83502  0.42167  0.02053  1.0000
  C   C2113     1.0  0.77562  0.57550  0.31758  1.0000
  H   H1672     1.0  0.80726  0.57634  0.25850  1.0000
  H   H1673     1.0  0.63809  0.50703  0.42523  1.0000
  C   C2114     1.0  0.79808  0.57805  0.01633  1.0000
  H   H1674     1.0  0.71190  0.57215  0.32476  1.0000
  C   C2115     1.0  0.51814  0.58992  0.17612  1.0000
  C   C2116     1.0  0.63936  0.50600  0.38198  1.0000
  C   C2117     1.0  0.58142  0.55565  0.35753  1.0000
  Fe  Fe143     1.0  0.67152  0.47032  0.49958  1.0000
  H   H1675     1.0  0.77192  0.50504  0.28873  1.0000
  H   H1676     1.0  0.77299  0.52398  0.32700  1.0000
  C   C2118     1.0  0.82170  0.58108  0.18526  1.0000
  C   C2119     1.0  0.65814  0.55537  0.44967  1.0000
  H   H1677     1.0  0.76782  0.44704  0.13238  1.0000
  H   H1678     1.0  0.82127  0.55258  0.11887  1.0000
  H   H1679     1.0  0.69058  0.55883  0.36123  1.0000
  H   H1680     1.0  0.77154  0.56447  0.30618  1.0000
  C   C2120     1.0  0.83612  0.54283  0.05504  1.0000
  C   C2121     1.0  0.89252  0.58258  0.22428  1.0000
  C   C2122     1.0  0.76697  0.44926  0.05055  1.0000
  H   H1681     1.0  0.85544  0.52043  0.04477  1.0000
  C   C2123     1.0  0.79846  0.41177  0.12914  1.0000
  H   H1682     1.0  0.84706  0.57825  0.03844  1.0000
  C   C2124     1.0  0.86226  0.55792  0.35156  1.0000
  C   C2125     1.0  0.67151  0.54952  0.43006  1.0000
  H   H1683     1.0  0.86486  0.40330  0.08188  1.0000
  H   H1684     1.0  0.78396  0.49250  0.39782  1.0000
  H   H1685     1.0  0.82434  0.54658  0.29124  1.0000
  H   H1686     1.0  0.62242  0.58645  0.28172  1.0000
  C   C2126     1.0  0.81009  0.40652  0.14973  1.0000
  C   C2127     1.0  0.61289  0.55957  0.36877  1.0000
  C   C2128     1.0  0.79119  0.41886  0.06194  1.0000
  C   C2129     1.0  0.66607  0.54195  0.40728  1.0000
  C   C2130     1.0  0.64018  0.47486  0.36670  1.0000
  H   H1687     1.0  0.85978  0.58058  0.32122  1.0000
  C   C2131     1.0  0.82644  0.55218  0.07575  1.0000
  C   C2132     1.0  0.60292  0.52895  0.36165  1.0000
  H   H1688     1.0  0.63996  0.45240  0.39764  1.0000
  H   H1689     1.0  0.75555  0.54269  0.42179  1.0000
  H   H1690     1.0  0.68961  0.54412  0.28128  1.0000
  H   H1691     1.0  0.62892  0.55814  0.46172  1.0000
  H   H1692     1.0  0.59223  0.58189  0.36448  1.0000
  H   H1693     1.0  0.85895  0.50897  0.09205  1.0000
  C   C2133     1.0  0.63964  0.46733  0.39323  1.0000
  S   S284      1.0  0.66544  0.43949  0.49774  1.0000
  C   C2134     1.0  0.85199  0.44865  0.06806  1.0000
  H   H1694     1.0  0.63880  0.55787  0.32706  1.0000
  C   C2135     1.0  0.64003  0.49412  0.36106  1.0000
  H   H1695     1.0  0.80510  0.59100  0.01463  1.0000
  C   C2136     1.0  0.63376  0.54677  0.42337  1.0000
  C   C2137     1.0  0.87264  0.56669  0.09542  1.0000
  C   C2138     1.0  0.82679  0.43237  0.09336  1.0000
  C   C2139     1.0  0.66381  0.55271  0.30245  1.0000
  H   H1696     1.0  0.66061  0.56352  0.28708  1.0000
  C   C2140     1.0  0.76594  0.53578  0.40874  1.0000
  C   C2141     1.0  0.79739  0.45155  0.12847  1.0000
  H   H1697     1.0  0.51423  0.52130  0.17982  1.0000
  C   C2142     1.0  0.83388  0.56704  0.33065  1.0000
  C   C2143     1.0  0.68432  0.52768  0.31858  1.0000
  H   H1698     1.0  0.83281  0.40297  0.10284  1.0000
  C   C2144     1.0  0.79413  0.57546  0.09625  1.0000
  C   C2145     1.0  0.81323  0.58983  0.25731  1.0000
  C   C2146     1.0  0.77884  0.45520  0.13808  1.0000
  C   C2147     1.0  0.77434  0.46960  0.15482  1.0000
  C   C2148     1.0  0.78836  0.48012  0.16268  1.0000
  C   C2149     1.0  0.80690  0.47635  0.15370  1.0000
  C   C2150     1.0  0.81144  0.46203  0.13681  1.0000
  C   C2151     1.0  0.85267  0.56957  0.33336  1.0000
  H   H1699     1.0  0.88397  0.57909  0.05742  1.0000
  C   C2152     1.0  0.82873  0.54585  0.10248  1.0000
  C   C2153     1.0  0.77578  0.56958  0.09733  1.0000
  H   H1700     1.0  0.77618  0.46057  0.08494  1.0000
  C   C2154     1.0  0.85002  0.52110  0.08758  1.0000
  H   H1701     1.0  0.67604  0.51384  0.35671  1.0000
  H   H1702     1.0  0.66238  0.56063  0.46774  1.0000
  H   H1703     1.0  0.84063  0.57898  0.26643  1.0000
  H   H1704     1.0  0.57454  0.52767  0.35175  1.0000
  H   H1705     1.0  0.82491  0.46112  0.07769  1.0000
  H   H1706     1.0  0.80081  0.40717  0.06581  1.0000
  H   H1707     1.0  0.52537  0.58234  0.19187  1.0000
  C   C2155     1.0  0.63884  0.47904  0.41415  1.0000
  C   C2156     1.0  0.84802  0.52750  0.06096  1.0000
  H   H1708     1.0  0.82205  0.41452  0.15224  1.0000
  H   H1709     1.0  0.80403  0.58442  0.36560  1.0000
  H   H1710     1.0  0.78480  0.49140  0.17546  1.0000
  H   H1711     1.0  0.81771  0.48464  0.15968  1.0000
  H   H1712     1.0  0.82592  0.45917  0.13052  1.0000
  C   C2157     1.0  0.78926  0.43340  0.07907  1.0000
  H   H1713     1.0  0.79694  0.50653  0.25168  1.0000
  C   C2158     1.0  0.76756  0.59335  0.31316  1.0000
  C   C2159     1.0  0.76301  0.57383  0.11863  1.0000
  H   H1714     1.0  0.79063  0.53899  0.05768  1.0000
  C   C2160     1.0  0.78994  0.54885  0.04039  1.0000
  H   H1715     1.0  0.64089  0.46574  0.35049  1.0000
  H   H1716     1.0  0.75996  0.47277  0.16151  1.0000
  C   C2161     1.0  0.67143  0.58272  0.36102  1.0000
  C   C2162     1.0  0.97539  0.59107  0.00618  1.0000
  H   H1717     1.0  0.77281  0.53165  0.02067  1.0000
  H   H1718     1.0  0.85718  0.46107  0.05701  1.0000
  C   C2163     1.0  0.86331  0.43242  0.06935  1.0000
  C   C2164     1.0  0.87744  0.59103  0.18331  1.0000
  H   H1719     1.0  0.87685  0.55991  0.35362  1.0000
  H   H1720     1.0  0.74895  0.56906  0.11953  1.0000
  C   C2165     1.0  0.85303  0.54374  0.36704  1.0000
  H   H1721     1.0  0.77286  0.56072  0.38506  1.0000
  C   C2166     1.0  0.85631  0.41605  0.08206  1.0000
  H   H1722     1.0  0.87722  0.43234  0.05936  1.0000
  C   C2167     1.0  0.83421  0.54113  0.36430  1.0000
  H   H1723     1.0  0.89170  0.57714  0.24505  1.0000
  C   C2168     1.0  0.69965  0.58021  0.33173  1.0000
  H   H1724     1.0  0.78261  0.40832  0.02613  1.0000
  C   C2169     1.0  0.76872  0.43462  0.03383  1.0000
  H   H1725     1.0  0.99051  0.57112  0.14553  1.0000
  H   H1726     1.0  0.76106  0.43532  0.01607  1.0000
  C   C2170     1.0  0.86445  0.58791  0.13030  1.0000
  H   H1727     1.0  0.92130  0.58934  0.22363  1.0000
  C   C2171     1.0  0.84878  0.41594  0.01488  1.0000
  C   C2172     1.0  0.87667  0.58339  0.20994  1.0000
  H   H1728     1.0  0.86376  0.57858  0.21999  1.0000
  S   S285      1.0  0.80250  0.46391  0.00471  1.0000
  H   H1729     1.0  0.86050  0.53472  0.38114  1.0000
  C   C2173     1.0  0.51002  0.52156  0.22276  1.0000
  H   H1730     1.0  0.51587  0.50759  0.22646  1.0000
  H   H1731     1.0  0.97608  0.59067  0.24570  1.0000
  C   C2174     1.0  0.85277  0.39664  0.01886  1.0000
  C   C2175     1.0  0.82328  0.59228  0.05866  1.0000
  C   C2176     1.0  0.49583  0.54987  0.23951  1.0000
  C   C2177     1.0  0.79957  0.58511  0.11735  1.0000
  H   H1732     1.0  0.65223  0.58828  0.20975  1.0000
  P   P74       1.0  0.85703  0.59229  0.16470  1.0000
  H   H1733     1.0  0.81375  0.58936  0.11731  1.0000
  C   C2178     1.0  0.84081  0.59135  0.04434  1.0000
  C   C2179     1.0  0.76833  0.58417  0.13880  1.0000
  C   C2180     1.0  0.86273  0.42781  0.00414  1.0000
  H   H1734     1.0  0.64628  0.59110  0.31232  1.0000
  C   C2181     1.0  0.78661  0.58970  0.13831  1.0000
  S   S286      1.0  0.70209  0.47691  0.49780  1.0000
  Fe  Fe144     1.0  0.71750  0.40959  0.77074  1.0000
  S   S287      1.0  0.72269  0.44035  0.76421  1.0000
  H   H1735     1.0  0.57594  0.40914  0.61512  1.0000
  C   C2182     1.0  0.69648  0.40864  0.55880  1.0000
  S   S288      1.0  0.76560  0.42969  0.74412  1.0000
  C   C2183     1.0  0.69007  0.56808  0.63786  1.0000
  Fe  Fe145     1.0  0.74967  0.43401  0.78442  1.0000
  S   S289      1.0  0.76474  0.45082  0.81360  1.0000
  Fe  Fe146     1.0  0.73799  0.43343  0.72495  1.0000
  S   S290      1.0  0.72873  0.44534  0.68333  1.0000
  C   C2184     1.0  0.61487  0.54646  0.58277  1.0000
  H   H1736     1.0  0.97707  0.55324  0.96984  1.0000
  C   C2185     1.0  0.62087  0.48607  0.57471  1.0000
  H   H1737     1.0  0.86562  0.53321  0.98851  1.0000
  C   C2186     1.0  0.79748  0.41293  0.83581  1.0000
  C   C2187     1.0  0.64118  0.41585  0.68592  1.0000
  H   H1738     1.0  0.70109  0.56424  0.62310  1.0000
  H   H1739     1.0  0.70796  0.53230  0.86529  1.0000
  Fe  Fe147     1.0  0.69396  0.49216  0.53479  1.0000
  S   S291      1.0  0.71079  0.49172  0.57228  1.0000
  S   S292      1.0  0.66397  0.48479  0.53727  1.0000
  H   H1740     1.0  0.64811  0.40083  0.76696  1.0000
  Fe  Fe148     1.0  0.79841  0.47970  0.96453  1.0000
  S   S293      1.0  0.78034  0.46550  0.93570  1.0000
  S   S294      1.0  0.82862  0.48677  0.95688  1.0000
  C   C2188     1.0  0.76912  0.45427  0.84780  1.0000
  C   C2189     1.0  0.75999  0.44470  0.87009  1.0000
  C   C2190     1.0  0.76374  0.44822  0.89652  1.0000
  C   C2191     1.0  0.77673  0.46132  0.90144  1.0000
  C   C2192     1.0  0.78590  0.47084  0.87912  1.0000
  C   C2193     1.0  0.78212  0.46734  0.85270  1.0000
  H   H1741     1.0  0.74986  0.43471  0.86699  1.0000
  H   H1742     1.0  0.75636  0.44081  0.91338  1.0000
  H   H1743     1.0  0.79583  0.48105  0.88218  1.0000
  H   H1744     1.0  0.78929  0.47496  0.83587  1.0000
  C   C2194     1.0  0.71519  0.47812  0.60289  1.0000
  C   C2195     1.0  0.72486  0.48619  0.62195  1.0000
  C   C2196     1.0  0.72888  0.47634  0.64639  1.0000
  C   C2197     1.0  0.72342  0.45806  0.65239  1.0000
  C   C2198     1.0  0.71367  0.44989  0.63339  1.0000
  C   C2199     1.0  0.70953  0.45983  0.60888  1.0000
  H   H1745     1.0  0.72935  0.50024  0.61775  1.0000
  H   H1746     1.0  0.73640  0.48290  0.66058  1.0000
  H   H1747     1.0  0.70942  0.43577  0.63750  1.0000
  H   H1748     1.0  0.70217  0.45330  0.59450  1.0000
  Fe  Fe149     1.0  0.65902  0.51051  0.50976  1.0000
  C   C2200     1.0  0.87317  0.41048  0.83687  1.0000
  C   C2201     1.0  0.63376  0.45045  0.59305  1.0000
  Fe  Fe150     1.0  0.75879  0.39985  0.75370  1.0000
  H   H1749     1.0  0.82666  0.45820  0.80961  1.0000
  C   C2202     1.0  0.82864  0.42410  0.83676  1.0000
  C   C2203     1.0  0.62663  0.48290  0.60065  1.0000
  H   H1750     1.0  0.63748  0.52695  0.58924  1.0000
  H   H1751     1.0  0.85494  0.46912  0.87898  1.0000
  C   C2204     1.0  0.84713  0.55626  0.97761  1.0000
  C   C2205     1.0  0.65771  0.42338  0.69174  1.0000
  H   H1752     1.0  0.65290  0.54967  0.84537  1.0000
  H   H1753     1.0  0.78352  0.41131  0.84515  1.0000
  C   C2206     1.0  0.75592  0.40486  0.66455  1.0000
  C   C2207     1.0  0.70231  0.39938  0.67910  1.0000
  C   C2208     1.0  0.63586  0.41735  0.65964  1.0000
  C   C2209     1.0  0.63895  0.58285  0.52766  1.0000
  C   C2210     1.0  0.64280  0.56392  0.52335  1.0000
  P   P75       1.0  0.64149  0.42726  0.60434  1.0000
  C   C2211     1.0  0.84537  0.57577  0.97398  1.0000
  C   C2212     1.0  0.60824  0.56489  0.58367  1.0000
  C   C2213     1.0  0.60707  0.58019  0.51773  1.0000
  H   H1754     1.0  0.83777  0.42816  0.96649  1.0000
  C   C2214     1.0  0.58970  0.40628  0.60560  1.0000
  H   H1755     1.0  0.77735  0.40585  0.91386  1.0000
  H   H1756     1.0  0.79150  0.40132  0.79933  1.0000
  C   C2215     1.0  0.96928  0.57748  0.99110  1.0000
  C   C2216     1.0  0.55231  0.40344  0.54991  1.0000
  H   H1757     1.0  0.91190  0.44617  0.82453  1.0000
  H   H1758     1.0  0.75772  0.41684  0.67562  1.0000
  H   H1759     1.0  0.61448  0.59252  0.59203  1.0000
  H   H1760     1.0  0.82035  0.49171  0.80060  1.0000
  C   C2217     1.0  0.69414  0.57921  0.65800  1.0000
  H   H1761     1.0  0.59317  0.58622  0.51602  1.0000
  H   H1762     1.0  0.67289  0.44036  0.62916  1.0000
  C   C2218     1.0  0.82784  0.44179  0.90304  1.0000
  S   S295      1.0  0.82831  0.54276  0.97036  1.0000
  H   H1763     1.0  0.61637  0.49990  0.56723  1.0000
  P   P76       1.0  0.66656  0.54764  0.61106  1.0000
  H   H1764     1.0  0.89208  0.55288  0.99448  1.0000
  C   C2219     1.0  0.67213  0.43224  0.56684  1.0000
  H   H1765     1.0  0.63253  0.40875  0.70183  1.0000
  C   C2220     1.0  0.67069  0.49083  0.61490  1.0000
  H   H1766     1.0  0.66924  0.57571  0.56571  1.0000
  H   H1767     1.0  0.63731  0.46299  0.63003  1.0000
  C   C2221     1.0  0.67010  0.49979  0.66033  1.0000
  C   C2222     1.0  0.62774  0.45370  0.56717  1.0000
  C   C2223     1.0  0.87897  0.55939  0.98910  1.0000
  C   C2224     1.0  0.83914  0.42919  0.94488  1.0000
  H   H1768     1.0  0.68189  0.43810  0.67578  1.0000
  S   S296      1.0  0.63201  0.52845  0.51466  1.0000
  H   H1769     1.0  0.66188  0.42211  0.71211  1.0000
  C   C2225     1.0  0.64719  0.42616  0.63886  1.0000
  H   H1770     1.0  0.62634  0.49427  0.61350  1.0000
  H   H1771     1.0  0.74703  0.42123  0.62995  1.0000
  S   S297      1.0  0.79132  0.50619  0.98508  1.0000
  C   C2226     1.0  0.66281  0.42005  0.58591  1.0000
  C   C2227     1.0  0.82622  0.44014  0.93097  1.0000
  H   H1772     1.0  0.81787  0.45072  0.89268  1.0000
  C   C2228     1.0  0.60470  0.41658  0.61098  1.0000
  C   C2229     1.0  0.62128  0.47142  0.55808  1.0000
  C   C2230     1.0  0.66750  0.52348  0.62352  1.0000
  C   C2231     1.0  0.66220  0.57814  0.67679  1.0000
  C   C2232     1.0  0.62860  0.55284  0.51726  1.0000
  H   H1773     1.0  0.68169  0.55520  0.86677  1.0000
  C   C2233     1.0  0.66898  0.43237  0.67125  1.0000
  H   H1774     1.0  0.70196  0.52796  0.59485  1.0000
  H   H1775     1.0  0.54775  0.42954  0.56765  1.0000
  H   H1776     1.0  0.62825  0.44254  0.55390  1.0000
  H   H1777     1.0  0.52020  0.41969  0.59659  1.0000
  C   C2234     1.0  0.62260  0.41281  0.59885  1.0000
  C   C2235     1.0  0.67196  0.56203  0.63694  1.0000
  C   C2236     1.0  0.66383  0.43363  0.64490  1.0000
  C   C2237     1.0  0.85547  0.42136  0.90294  1.0000
  H   H1778     1.0  0.88009  0.45656  0.83985  1.0000
  S   S298      1.0  0.74317  0.40390  0.79382  1.0000
  C   C2238     1.0  0.66801  0.51847  0.65107  1.0000
  C   C2239     1.0  0.67159  0.48601  0.64224  1.0000
  S   S299      1.0  0.73271  0.40297  0.73180  1.0000
  H   H1779     1.0  0.67393  0.47165  0.64933  1.0000
  Fe  Fe151     1.0  0.82198  0.51202  0.98058  1.0000
  C   C2240     1.0  0.69418  0.56882  0.54168  1.0000
  H   H1780     1.0  0.71039  0.41151  0.68014  1.0000
  C   C2241     1.0  0.84751  0.47385  0.86164  1.0000
  C   C2242     1.0  0.68068  0.54264  0.85664  1.0000
  H   H1781     1.0  0.67104  0.49601  0.68149  1.0000
  C   C2243     1.0  0.80190  0.40748  0.80990  1.0000
  Fe  Fe152     1.0  0.83246  0.47145  0.99721  1.0000
  C   C2244     1.0  0.66875  0.50947  0.60553  1.0000
  H   H1782     1.0  0.67231  0.48020  0.60071  1.0000
  C   C2245     1.0  0.63696  0.57281  0.60084  1.0000
  H   H1783     1.0  0.70813  0.58390  0.65852  1.0000
  H   H1784     1.0  0.83098  0.51406  0.83058  1.0000
  H   H1785     1.0  0.65053  0.52084  0.82233  1.0000
  H   H1786     1.0  0.69575  0.43591  0.53815  1.0000
  H   H1787     1.0  0.81506  0.44754  0.94195  1.0000
  H   H1788     1.0  0.91922  0.41304  0.81677  1.0000
  C   C2246     1.0  0.68890  0.42653  0.55338  1.0000
  H   H1789     1.0  0.66648  0.44609  0.56195  1.0000
  C   C2247     1.0  0.74993  0.40731  0.63874  1.0000
  H   H1790     1.0  0.69416  0.39704  0.72143  1.0000
  H   H1791     1.0  0.60231  0.42766  0.62435  1.0000
  H   H1792     1.0  0.78877  0.58252  0.97659  1.0000
  H   H1793     1.0  0.80687  0.40113  0.73117  1.0000
  C   C2248     1.0  0.64363  0.55423  0.60047  1.0000
  C   C2249     1.0  0.67071  0.40221  0.59174  1.0000
  H   H1794     1.0  0.62302  0.41147  0.65572  1.0000
  C   C2250     1.0  0.66445  0.53952  0.84460  1.0000
  C   C2251     1.0  0.65808  0.56699  0.65671  1.0000
  H   H1795     1.0  0.66250  0.39994  0.50538  1.0000
  C   C2252     1.0  0.90520  0.41755  0.82356  1.0000
  H   H1796     1.0  0.94755  0.40183  0.91716  1.0000
  H   H1797     1.0  0.59971  0.55277  0.50934  1.0000
  C   C2253     1.0  0.63298  0.46513  0.60988  1.0000
  S   S300      1.0  0.68642  0.40285  0.77829  1.0000
  H   H1798     1.0  0.82291  0.40655  0.77702  1.0000
  C   C2254     1.0  0.72759  0.50509  0.76063  1.0000
  C   C2255     1.0  0.74662  0.50030  0.75853  1.0000
  C   C2256     1.0  0.75566  0.49487  0.78157  1.0000
  C   C2257     1.0  0.74573  0.49420  0.80669  1.0000
  C   C2258     1.0  0.72662  0.49901  0.80906  1.0000
  C   C2259     1.0  0.71759  0.50435  0.78576  1.0000
  P   P77       1.0  0.71354  0.49610  0.84132  1.0000
  C   C2260     1.0  0.70437  0.47314  0.84543  1.0000
  C   C2261     1.0  0.72857  0.49901  0.86766  1.0000
  C   C2262     1.0  0.72769  0.48715  0.89120  1.0000
  C   C2263     1.0  0.73942  0.48947  0.91137  1.0000
  C   C2264     1.0  0.75222  0.50349  0.90815  1.0000
  C   C2265     1.0  0.75322  0.51535  0.88482  1.0000
  C   C2266     1.0  0.74141  0.51318  0.86466  1.0000
  C   C2267     1.0  0.68843  0.46964  0.86277  1.0000
  C   C2268     1.0  0.68109  0.45197  0.86558  1.0000
  C   C2269     1.0  0.68973  0.43765  0.85133  1.0000
  C   C2270     1.0  0.70581  0.44093  0.83453  1.0000
  C   C2271     1.0  0.71313  0.45860  0.83156  1.0000
  C   C2272     1.0  0.69440  0.51320  0.84273  1.0000
  C   C2273     1.0  0.67801  0.51018  0.83071  1.0000
  C   C2274     1.0  0.66313  0.52329  0.83163  1.0000
  C   C2275     1.0  0.69561  0.52956  0.85573  1.0000
  H   H1799     1.0  0.72053  0.50897  0.74269  1.0000
  H   H1800     1.0  0.75428  0.50042  0.73903  1.0000
  H   H1801     1.0  0.77027  0.49050  0.78000  1.0000
  H   H1802     1.0  0.75290  0.48927  0.82413  1.0000
  H   H1803     1.0  0.70281  0.50765  0.78678  1.0000
  H   H1804     1.0  0.71823  0.47589  0.89397  1.0000
  H   H1805     1.0  0.73909  0.47999  0.92923  1.0000
  H   H1806     1.0  0.76167  0.50481  0.92355  1.0000
  H   H1807     1.0  0.76334  0.52605  0.88227  1.0000
  H   H1808     1.0  0.74242  0.52244  0.84663  1.0000
  H   H1809     1.0  0.68167  0.48054  0.87413  1.0000
  H   H1810     1.0  0.66871  0.44935  0.87877  1.0000
  H   H1811     1.0  0.66726  0.52888  0.66545  1.0000
  H   H1812     1.0  0.71256  0.42976  0.82367  1.0000
  H   H1813     1.0  0.72559  0.46081  0.81840  1.0000
  H   H1814     1.0  0.67675  0.49766  0.82057  1.0000
  C   C2276     1.0  0.88293  0.44206  0.83656  1.0000
  H   H1815     1.0  0.63826  0.39670  0.56911  1.0000
  C   C2277     1.0  0.81959  0.41044  0.79729  1.0000
  H   H1816     1.0  0.59486  0.56914  0.57638  1.0000
  H   H1817     1.0  0.86261  0.40031  0.84058  1.0000
  C   C2278     1.0  0.69948  0.53936  0.58010  1.0000
  H   H1818     1.0  0.64408  0.56224  0.65658  1.0000
  C   C2279     1.0  0.68117  0.56615  0.56372  1.0000
  C   C2280     1.0  0.54294  0.41562  0.56720  1.0000
  C   C2281     1.0  0.61227  0.42072  0.50264  1.0000
  C   C2282     1.0  0.83287  0.41880  0.81054  1.0000
  C   C2283     1.0  0.83172  0.46768  0.82272  1.0000
  C   C2284     1.0  0.86881  0.42923  0.84098  1.0000
  H   H1819     1.0  0.84628  0.42150  0.79998  1.0000
  C   C2285     1.0  0.89124  0.40469  0.82801  1.0000
  P   P78       1.0  0.84537  0.43643  0.85271  1.0000
  C   C2286     1.0  0.85382  0.41986  0.93097  1.0000
  H   H1820     1.0  0.86402  0.41170  0.94207  1.0000
  C   C2287     1.0  0.84145  0.46107  0.84488  1.0000
  C   C2288     1.0  0.84374  0.49287  0.85646  1.0000
  H   H1821     1.0  0.80447  0.40865  0.94008  1.0000
  C   C2289     1.0  0.62502  0.39916  0.58027  1.0000
  H   H1822     1.0  0.86708  0.41416  0.89264  1.0000
  S   S301      1.0  0.68841  0.51915  0.50985  1.0000
  H   H1823     1.0  0.56434  0.40784  0.53695  1.0000
  H   H1824     1.0  0.80680  0.42570  0.86900  1.0000
  C   C2290     1.0  0.87735  0.57889  0.98491  1.0000
  C   C2291     1.0  0.70973  0.55666  0.53869  1.0000
  S   S302      1.0  0.85881  0.45238  0.99927  1.0000
  C   C2292     1.0  0.81077  0.42118  0.84926  1.0000
  C   C2293     1.0  0.88062  0.42007  0.99744  1.0000
  C   C2294     1.0  0.68021  0.58428  0.67740  1.0000
  C   C2295     1.0  0.84254  0.43252  0.88874  1.0000
  H   H1825     1.0  0.61708  0.47392  0.53783  1.0000
  C   C2296     1.0  0.90105  0.43621  0.82789  1.0000
  C   C2297     1.0  0.64846  0.40585  0.50480  1.0000
  H   H1826     1.0  0.70678  0.39926  0.63627  1.0000
  H   H1827     1.0  0.60664  0.53647  0.57457  1.0000
  H   H1828     1.0  0.72437  0.53240  0.55567  1.0000
  C   C2298     1.0  0.82805  0.48673  0.81754  1.0000
  C   C2299     1.0  0.68342  0.55107  0.58266  1.0000
  C   C2300     1.0  0.80477  0.39808  0.92591  1.0000
  H   H1829     1.0  0.71960  0.55844  0.52133  1.0000
  H   H1830     1.0  0.66891  0.51294  0.58411  1.0000
  C   C2301     1.0  0.71243  0.54202  0.55802  1.0000
  H   H1831     1.0  0.84821  0.50261  0.86974  1.0000
  C   C2302     1.0  0.78867  0.57337  0.99471  1.0000
  C   C2303     1.0  0.63251  0.54114  0.59102  1.0000
  C   C2304     1.0  0.86030  0.58702  0.97772  1.0000
  H   H1832     1.0  0.69205  0.58019  0.52673  1.0000
  C   C2305     1.0  0.86395  0.54816  0.98574  1.0000
  C   C2306     1.0  0.98183  0.56366  0.98178  1.0000
  H   H1833     1.0  0.77241  0.55296  0.97939  1.0000
  H   H1834     1.0  0.68401  0.42397  0.85324  1.0000
  H   H1835     1.0  0.70926  0.40419  0.54780  1.0000
  C   C2307     1.0  0.52727  0.40994  0.58356  1.0000
  H   H1836     1.0  0.65654  0.55769  0.52563  1.0000
  C   C2308     1.0  0.61080  0.56117  0.51411  1.0000
  C   C2309     1.0  0.61932  0.57807  0.59258  1.0000
  H   H1837     1.0  0.84116  0.39701  0.72143  1.0000
  C   C2310     1.0  0.83400  0.49932  0.83444  1.0000
  H   H1838     1.0  0.95484  0.57781  0.98643  1.0000
  H   H1839     1.0  0.83246  0.58223  0.96767  1.0000
  C   C2311     1.0  0.61515  0.40126  0.50523  1.0000
  C   C2312     1.0  0.63338  0.39391  0.50665  1.0000
  H   H1840     1.0  0.65139  0.58206  0.69184  1.0000
  C   C2313     1.0  0.78940  0.39641  0.91126  1.0000
  H   H1841     1.0  0.64551  0.58338  0.60690  1.0000
  H   H1842     1.0  0.64980  0.59116  0.53337  1.0000
  C   C2314     1.0  0.77951  0.55669  0.99623  1.0000
  C   C2315     1.0  0.62101  0.59105  0.52525  1.0000
  H   H1843     1.0  0.95379  0.39652  0.86894  1.0000
  C   C2316     1.0  0.64562  0.42529  0.50170  1.0000
  H   H1844     1.0  0.89156  0.42909  0.98930  1.0000
  C   C2317     1.0  0.68741  0.39647  0.57803  1.0000
  H   H1845     1.0  0.89845  0.39512  0.99615  1.0000
  S   S303      1.0  0.89742  0.59214  0.98705  1.0000
  H   H1846     1.0  0.68338  0.59297  0.69292  1.0000
  H   H1847     1.0  0.74326  0.39382  0.60429  1.0000
  H   H1848     1.0  0.59827  0.42661  0.50152  1.0000
  C   C2318     1.0  0.62736  0.43266  0.50091  1.0000
  Fe  Fe153     1.0  0.59783  0.65212  0.45512  1.0000
  S   S304      1.0  0.60950  0.64849  0.41331  1.0000
  Fe  Fe154     1.0  0.56512  0.66669  0.28764  1.0000
  S   S305      1.0  0.57222  0.63912  0.27111  1.0000
  S   S306      1.0  0.55125  0.66967  0.32883  1.0000
  Fe  Fe155     1.0  0.57742  0.68882  0.23629  1.0000
  S   S307      1.0  0.58580  0.66304  0.21495  1.0000
  S   S308      1.0  0.57866  0.71820  0.21703  1.0000
  Fe  Fe156     1.0  0.55873  0.65195  0.23469  1.0000
  S   S309      1.0  0.53829  0.63697  0.21257  1.0000
  Fe  Fe157     1.0  0.59866  0.65213  0.25300  1.0000
  S   S310      1.0  0.62835  0.64142  0.26130  1.0000
  S   S311      1.0  0.54973  0.67830  0.25295  1.0000
  S   S312      1.0  0.59210  0.67912  0.27238  1.0000
  S   S313      1.0  0.91234  0.62142  0.03700  1.0000
  H   H1849     1.0  0.50524  0.69832  0.42695  1.0000
  Fe  Fe158     1.0  0.89368  0.64663  0.04201  1.0000
  S   S314      1.0  0.87485  0.65024  0.07915  1.0000
  C   C2319     1.0  0.98534  0.75986  0.24562  1.0000
  S   S315      1.0  0.91389  0.77652  0.28942  1.0000
  Fe  Fe159     1.0  0.91169  0.65076  0.21580  1.0000
  S   S316      1.0  0.91390  0.62677  0.24648  1.0000
  S   S317      1.0  0.92621  0.64808  0.17488  1.0000
  Fe  Fe160     1.0  0.89220  0.67579  0.25545  1.0000
  S   S318      1.0  0.89286  0.65353  0.28940  1.0000
  S   S319      1.0  0.87788  0.70430  0.25627  1.0000
  Fe  Fe161     1.0  0.92264  0.64794  0.27268  1.0000
  S   S320      1.0  0.94670  0.64195  0.29938  1.0000
  Fe  Fe162     1.0  0.88397  0.63425  0.25985  1.0000
  S   S321      1.0  0.86397  0.61007  0.26799  1.0000
  S   S322      1.0  0.92224  0.67154  0.24110  1.0000
  S   S323      1.0  0.88144  0.65694  0.22712  1.0000
  C   C2320     1.0  0.94287  0.60537  0.11593  1.0000
  C   C2321     1.0  0.82910  0.62472  0.25448  1.0000
  C   C2322     1.0  0.81019  0.62318  0.24994  1.0000
  H   H1850     1.0  0.83498  0.63825  0.25368  1.0000
  H   H1851     1.0  0.80175  0.63563  0.24545  1.0000
  C   C2323     1.0  0.98192  0.64905  0.27197  1.0000
  C   C2324     1.0  0.97148  0.64290  0.29570  1.0000
  C   C2325     1.0  0.98724  0.70819  0.06474  1.0000
  H   H1852     1.0  0.97480  0.65402  0.25455  1.0000
  C   C2326     1.0  0.98098  0.63693  0.31820  1.0000
  C   C2327     1.0  0.90514  0.75647  0.27783  1.0000
  C   C2328     1.0  0.89030  0.75787  0.26148  1.0000
  C   C2329     1.0  0.88245  0.74175  0.25430  1.0000
  C   C2330     1.0  0.88974  0.72410  0.26263  1.0000
  C   C2331     1.0  0.90521  0.72266  0.27781  1.0000
  C   C2332     1.0  0.91262  0.73881  0.28592  1.0000
  H   H1853     1.0  0.88441  0.77139  0.25518  1.0000
  H   H1854     1.0  0.87046  0.74297  0.24260  1.0000
  H   H1855     1.0  0.91088  0.70909  0.28413  1.0000
  H   H1856     1.0  0.92403  0.73766  0.29866  1.0000
  C   C2333     1.0  0.88890  0.64970  0.10594  1.0000
  C   C2334     1.0  0.90817  0.64715  0.10140  1.0000
  C   C2335     1.0  0.91944  0.64660  0.12277  1.0000
  C   C2336     1.0  0.91154  0.64858  0.14876  1.0000
  C   C2337     1.0  0.89222  0.65087  0.15339  1.0000
  C   C2338     1.0  0.88090  0.65152  0.13195  1.0000
  H   H1857     1.0  0.91451  0.64561  0.08144  1.0000
  H   H1858     1.0  0.93433  0.64461  0.11907  1.0000
  H   H1859     1.0  0.88597  0.65224  0.17334  1.0000
  H   H1860     1.0  0.86599  0.65343  0.13549  1.0000
  C   C2339     1.0  0.64495  0.62387  0.25063  1.0000
  S   S324      1.0  0.92081  0.76971  0.01313  1.0000
  H   H1861     1.0  0.85989  0.71338  0.40105  1.0000
  C   C2340     1.0  0.73151  0.71233  0.20843  1.0000
  H   H1862     1.0  0.86706  0.71325  0.01148  1.0000
  H   H1863     1.0  0.75172  0.72033  0.17609  1.0000
  C   C2341     1.0  0.54459  0.74679  0.46295  1.0000
  C   C2342     1.0  0.58668  0.73696  0.23285  1.0000
  C   C2343     1.0  0.59488  0.73431  0.25722  1.0000
  C   C2344     1.0  0.60231  0.74942  0.26813  1.0000
  C   C2345     1.0  0.60136  0.76729  0.25505  1.0000
  C   C2346     1.0  0.59257  0.77004  0.23122  1.0000
  C   C2347     1.0  0.58531  0.75491  0.22013  1.0000
  H   H1864     1.0  0.59590  0.72060  0.26730  1.0000
  H   H1865     1.0  0.60896  0.74730  0.28666  1.0000
  H   H1866     1.0  0.59193  0.78371  0.22087  1.0000
  H   H1867     1.0  0.57896  0.75710  0.20131  1.0000
  H   H1868     1.0  0.51360  0.66950  0.40500  1.0000
  H   H1869     1.0  0.50439  0.77202  0.26029  1.0000
  C   C2348     1.0  0.51439  0.64321  0.20875  1.0000
  C   C2349     1.0  0.50780  0.64183  0.18361  1.0000
  C   C2350     1.0  0.55897  0.70381  0.40759  1.0000
  H   H1870     1.0  0.97514  0.70871  0.07896  1.0000
  H   H1871     1.0  0.51752  0.63879  0.16682  1.0000
  C   C2351     1.0  0.59317  0.65629  0.39088  1.0000
  C   C2352     1.0  0.57418  0.65736  0.39904  1.0000
  C   C2353     1.0  0.56121  0.66188  0.37999  1.0000
  C   C2354     1.0  0.56733  0.66528  0.35295  1.0000
  C   C2355     1.0  0.58634  0.66470  0.34516  1.0000
  C   C2356     1.0  0.59923  0.66054  0.36415  1.0000
  H   H1872     1.0  0.56945  0.65415  0.41980  1.0000
  H   H1873     1.0  0.54649  0.66223  0.38611  1.0000
  H   H1874     1.0  0.59122  0.66713  0.32450  1.0000
  H   H1875     1.0  0.61390  0.65997  0.35796  1.0000
  H   H1876     1.0  0.86405  0.60675  0.02621  1.0000
  C   C2357     1.0  0.98230  0.77445  0.29984  1.0000
  H   H1877     1.0  0.92607  0.70229  0.00675  1.0000
  C   C2358     1.0  0.67270  0.59668  0.23480  1.0000
  C   C2359     1.0  0.83526  0.62268  0.14560  1.0000
  C   C2360     1.0  0.98742  0.70625  0.32266  1.0000
  C   C2361     1.0  0.53792  0.62590  0.43192  1.0000
  H   H1878     1.0  0.94273  0.77119  0.06390  1.0000
  C   C2362     1.0  0.78586  0.60458  0.34621  1.0000
  H   H1879     1.0  0.62799  0.61204  0.22369  1.0000
  H   H1880     1.0  0.51537  0.66394  0.30126  1.0000
  H   H1881     1.0  0.52777  0.61408  0.11606  1.0000
  H   H1882     1.0  0.60695  0.62507  0.35834  1.0000
  C   C2363     1.0  0.50556  0.60883  0.26563  1.0000
  H   H1883     1.0  0.95336  0.64416  0.21896  1.0000
  C   C2364     1.0  0.96604  0.72937  0.28876  1.0000
  H   H1884     1.0  0.50581  0.71318  0.33052  1.0000
  C   C2365     1.0  0.68174  0.66257  0.16349  1.0000
  H   H1885     1.0  0.73595  0.72210  0.22165  1.0000
  H   H1886     1.0  0.62205  0.71223  0.22406  1.0000
  C   C2366     1.0  0.68876  0.65634  0.18804  1.0000
  H   H1887     1.0  0.84053  0.75431  0.30986  1.0000
  C   C2367     1.0  0.84024  0.60884  0.26060  1.0000
  C   C2368     1.0  0.69485  0.65501  0.29116  1.0000
  C   C2369     1.0  0.50336  0.65886  0.31358  1.0000
  H   H1888     1.0  0.62413  0.67782  0.22807  1.0000
  C   C2370     1.0  0.66248  0.62268  0.26119  1.0000
  C   C2371     1.0  0.63555  0.70492  0.22244  1.0000
  Fe  Fe163     1.0  0.59785  0.67974  0.49853  1.0000
  C   C2372     1.0  0.52713  0.72573  0.21329  1.0000
  C   C2373     1.0  0.53205  0.70796  0.20534  1.0000
  C   C2374     1.0  0.51852  0.69480  0.20556  1.0000
  H   H1889     1.0  0.95063  0.61456  0.15273  1.0000
  H   H1890     1.0  0.87378  0.75431  0.37685  1.0000
  C   C2375     1.0  0.97489  0.60595  0.12748  1.0000
  C   C2376     1.0  0.52006  0.63200  0.42549  1.0000
  C   C2377     1.0  0.84276  0.62470  0.04431  1.0000
  H   H1891     1.0  0.85500  0.72384  0.29874  1.0000
  C   C2378     1.0  0.67976  0.60813  0.32860  1.0000
  C   C2379     1.0  0.62238  0.60287  0.40539  1.0000
  S   S325      1.0  0.57987  0.67680  0.46526  1.0000
  H   H1892     1.0  0.55339  0.75854  0.45884  1.0000
  C   C2380     1.0  0.64750  0.79173  0.47696  1.0000
  H   H1893     1.0  0.53782  0.73576  0.21346  1.0000
  H   H1894     1.0  0.54641  0.70429  0.19913  1.0000
  H   H1895     1.0  0.52248  0.68097  0.19966  1.0000
  P   P79       1.0  0.51458  0.77199  0.45637  1.0000
  H   H1896     1.0  0.59058  0.74357  0.43690  1.0000
  C   C2381     1.0  0.50850  0.73059  0.22051  1.0000
  C   C2382     1.0  0.85611  0.75605  0.34433  1.0000
  C   C2383     1.0  0.54144  0.72132  0.28306  1.0000
  H   H1897     1.0  0.52412  0.77703  0.35835  1.0000
  H   H1898     1.0  0.76694  0.62179  0.32302  1.0000
  C   C2384     1.0  0.52517  0.74906  0.46231  1.0000
  H   H1899     1.0  0.75766  0.59610  0.29820  1.0000
  H   H1900     1.0  0.65456  0.66101  0.22330  1.0000
  H   H1901     1.0  0.69683  0.63178  0.21291  1.0000
  C   C2385     1.0  0.53122  0.78233  0.26563  1.0000
  H   H1902     1.0  0.95712  0.61916  0.25501  1.0000
  C   C2386     1.0  0.63308  0.68789  0.42910  1.0000
  C   C2387     1.0  0.64289  0.69690  0.44670  1.0000
  C   C2388     1.0  0.64220  0.71625  0.44578  1.0000
  C   C2389     1.0  0.63144  0.72660  0.42757  1.0000
  C   C2390     1.0  0.62095  0.71759  0.41049  1.0000
  C   C2391     1.0  0.62218  0.69815  0.41096  1.0000
  P   P80       1.0  0.60724  0.73084  0.38666  1.0000
  C   C2392     1.0  0.58447  0.72169  0.38618  1.0000
  C   C2393     1.0  0.60263  0.75390  0.39793  1.0000
  C   C2394     1.0  0.60722  0.76995  0.38162  1.0000
  C   C2395     1.0  0.57427  0.72568  0.36365  1.0000
  C   C2396     1.0  0.55688  0.71817  0.36273  1.0000
  C   C2397     1.0  0.54926  0.70716  0.38462  1.0000
  C   C2398     1.0  0.57651  0.71109  0.40841  1.0000
  C   C2399     1.0  0.62026  0.72921  0.35448  1.0000
  C   C2400     1.0  0.61596  0.71584  0.33728  1.0000
  C   C2401     1.0  0.62592  0.71456  0.31235  1.0000
  C   C2402     1.0  0.64055  0.72628  0.30463  1.0000
  C   C2403     1.0  0.64552  0.73896  0.32214  1.0000
  C   C2404     1.0  0.63565  0.74019  0.34718  1.0000
  H   H1903     1.0  0.63374  0.67289  0.42987  1.0000
  H   H1904     1.0  0.93309  0.73199  0.02440  1.0000
  C   C2405     1.0  0.64134  0.61131  0.23211  1.0000
  H   H1905     1.0  0.63121  0.74157  0.42721  1.0000
  H   H1906     1.0  0.61455  0.69087  0.39759  1.0000
  H   H1907     1.0  0.61327  0.76914  0.36136  1.0000
  H   H1908     1.0  0.57997  0.73417  0.34650  1.0000
  C   C2406     1.0  0.52695  0.62238  0.38049  1.0000
  H   H1909     1.0  0.58391  0.70828  0.42625  1.0000
  H   H1910     1.0  0.60498  0.70628  0.34301  1.0000
  H   H1911     1.0  0.62217  0.70458  0.29891  1.0000
  H   H1912     1.0  0.64797  0.72559  0.28504  1.0000
  H   H1913     1.0  0.68140  0.71339  0.21018  1.0000
  H   H1914     1.0  0.64003  0.74973  0.36075  1.0000
  C   C2407     1.0  0.94885  0.68357  0.06783  1.0000
  C   C2408     1.0  0.95692  0.67429  0.08969  1.0000
  C   C2409     1.0  0.95090  0.67873  0.11567  1.0000
  C   C2410     1.0  0.93636  0.69197  0.11985  1.0000
  C   C2411     1.0  0.92784  0.70107  0.09798  1.0000
  C   C2412     1.0  0.93459  0.69709  0.07191  1.0000
  P   P81       1.0  0.90802  0.71717  0.10305  1.0000
  C   C2413     1.0  0.89371  0.71617  0.07524  1.0000
  C   C2414     1.0  0.89523  0.71024  0.13457  1.0000
  C   C2415     1.0  0.87919  0.69987  0.13535  1.0000
  C   C2416     1.0  0.86956  0.69457  0.15986  1.0000
  C   C2417     1.0  0.87580  0.69957  0.18376  1.0000
  C   C2418     1.0  0.89181  0.70970  0.18325  1.0000
  C   C2419     1.0  0.90154  0.71495  0.15881  1.0000
  C   C2420     1.0  0.88802  0.73245  0.06035  1.0000
  C   C2421     1.0  0.87832  0.73137  0.03758  1.0000
  C   C2422     1.0  0.87404  0.71411  0.02962  1.0000
  C   C2423     1.0  0.87932  0.69791  0.04455  1.0000
  C   C2424     1.0  0.88926  0.69890  0.06710  1.0000
  C   C2425     1.0  0.91556  0.74069  0.10283  1.0000
  C   C2426     1.0  0.92916  0.74719  0.08318  1.0000
  C   C2427     1.0  0.91056  0.77206  0.11717  1.0000
  C   C2428     1.0  0.90611  0.75337  0.11960  1.0000
  H   H1915     1.0  0.95335  0.67993  0.04769  1.0000
  H   H1916     1.0  0.96751  0.66337  0.08641  1.0000
  H   H1917     1.0  0.95670  0.67108  0.13270  1.0000
  H   H1918     1.0  0.93134  0.69434  0.14022  1.0000
  H   H1919     1.0  0.92831  0.70385  0.05470  1.0000
  H   H1920     1.0  0.87405  0.69569  0.11725  1.0000
  H   H1921     1.0  0.85735  0.68640  0.16032  1.0000
  H   H1922     1.0  0.86830  0.69553  0.20276  1.0000
  H   H1923     1.0  0.89666  0.71345  0.20190  1.0000
  H   H1924     1.0  0.91398  0.72270  0.15887  1.0000
  H   H1925     1.0  0.89146  0.74603  0.06557  1.0000
  H   H1926     1.0  0.51390  0.70453  0.48263  1.0000
  H   H1927     1.0  0.93903  0.59683  0.07671  1.0000
  H   H1928     1.0  0.87614  0.68451  0.03824  1.0000
  H   H1929     1.0  0.89379  0.68616  0.07789  1.0000
  H   H1930     1.0  0.93595  0.73792  0.06920  1.0000
  C   C2429     1.0  0.72270  0.64310  0.26692  1.0000
  H   H1931     1.0  0.89482  0.74910  0.13394  1.0000
  P   P82       1.0  0.69236  0.67303  0.21190  1.0000
  S   S326      1.0  0.53326  0.66564  0.49074  1.0000
  H   H1932     1.0  0.62083  0.74518  0.48279  1.0000
  H   H1933     1.0  0.73590  0.63520  0.26669  1.0000
  C   C2430     1.0  0.98526  0.71201  0.03737  1.0000
  H   H1934     1.0  0.90314  0.78175  0.13013  1.0000
  H   H1935     1.0  0.60808  0.77644  0.49412  1.0000
  S   S327      1.0  0.61205  0.78562  0.26835  1.0000
  C   C2431     1.0  0.60398  0.78747  0.39152  1.0000
  C   C2432     1.0  0.91234  0.66040  0.35029  1.0000
  H   H1936     1.0  0.98476  0.74539  0.12892  1.0000
  C   C2433     1.0  0.61026  0.61606  0.34231  1.0000
  H   H1937     1.0  0.53606  0.70087  0.38354  1.0000
  S   S328      1.0  0.58035  0.63155  0.47998  1.0000
  C   C2434     1.0  0.95093  0.75084  0.35589  1.0000
  H   H1938     1.0  0.52786  0.69659  0.29925  1.0000
  C   C2435     1.0  0.87282  0.72188  0.33127  1.0000
  H   H1939     1.0  0.66878  0.60979  0.40515  1.0000
  H   H1940     1.0  0.54078  0.78440  0.49191  1.0000
  C   C2436     1.0  0.87451  0.71980  0.46215  1.0000
  H   H1941     1.0  0.97323  0.63223  0.33665  1.0000
  H   H1942     1.0  0.98209  0.78984  0.24515  1.0000
  C   C2437     1.0  0.65526  0.66778  0.36867  1.0000
  C   C2438     1.0  0.65245  0.67629  0.34330  1.0000
  C   C2439     1.0  0.64781  0.66564  0.32298  1.0000
  C   C2440     1.0  0.64613  0.64649  0.32803  1.0000
  C   C2441     1.0  0.64873  0.63780  0.35353  1.0000
  C   C2442     1.0  0.65337  0.64863  0.37384  1.0000
  S   S329      1.0  0.61741  0.65619  0.48592  1.0000
  H   H1943     1.0  0.98229  0.68184  0.00314  1.0000
  H   H1944     1.0  0.80138  0.61103  0.07436  1.0000
  H   H1945     1.0  0.88188  0.61095  0.07268  1.0000
  C   C2443     1.0  0.98093  0.77770  0.23421  1.0000
  H   H1946     1.0  0.85039  0.63719  0.03922  1.0000
  C   C2444     1.0  0.96375  0.61759  0.23511  1.0000
  H   H1947     1.0  0.87030  0.61659  0.11854  1.0000
  H   H1948     1.0  0.50690  0.74715  0.33216  1.0000
  C   C2445     1.0  0.67625  0.60920  0.25341  1.0000
  H   H1949     1.0  0.89472  0.60563  0.15184  1.0000
  H   H1950     1.0  0.96568  0.68678  0.32292  1.0000
  H   H1951     1.0  0.64312  0.78393  0.46118  1.0000
  C   C2446     1.0  0.68192  0.63092  0.15086  1.0000
  C   C2447     1.0  0.69203  0.63720  0.19393  1.0000
  H   H1952     1.0  0.96869  0.76641  0.17379  1.0000
  H   H1953     1.0  0.67871  0.67723  0.15880  1.0000
  Fe  Fe164     1.0  0.56369  0.65682  0.49360  1.0000
  H   H1954     1.0  0.68974  0.60872  0.26136  1.0000
  H   H1955     1.0  0.65854  0.67607  0.38455  1.0000
  H   H1956     1.0  0.65365  0.69115  0.33954  1.0000
  H   H1957     1.0  0.64524  0.67214  0.30336  1.0000
  H   H1958     1.0  0.64235  0.63852  0.31213  1.0000
  H   H1959     1.0  0.65499  0.64257  0.39389  1.0000
  C   C2448     1.0  0.54051  0.77940  0.41310  1.0000
  C   C2449     1.0  0.95574  0.60903  0.13400  1.0000
  C   C2450     1.0  0.89983  0.72360  0.42761  1.0000
  C   C2451     1.0  0.92427  0.73211  0.00809  1.0000
  C   C2452     1.0  0.82513  0.62582  0.05788  1.0000
  H   H1960     1.0  0.56083  0.78502  0.37997  1.0000
  C   C2453     1.0  0.65513  0.59782  0.22428  1.0000
  C   C2454     1.0  0.59070  0.77330  0.43351  1.0000
  H   H1961     1.0  0.96980  0.75272  0.08674  1.0000
  C   C2455     1.0  0.98350  0.73498  0.29474  1.0000
  H   H1962     1.0  0.66548  0.63239  0.27531  1.0000
  C   C2456     1.0  0.96174  0.63172  0.21483  1.0000
  H   H1963     1.0  0.70508  0.60362  0.30356  1.0000
  H   H1964     1.0  0.84236  0.65199  0.20511  1.0000
  C   C2457     1.0  0.93312  0.76603  0.08022  1.0000
  H   H1965     1.0  0.98966  0.71446  0.13659  1.0000
  C   C2458     1.0  0.69946  0.66161  0.24294  1.0000
  C   C2459     1.0  0.92391  0.77844  0.09729  1.0000
  S   S330      1.0  0.91620  0.66619  0.02908  1.0000
  H   H1966     1.0  0.72535  0.65032  0.22457  1.0000
  H   H1967     1.0  0.97622  0.68887  0.16540  1.0000
  C   C2460     1.0  0.52993  0.75002  0.30168  1.0000
  H   H1968     1.0  0.55313  0.69512  0.42449  1.0000
  H   H1969     1.0  0.95644  0.77759  0.28041  1.0000
  H   H1970     1.0  0.59636  0.76906  0.32207  1.0000
  C   C2461     1.0  0.51466  0.63091  0.39945  1.0000
  C   C2462     1.0  0.59418  0.75575  0.42389  1.0000
  C   C2463     1.0  0.52833  0.71149  0.29986  1.0000
  C   C2464     1.0  0.51594  0.72088  0.31755  1.0000
  C   C2465     1.0  0.86972  0.74747  0.35994  1.0000
  C   C2466     1.0  0.52859  0.59798  0.15390  1.0000
  H   H1971     1.0  0.81911  0.63923  0.06295  1.0000
  H   H1972     1.0  0.87918  0.70880  0.32547  1.0000
  C   C2467     1.0  0.54170  0.71424  0.47688  1.0000
  C   C2468     1.0  0.91388  0.69365  0.34138  1.0000
  C   C2469     1.0  0.54210  0.74048  0.28373  1.0000
  C   C2470     1.0  0.91750  0.75034  0.35439  1.0000
  H   H1973     1.0  0.58325  0.62065  0.32717  1.0000
  C   C2471     1.0  0.85047  0.60753  0.03716  1.0000
  H   H1974     1.0  0.95748  0.73821  0.27581  1.0000
  H   H1975     1.0  0.94649  0.70754  0.29341  1.0000
  H   H1976     1.0  0.55116  0.71424  0.26931  1.0000
  H   H1977     1.0  0.82300  0.66486  0.16892  1.0000
  H   H1978     1.0  0.92804  0.67379  0.31645  1.0000
  H   H1979     1.0  0.65074  0.68886  0.46140  1.0000
  H   H1980     1.0  0.74183  0.69773  0.14597  1.0000
  C   C2472     1.0  0.55116  0.78239  0.31420  1.0000
  C   C2473     1.0  0.63669  0.68555  0.22464  1.0000
  P   P83       1.0  0.89634  0.71983  0.37319  1.0000
  S   S331      1.0  0.96237  0.63921  0.03653  1.0000
  C   C2474     1.0  0.86927  0.71629  0.41583  1.0000
  C   C2475     1.0  0.84041  0.64384  0.18844  1.0000
  C   C2476     1.0  0.68868  0.62459  0.17534  1.0000
  H   H1981     1.0  0.68648  0.65640  0.30987  1.0000
  C   C2477     1.0  0.52979  0.78668  0.43477  1.0000
  C   C2478     1.0  0.65177  0.71484  0.21756  1.0000
  C   C2479     1.0  0.71099  0.68811  0.19996  1.0000
  C   C2480     1.0  0.68861  0.66333  0.26722  1.0000
  H   H1982     1.0  0.65078  0.72989  0.21547  1.0000
  C   C2481     1.0  0.97032  0.62977  0.18917  1.0000
  H   H1983     1.0  0.62912  0.59800  0.47180  1.0000
  C   C2482     1.0  0.50395  0.60047  0.24179  1.0000
  C   C2483     1.0  0.97043  0.70041  0.31561  1.0000
  C   C2484     1.0  0.65399  0.67605  0.22194  1.0000
  C   C2485     1.0  0.93409  0.75957  0.34918  1.0000
  H   H1984     1.0  0.88607  0.68277  0.39812  1.0000
  C   C2486     1.0  0.71665  0.65163  0.24304  1.0000
  C   C2487     1.0  0.50151  0.64732  0.23028  1.0000
  H   H1985     1.0  0.51053  0.63775  0.44083  1.0000
  P   P84       1.0  0.53049  0.77492  0.30093  1.0000
  C   C2488     1.0  0.65056  0.60351  0.44024  1.0000
  C   C2489     1.0  0.85082  0.74754  0.32228  1.0000
  H   H1986     1.0  0.58429  0.77470  0.45358  1.0000
  C   C2490     1.0  0.67842  0.64991  0.14494  1.0000
  C   C2491     1.0  0.66915  0.70537  0.21471  1.0000
  C   C2492     1.0  0.86260  0.71618  0.44279  1.0000
  H   H1987     1.0  0.93500  0.70959  0.38303  1.0000
  C   C2493     1.0  0.67038  0.68585  0.21703  1.0000
  C   C2494     1.0  0.50499  0.65312  0.34057  1.0000
  H   H1988     1.0  0.89518  0.65110  0.38540  1.0000
  C   C2495     1.0  0.95965  0.71206  0.29891  1.0000
  C   C2496     1.0  0.58362  0.77759  0.32318  1.0000
  C   C2497     1.0  0.71695  0.70069  0.21707  1.0000
  C   C2498     1.0  0.93456  0.72360  0.37367  1.0000
  C   C2499     1.0  0.49917  0.67254  0.41154  1.0000
  C   C2500     1.0  0.55039  0.61821  0.41260  1.0000
  C   C2501     1.0  0.90205  0.69644  0.36439  1.0000
  C   C2502     1.0  0.98497  0.74456  0.23010  1.0000
  C   C2503     1.0  0.95118  0.73282  0.36808  1.0000
  H   H1989     1.0  0.96377  0.75798  0.35144  1.0000
  S   S332      1.0  0.77787  0.60494  0.24633  1.0000
  C   C2504     1.0  0.51644  0.77873  0.25062  1.0000
  H   H1990     1.0  0.96426  0.72594  0.37298  1.0000
  H   H1991     1.0  0.71658  0.63833  0.30953  1.0000
  C   C2505     1.0  0.52239  0.71634  0.47655  1.0000
  H   H1992     1.0  0.49905  0.73531  0.47089  1.0000
  Fe  Fe165     1.0  0.93405  0.64097  0.01980  1.0000
  H   H1993     1.0  0.71027  0.70152  0.23710  1.0000
  C   C2506     1.0  0.99180  0.78017  0.32088  1.0000
  C   C2507     1.0  0.56733  0.77085  0.31509  1.0000
  H   H1994     1.0  0.91427  0.72649  0.42226  1.0000
  H   H1995     1.0  0.54807  0.70093  0.48314  1.0000
  C   C2508     1.0  0.64051  0.60704  0.39497  1.0000
  H   H1996     1.0  0.54956  0.72049  0.34475  1.0000
  H   H1997     1.0  0.83318  0.61471  0.12882  1.0000
  C   C2509     1.0  0.91755  0.73232  0.36689  1.0000
  C   C2510     1.0  0.71182  0.64484  0.29100  1.0000
  C   C2511     1.0  0.59679  0.61354  0.32464  1.0000
  H   H1998     1.0  0.87468  0.74393  0.02557  1.0000
  H   H1999     1.0  0.51873  0.61434  0.26937  1.0000
  C   C2512     1.0  0.90978  0.59797  0.18625  1.0000
  H   H2000     1.0  0.91923  0.70537  0.32887  1.0000
  H   H2001     1.0  0.67537  0.67103  0.26779  1.0000
  H   H2002     1.0  0.96841  0.64079  0.17363  1.0000
  H   H2003     1.0  0.90488  0.75731  0.34793  1.0000
  C   C2513     1.0  0.97356  0.76462  0.19363  1.0000
  H   H2004     1.0  0.54210  0.62732  0.45189  1.0000
  P   P85       1.0  0.64607  0.61301  0.35955  1.0000
  H   H2005     1.0  0.55215  0.74784  0.27006  1.0000
  H   H2006     1.0  0.64958  0.72320  0.45975  1.0000
  H   H2007     1.0  0.93376  0.77341  0.33939  1.0000
  H   H2008     1.0  0.55455  0.61044  0.37196  1.0000
  H   H2009     1.0  0.92812  0.60798  0.12091  1.0000
  H   H2010     1.0  0.67680  0.62165  0.31880  1.0000
  C   C2514     1.0  0.87841  0.73046  0.35326  1.0000
  H   H2011     1.0  0.56774  0.72769  0.47082  1.0000
  C   C2515     1.0  0.74040  0.71132  0.18276  1.0000
  C   C2516     1.0  0.85901  0.73038  0.31598  1.0000
  C   C2517     1.0  0.88791  0.72012  0.40802  1.0000
  C   C2518     1.0  0.84884  0.62606  0.18742  1.0000
  C   C2519     1.0  0.51103  0.78433  0.32145  1.0000
  C   C2520     1.0  0.59571  0.78913  0.41738  1.0000
  C   C2521     1.0  0.72018  0.68699  0.17433  1.0000
  C   C2522     1.0  0.98090  0.59919  0.10260  1.0000
  H   H2012     1.0  0.52284  0.62060  0.36065  1.0000
  C   C2523     1.0  0.82946  0.65106  0.16809  1.0000
  C   C2524     1.0  0.60106  0.60256  0.30310  1.0000
  C   C2525     1.0  0.97471  0.78002  0.20851  1.0000
  C   C2526     1.0  0.73479  0.69862  0.16578  1.0000
  C   C2527     1.0  0.81528  0.60974  0.06464  1.0000
  C   C2528     1.0  0.89525  0.68102  0.38030  1.0000
  H   H2013     1.0  0.50579  0.78100  0.21149  1.0000
  C   C2529     1.0  0.97894  0.74694  0.20428  1.0000
  H   H2014     1.0  0.50646  0.64831  0.24980  1.0000
  H   H2015     1.0  0.97832  0.73503  0.19266  1.0000
  H   H2016     1.0  0.50499  0.74454  0.22588  1.0000
  H   H2017     1.0  0.56437  0.61389  0.41749  1.0000
  C   C2530     1.0  0.98085  0.61352  0.18354  1.0000
  C   C2531     1.0  0.53336  0.79109  0.21000  1.0000
  H   H2018     1.0  0.96893  0.74200  0.00695  1.0000
  C   C2532     1.0  0.84643  0.61540  0.16588  1.0000
  C   C2533     1.0  0.49994  0.69951  0.21308  1.0000
  C   C2534     1.0  0.51672  0.74011  0.31853  1.0000
  H   H2019     1.0  0.91637  0.64650  0.34467  1.0000
  H   H2020     1.0  0.84818  0.71329  0.44866  1.0000
  H   H2021     1.0  0.65694  0.74798  0.31618  1.0000
  H   H2022     1.0  0.69111  0.60982  0.18012  1.0000
  C   C2535     1.0  0.82691  0.64049  0.14666  1.0000
  C   C2536     1.0  0.91899  0.67574  0.33437  1.0000
  C   C2537     1.0  0.98275  0.64123  0.01488  1.0000
  C   C2538     1.0  0.96454  0.78235  0.29558  1.0000
  H   H2023     1.0  0.81859  0.64615  0.13072  1.0000
  C   C2539     1.0  0.66749  0.60060  0.34934  1.0000
  H   H2024     1.0  0.49586  0.67502  0.47998  1.0000
  H   H2025     1.0  0.53996  0.76490  0.40936  1.0000
  C   C2540     1.0  0.89311  0.72348  0.45456  1.0000
  C   C2541     1.0  0.87066  0.60259  0.11240  1.0000
  C   C2542     1.0  0.98479  0.75101  0.08635  1.0000
  H   H2026     1.0  0.90235  0.72626  0.46958  1.0000
  H   H2027     1.0  0.86933  0.71973  0.48304  1.0000
  H   H2028     1.0  0.67295  0.65480  0.12609  1.0000
  C   C2543     1.0  0.54486  0.61634  0.38694  1.0000
  C   C2544     1.0  0.80205  0.60578  0.25146  1.0000
  C   C2545     1.0  0.51409  0.73374  0.46960  1.0000
  H   H2029     1.0  0.85715  0.62071  0.20355  1.0000
  C   C2546     1.0  0.96567  0.78957  0.12399  1.0000
  C   C2547     1.0  0.51738  0.78338  0.22297  1.0000
  C   C2548     1.0  0.55279  0.72940  0.46999  1.0000
  H   H2030     1.0  0.71631  0.67710  0.16094  1.0000
  C   C2549     1.0  0.61834  0.59956  0.43302  1.0000
  H   H2031     1.0  0.56779  0.75700  0.30840  1.0000
  H   H2032     1.0  0.92233  0.60440  0.17757  1.0000
  C   C2550     1.0  0.69579  0.59794  0.31986  1.0000
  C   C2551     1.0  0.90041  0.66303  0.37320  1.0000
  H   H2033     1.0  0.98911  0.73076  0.23807  1.0000
  H   H2034     1.0  0.84985  0.76944  0.34906  1.0000
  H   H2035     1.0  0.51812  0.65431  0.34903  1.0000
  H   H2036     1.0  0.67919  0.62106  0.13664  1.0000
  C   C2552     1.0  0.87756  0.59939  0.08633  1.0000
  H   H2037     1.0  0.95877  0.77720  0.12023  1.0000
  C   C2553     1.0  0.51138  0.78035  0.48939  1.0000
  C   C2554     1.0  0.62807  0.60751  0.33880  1.0000
  C   C2555     1.0  0.50024  0.60927  0.13453  1.0000
  P   P86       1.0  0.99242  0.75654  0.27934  1.0000
  H   H2038     1.0  0.97143  0.71468  0.03073  1.0000
  H   H2039     1.0  0.55975  0.79086  0.26265  1.0000
  C   C2556     1.0  0.98951  0.69402  0.16938  1.0000
  H   H2040     1.0  0.79000  0.61588  0.35702  1.0000
  H   H2041     1.0  0.61115  0.60265  0.39263  1.0000
  P   P87       1.0  0.99179  0.61109  0.15026  1.0000
  C   C2557     1.0  0.77282  0.60790  0.32719  1.0000
  H   H2042     1.0  0.98901  0.75792  0.04380  1.0000
  C   C2558     1.0  0.99332  0.74648  0.11016  1.0000
  C   C2559     1.0  0.55223  0.79080  0.39623  1.0000
  H   H2043     1.0  0.99279  0.67460  0.20371  1.0000
  H   H2044     1.0  0.98694  0.78667  0.09205  1.0000
  C   C2560     1.0  0.54754  0.78930  0.25216  1.0000
  C   C2561     1.0  0.65465  0.60687  0.41265  1.0000
  H   H2045     1.0  0.66140  0.60379  0.45385  1.0000
  C   C2562     1.0  0.51965  0.60763  0.13309  1.0000
  C   C2563     1.0  0.49652  0.66051  0.48696  1.0000
  C   C2564     1.0  0.51201  0.78339  0.34936  1.0000
  S   S333      1.0  0.88237  0.64684  0.00190  1.0000
  H   H2046     1.0  0.51608  0.59959  0.22780  1.0000
  C   C2565     1.0  0.99386  0.72357  0.31252  1.0000
  C   C2566     1.0  0.51357  0.65193  0.49349  1.0000
  H   H2047     1.0  0.54366  0.59698  0.15303  1.0000
  C   C2567     1.0  0.63235  0.59683  0.31674  1.0000
  H   H2048     1.0  0.96568  0.60193  0.01310  1.0000
  C   C2568     1.0  0.60800  0.74642  0.49534  1.0000
  H   H2049     1.0  0.59082  0.60103  0.28892  1.0000
  C   C2569     1.0  0.63237  0.60012  0.45042  1.0000
  C   C2570     1.0  0.96800  0.59586  0.08443  1.0000
  H   H2050     1.0  0.79065  0.59757  0.15419  1.0000
  C   C2571     1.0  0.61884  0.59423  0.29914  1.0000
  H   H2051     1.0  0.99471  0.63311  0.09750  1.0000
  C   C2572     1.0  0.89401  0.59869  0.17176  1.0000
  C   C2573     1.0  0.94899  0.59901  0.09105  1.0000
  S   S334      1.0  0.61016  0.70823  0.50049  1.0000
  C   C2574     1.0  0.97437  0.60147  0.22978  1.0000
  C   C2575     1.0  0.98285  0.59937  0.20409  1.0000
  H   H2052     1.0  0.49893  0.79112  0.38714  1.0000
  H   H2053     1.0  0.60422  0.59706  0.44108  1.0000
  H   H2054     1.0  0.49876  0.74560  0.42313  1.0000
  H   H2055     1.0  0.92680  0.79307  0.09469  1.0000
  C   C2576     1.0  0.49767  0.79119  0.36584  1.0000
  C   C2577     1.0  0.49515  0.79272  0.31045  1.0000
  H   H2056     1.0  0.81692  0.59545  0.18240  1.0000
  C   C2578     1.0  0.92018  0.71517  0.99823  1.0000
  Fe  Fe166     1.0  0.59915  0.63674  0.51205  1.0000
  S   S335      1.0  0.58106  0.66080  0.52809  1.0000
  C   C2579     1.0  0.63160  0.73290  0.55616  1.0000
  C   C2580     1.0  0.95490  0.70246  0.94368  1.0000
  H   H2057     1.0  0.56329  0.75112  0.54275  1.0000
  S   S336      1.0  0.61600  0.61403  0.53507  1.0000
  C   C2581     1.0  0.66830  0.78026  0.57348  1.0000
  C   C2582     1.0  0.58238  0.73213  0.52191  1.0000
  C   C2583     1.0  0.60521  0.74937  0.57758  1.0000
  H   H2058     1.0  0.54559  0.72208  0.55549  1.0000
  C   C2584     1.0  0.52142  0.70656  0.56863  1.0000
  C   C2585     1.0  0.50737  0.79005  0.54261  1.0000
  C   C2586     1.0  0.53083  0.72090  0.55394  1.0000
  H   H2059     1.0  0.85880  0.60194  0.97414  1.0000
  C   C2587     1.0  0.91691  0.74915  0.99723  1.0000
  H   H2060     1.0  0.94695  0.70821  0.92737  1.0000
  S   S337      1.0  0.92571  0.64055  0.97771  1.0000
  H   H2061     1.0  0.90001  0.76200  0.96703  1.0000
  H   H2062     1.0  0.60818  0.77813  0.58215  1.0000
  H   H2063     1.0  0.57541  0.71981  0.53011  1.0000
  C   C2588     1.0  0.90851  0.71492  0.97738  1.0000
  C   C2589     1.0  0.95006  0.68562  0.95729  1.0000
  H   H2064     1.0  0.52735  0.62643  0.50767  1.0000
  C   C2590     1.0  0.97966  0.70479  0.97309  1.0000
  H   H2065     1.0  0.97317  0.72507  0.94061  1.0000
  H   H2066     1.0  0.52848  0.74504  0.52636  1.0000
  C   C2591     1.0  0.59897  0.73027  0.50568  1.0000
  C   C2592     1.0  0.90166  0.73202  0.96581  1.0000
  C   C2593     1.0  0.61344  0.73302  0.56811  1.0000
  H   H2067     1.0  0.59095  0.74958  0.58623  1.0000
  C   C2594     1.0  0.64158  0.74911  0.55376  1.0000
  H   H2068     1.0  0.89278  0.73209  0.94949  1.0000
  C   C2595     1.0  0.58502  0.76593  0.51953  1.0000
  C   C2596     1.0  0.61505  0.76568  0.57493  1.0000
  C   C2597     1.0  0.97471  0.68783  0.98664  1.0000
  H   H2069     1.0  0.52891  0.69664  0.58153  1.0000
  H   H2070     1.0  0.63773  0.72028  0.54823  1.0000
  C   C2598     1.0  0.99212  0.74180  0.97654  1.0000
  C   C2599     1.0  0.96969  0.71202  0.95144  1.0000
  H   H2071     1.0  0.68440  0.75958  0.63100  1.0000
  P   P88       1.0  0.64655  0.78649  0.55910  1.0000
  H   H2072     1.0  0.95573  0.66557  0.98969  1.0000
  S   S338      1.0  0.57776  0.78757  0.53236  1.0000
  H   H2073     1.0  0.49523  0.69417  0.57908  1.0000
  Fe  Fe167     1.0  0.90231  0.62224  0.99573  1.0000
  C   C2600     1.0  0.52117  0.73380  0.53752  1.0000
  H   H2074     1.0  0.60559  0.72054  0.56934  1.0000
  H   H2075     1.0  0.63958  0.77101  0.50798  1.0000
  H   H2076     1.0  0.71530  0.78257  0.56033  1.0000
  C   C2601     1.0  0.90582  0.74905  0.97565  1.0000
  Fe  Fe168     1.0  0.90644  0.66522  0.98829  1.0000
  C   C2602     1.0  0.97669  0.74983  0.99101  1.0000
  C   C2603     1.0  0.66804  0.77125  0.59930  1.0000
  H   H2077     1.0  0.97104  0.63202  0.98038  1.0000
  H   H2078     1.0  0.97369  0.79202  0.95646  1.0000
  C   C2604     1.0  0.95981  0.67843  0.97890  1.0000
  C   C2605     1.0  0.57557  0.74986  0.52905  1.0000
  C   C2606     1.0  0.97027  0.76790  0.98390  1.0000
  S   S339      1.0  0.90221  0.69363  0.96535  1.0000
  H   H2079     1.0  0.65493  0.76801  0.61041  1.0000
  H   H2080     1.0  0.93855  0.67828  0.95126  1.0000
  H   H2081     1.0  0.53700  0.79336  0.53835  1.0000
  C   C2607     1.0  0.70171  0.77059  0.59701  1.0000
  C   C2608     1.0  0.63329  0.76572  0.56276  1.0000
  C   C2609     1.0  0.98340  0.63654  0.98833  1.0000
  C   C2610     1.0  0.68545  0.78423  0.55942  1.0000
  H   H2082     1.0  0.71462  0.76691  0.60613  1.0000
  H   H2083     1.0  0.49826  0.60887  0.51373  1.0000
  C   C2611     1.0  0.52698  0.78480  0.50221  1.0000
  C   C2612     1.0  0.99432  0.77039  0.94760  1.0000
  C   C2613     1.0  0.50213  0.73213  0.53533  1.0000
  H   H2084     1.0  0.65564  0.74879  0.54438  1.0000
  C   C2614     1.0  0.68469  0.76647  0.61102  1.0000
  C   C2615     1.0  0.70209  0.77943  0.57121  1.0000
  C   C2616     1.0  0.64542  0.78447  0.50364  1.0000
  C   C2617     1.0  0.97905  0.77818  0.96225  1.0000
  C   C2618     1.0  0.50234  0.70504  0.56681  1.0000
  H   H2085     1.0  0.95808  0.77380  0.99467  1.0000
  C   C2619     1.0  0.52494  0.78972  0.52868  1.0000
  C   C2620     1.0  0.60089  0.76416  0.50186  1.0000
  H   H2086     1.0  0.68612  0.79096  0.53939  1.0000
  C   C2621     1.0  0.49779  0.62325  0.50593  1.0000
  C   C2622     1.0  0.51427  0.63316  0.50257  1.0000
  C   C2623     1.0  0.93339  0.89391  0.13765  1.0000
  H   H2087     1.0  0.97803  0.84434  0.08472  1.0000
  C   C2624     1.0  0.94549  0.86901  0.28532  1.0000
  H   H2088     1.0  0.59312  0.80273  0.42485  1.0000
  H   H2089     1.0  0.89537  0.91907  0.00628  1.0000
  H   H2090     1.0  0.66676  0.96322  0.35821  1.0000
  H   H2091     1.0  0.67159  0.98039  0.42570  1.0000
  S   S340      1.0  0.72128  0.97598  0.45078  1.0000
  Fe  Fe169     1.0  0.74897  0.94457  0.29108  1.0000
  S   S341      1.0  0.74714  0.91368  0.29448  1.0000
  S   S342      1.0  0.73583  0.96285  0.32463  1.0000
  Fe  Fe170     1.0  0.76292  0.94400  0.22977  1.0000
  S   S343      1.0  0.76037  0.91293  0.23061  1.0000
  S   S344      1.0  0.77915  0.96146  0.19523  1.0000
  Fe  Fe171     1.0  0.73323  0.91691  0.25582  1.0000
  S   S345      1.0  0.70801  0.89858  0.26353  1.0000
  Fe  Fe172     1.0  0.77429  0.91189  0.26905  1.0000
  S   S346      1.0  0.79437  0.88696  0.27705  1.0000
  S   S347      1.0  0.73454  0.94819  0.25253  1.0000
  S   S348      1.0  0.77752  0.94274  0.26830  1.0000
  Fe  Fe173     1.0  0.59946  0.83696  0.46029  1.0000
  S   S349      1.0  0.61777  0.83282  0.42277  1.0000
  Fe  Fe174     1.0  0.57397  0.84095  0.22958  1.0000
  S   S350      1.0  0.57422  0.82508  0.26941  1.0000
  S   S351      1.0  0.54824  0.84106  0.20613  1.0000
  Fe  Fe175     1.0  0.61366  0.85440  0.23325  1.0000
  S   S352      1.0  0.61650  0.83895  0.27330  1.0000
  S   S353      1.0  0.63555  0.87364  0.21252  1.0000
  Fe  Fe176     1.0  0.60318  0.81545  0.25609  1.0000
  C   C2625     1.0  0.82519  0.90597  0.04667  1.0000
  Fe  Fe177     1.0  0.58723  0.84966  0.28308  1.0000
  S   S354      1.0  0.57500  0.86076  0.32172  1.0000
  S   S355      1.0  0.60252  0.82995  0.21484  1.0000
  S   S356      1.0  0.58488  0.86659  0.24410  1.0000
  H   H2092     1.0  0.85777  0.96864  0.07567  1.0000
  C   C2626     1.0  0.98639  0.83180  0.23310  1.0000
  Fe  Fe178     1.0  0.93102  0.83473  0.03100  1.0000
  S   S357      1.0  0.93915  0.84457  0.06958  1.0000
  C   C2627     1.0  0.84329  0.83964  0.10150  1.0000
  Fe  Fe179     1.0  0.89746  0.84380  0.25337  1.0000
  S   S358      1.0  0.88456  0.81687  0.24733  1.0000
  S   S359      1.0  0.88237  0.87124  0.26365  1.0000
  Fe  Fe180     1.0  0.93679  0.82983  0.23116  1.0000
  C   C2628     1.0  0.51279  0.89518  0.31170  1.0000
  S   S360      1.0  0.96641  0.83623  0.21512  1.0000
  Fe  Fe181     1.0  0.90155  0.81851  0.20786  1.0000
  S   S361      1.0  0.88916  0.81297  0.16997  1.0000
  H   H2093     1.0  0.96088  0.81376  0.34295  1.0000
  S   S362      1.0  0.91306  0.84603  0.21282  1.0000
  S   S363      1.0  0.92241  0.82982  0.27258  1.0000
  H   H2094     1.0  0.73269  0.93876  0.48625  1.0000
  P   P89       1.0  0.80052  0.98119  0.32710  1.0000
  H   H2095     1.0  0.78206  0.90906  0.09775  1.0000
  C   C2629     1.0  0.99043  0.85237  0.08284  1.0000
  H   H2096     1.0  0.97156  0.82468  0.27110  1.0000
  C   C2630     1.0  0.92479  0.83639  0.09732  1.0000
  C   C2631     1.0  0.93070  0.83712  0.12296  1.0000
  C   C2632     1.0  0.91991  0.82965  0.14533  1.0000
  C   C2633     1.0  0.90290  0.82198  0.14212  1.0000
  C   C2634     1.0  0.89676  0.82168  0.11652  1.0000
  C   C2635     1.0  0.90774  0.82882  0.09414  1.0000
  H   H2097     1.0  0.94382  0.84314  0.12542  1.0000
  H   H2098     1.0  0.92491  0.82960  0.16497  1.0000
  H   H2099     1.0  0.97309  0.85852  0.29322  1.0000
  H   H2100     1.0  0.90292  0.82846  0.07455  1.0000
  C   C2636     1.0  0.96741  0.81619  0.14967  1.0000
  C   C2637     1.0  0.52408  0.83373  0.25104  1.0000
  C   C2638     1.0  0.52630  0.83606  0.22311  1.0000
  H   H2101     1.0  0.56801  0.82139  0.33570  1.0000
  H   H2102     1.0  0.53591  0.83458  0.26258  1.0000
  H   H2103     1.0  0.95527  0.92140  0.24366  1.0000
  C   C2639     1.0  0.60605  0.84101  0.39479  1.0000
  C   C2640     1.0  0.61478  0.83957  0.36910  1.0000
  C   C2641     1.0  0.60531  0.84566  0.34658  1.0000
  C   C2642     1.0  0.58723  0.85345  0.34968  1.0000
  C   C2643     1.0  0.57862  0.85515  0.37542  1.0000
  C   C2644     1.0  0.58796  0.84878  0.39798  1.0000
  H   H2104     1.0  0.62882  0.83366  0.36659  1.0000
  H   H2105     1.0  0.61211  0.84451  0.32688  1.0000
  H   H2106     1.0  0.56461  0.86114  0.37794  1.0000
  H   H2107     1.0  0.58110  0.84986  0.41778  1.0000
  C   C2645     1.0  0.85782  0.87548  0.26480  1.0000
  C   C2646     1.0  0.85045  0.89389  0.26422  1.0000
  C   C2647     1.0  0.83102  0.89777  0.26628  1.0000
  C   C2648     1.0  0.81877  0.88320  0.27007  1.0000
  C   C2649     1.0  0.82617  0.86484  0.27029  1.0000
  C   C2650     1.0  0.84554  0.86098  0.26727  1.0000
  H   H2108     1.0  0.85983  0.90519  0.26237  1.0000
  H   H2109     1.0  0.82553  0.91194  0.26593  1.0000
  H   H2110     1.0  0.81684  0.85346  0.27326  1.0000
  H   H2111     1.0  0.85095  0.84676  0.26784  1.0000
  C   C2651     1.0  0.68812  0.89191  0.24846  1.0000
  C   C2652     1.0  0.67651  0.87890  0.26287  1.0000
  C   C2653     1.0  0.66045  0.87314  0.25219  1.0000
  C   C2654     1.0  0.65582  0.88027  0.22678  1.0000
  C   C2655     1.0  0.66744  0.89329  0.21233  1.0000
  C   C2656     1.0  0.68347  0.89913  0.22310  1.0000
  H   H2112     1.0  0.68006  0.87318  0.28240  1.0000
  H   H2113     1.0  0.65169  0.86317  0.26358  1.0000
  H   H2114     1.0  0.66400  0.89891  0.19267  1.0000
  H   H2115     1.0  0.69224  0.90913  0.21176  1.0000
  C   C2657     1.0  0.72370  0.97156  0.41578  1.0000
  C   C2658     1.0  0.50641  0.83090  0.26421  1.0000
  C   C2659     1.0  0.71826  0.97945  0.36866  1.0000
  C   C2660     1.0  0.73100  0.96528  0.36005  1.0000
  C   C2661     1.0  0.73968  0.95396  0.37972  1.0000
  C   C2662     1.0  0.73622  0.95722  0.40719  1.0000
  H   H2116     1.0  0.74937  0.94288  0.37383  1.0000
  H   H2117     1.0  0.74362  0.94874  0.42189  1.0000
  C   C2663     1.0  0.78751  0.96961  0.10192  1.0000
  C   C2664     1.0  0.77137  0.96156  0.11467  1.0000
  C   C2665     1.0  0.76876  0.95852  0.14294  1.0000
  C   C2666     1.0  0.78225  0.96360  0.15918  1.0000
  C   C2667     1.0  0.97703  0.91896  0.21147  1.0000
  C   C2668     1.0  0.52682  0.88117  0.31089  1.0000
  H   H2118     1.0  0.76057  0.95790  0.10256  1.0000
  H   H2119     1.0  0.75607  0.95267  0.15217  1.0000
  C   C2669     1.0  0.79719  0.92243  0.06353  1.0000
  C   C2670     1.0  0.94602  0.87972  0.17791  1.0000
  C   C2671     1.0  0.79857  0.97139  0.14644  1.0000
  H   H2120     1.0  0.63661  0.91674  0.24146  1.0000
  H   H2121     1.0  0.63124  0.87705  0.48050  1.0000
  C   C2672     1.0  0.80696  0.89304  0.08581  1.0000
  H   H2122     1.0  0.91968  0.88071  0.27160  1.0000
  H   H2123     1.0  0.54291  0.86216  0.28636  1.0000
  C   C2673     1.0  0.88581  0.90326  0.06341  1.0000
  C   C2674     1.0  0.79430  0.90828  0.08383  1.0000
  C   C2675     1.0  0.95849  0.80027  0.14468  1.0000
  H   H2124     1.0  0.99174  0.79900  0.35208  1.0000
  H   H2125     1.0  0.79169  0.96724  0.38272  1.0000
  H   H2126     1.0  0.56228  0.81842  0.38766  1.0000
  S   S364      1.0  0.90409  0.82349  0.02137  1.0000
  H   H2127     1.0  0.91438  0.89417  0.05413  1.0000
  H   H2128     1.0  0.68892  0.83343  0.33884  1.0000
  H   H2129     1.0  0.65442  0.91597  0.28094  1.0000
  H   H2130     1.0  0.60887  0.88984  0.32873  1.0000
  C   C2676     1.0  0.77548  0.98862  0.28789  1.0000
  C   C2677     1.0  0.99026  0.81126  0.11236  1.0000
  C   C2678     1.0  0.93457  0.87894  0.26698  1.0000
  H   H2131     1.0  0.54274  0.83161  0.42514  1.0000
  C   C2679     1.0  0.50135  0.92625  0.22702  1.0000
  C   C2680     1.0  0.98508  0.82659  0.26055  1.0000
  S   S365      1.0  0.58661  0.86455  0.47084  1.0000
  H   H2132     1.0  0.68178  0.89000  0.35913  1.0000
  C   C2681     1.0  0.60339  0.90119  0.41102  1.0000
  C   C2682     1.0  0.85940  0.96297  0.11804  1.0000
  C   C2683     1.0  0.85385  0.95946  0.09305  1.0000
  H   H2133     1.0  0.60515  0.90429  0.24492  1.0000
  C   C2684     1.0  0.83884  0.93187  0.11278  1.0000
  C   C2685     1.0  0.84432  0.93530  0.13810  1.0000
  C   C2686     1.0  0.85471  0.95094  0.14049  1.0000
  P   P90       1.0  0.83982  0.91887  0.16673  1.0000
  C   C2687     1.0  0.81677  0.90980  0.16824  1.0000
  C   C2688     1.0  0.85697  0.89976  0.16564  1.0000
  C   C2689     1.0  0.86010  0.88846  0.18902  1.0000
  C   C2690     1.0  0.87229  0.87289  0.18797  1.0000
  C   C2691     1.0  0.88158  0.86851  0.16363  1.0000
  C   C2692     1.0  0.87897  0.87989  0.14035  1.0000
  C   C2693     1.0  0.86678  0.89552  0.14135  1.0000
  C   C2694     1.0  0.81219  0.89448  0.18616  1.0000
  C   C2695     1.0  0.79431  0.88766  0.18815  1.0000
  C   C2696     1.0  0.78071  0.89625  0.17263  1.0000
  C   C2697     1.0  0.78490  0.91190  0.15552  1.0000
  C   C2698     1.0  0.80280  0.91873  0.15340  1.0000
  C   C2699     1.0  0.84097  0.93060  0.19695  1.0000
  C   C2700     1.0  0.82492  0.93940  0.20864  1.0000
  C   C2701     1.0  0.82570  0.94879  0.23175  1.0000
  C   C2702     1.0  0.84253  0.94947  0.24343  1.0000
  C   C2703     1.0  0.85865  0.94090  0.23178  1.0000
  C   C2704     1.0  0.85792  0.93153  0.20857  1.0000
  C   C2705     1.0  0.51291  0.84595  0.49009  1.0000
  H   H2134     1.0  0.83113  0.91975  0.11023  1.0000
  H   H2135     1.0  0.85937  0.95384  0.15956  1.0000
  H   H2136     1.0  0.85293  0.89145  0.20808  1.0000
  H   H2137     1.0  0.87430  0.86404  0.20606  1.0000
  H   H2138     1.0  0.89064  0.85616  0.16280  1.0000
  H   H2139     1.0  0.88607  0.87630  0.12144  1.0000
  H   H2140     1.0  0.86478  0.90392  0.12302  1.0000
  H   H2141     1.0  0.82214  0.88803  0.19929  1.0000
  H   H2142     1.0  0.79080  0.87610  0.20247  1.0000
  H   H2143     1.0  0.76670  0.89125  0.17473  1.0000
  H   H2144     1.0  0.77408  0.91909  0.14451  1.0000
  H   H2145     1.0  0.80537  0.93132  0.14085  1.0000
  H   H2146     1.0  0.81170  0.93891  0.20005  1.0000
  H   H2147     1.0  0.81309  0.95528  0.24068  1.0000
  H   H2148     1.0  0.84299  0.95644  0.26164  1.0000
  H   H2149     1.0  0.87166  0.94116  0.24103  1.0000
  H   H2150     1.0  0.87052  0.92490  0.19986  1.0000
  C   C2706     1.0  0.83844  0.85872  0.10093  1.0000
  H   H2151     1.0  0.92576  0.86733  0.15657  1.0000
  H   H2152     1.0  0.80413  0.88200  0.10120  1.0000
  C   C2707     1.0  0.86291  0.87965  0.06357  1.0000
  H   H2153     1.0  0.78736  0.93422  0.06199  1.0000
  H   H2154     1.0  0.86745  0.97496  0.11988  1.0000
  C   C2708     1.0  0.69555  0.91647  0.46825  1.0000
  H   H2155     1.0  0.52256  0.92840  0.25471  1.0000
  P   P91       1.0  0.68413  0.91272  0.43840  1.0000
  C   C2709     1.0  0.66981  0.93324  0.43013  1.0000
  C   C2710     1.0  0.70237  0.90926  0.41212  1.0000
  C   C2711     1.0  0.70246  0.91977  0.38741  1.0000
  C   C2712     1.0  0.71678  0.91690  0.36743  1.0000
  C   C2713     1.0  0.73102  0.90353  0.37189  1.0000
  C   C2714     1.0  0.73111  0.89312  0.39651  1.0000
  C   C2715     1.0  0.71691  0.89604  0.41663  1.0000
  C   C2716     1.0  0.65164  0.93185  0.42251  1.0000
  C   C2717     1.0  0.64056  0.94787  0.41698  1.0000
  C   C2718     1.0  0.53201  0.87304  0.28694  1.0000
  C   C2719     1.0  0.66593  0.96686  0.42486  1.0000
  C   C2720     1.0  0.67688  0.95089  0.43103  1.0000
  C   C2721     1.0  0.66997  0.89254  0.44349  1.0000
  C   C2722     1.0  0.67421  0.87688  0.42882  1.0000
  C   C2723     1.0  0.66323  0.86135  0.43323  1.0000
  C   C2724     1.0  0.64800  0.86135  0.45227  1.0000
  C   C2725     1.0  0.64333  0.87702  0.46625  1.0000
  C   C2726     1.0  0.65409  0.89265  0.46166  1.0000
  H   H2156     1.0  0.80788  0.84908  0.06603  1.0000
  Fe  Fe182     1.0  0.80922  0.98383  0.02932  1.0000
  C   C2727     1.0  0.54850  0.79384  0.22455  1.0000
  H   H2157     1.0  0.71782  0.93166  0.44630  1.0000
  C   C2728     1.0  0.96463  0.86651  0.27922  1.0000
  H   H2158     1.0  0.69172  0.93035  0.38360  1.0000
  H   H2159     1.0  0.71713  0.92533  0.34860  1.0000
  H   H2160     1.0  0.74207  0.90142  0.35631  1.0000
  H   H2161     1.0  0.74229  0.88291  0.40004  1.0000
  H   H2162     1.0  0.71723  0.88799  0.43572  1.0000
  H   H2163     1.0  0.64590  0.91848  0.42092  1.0000
  H   H2164     1.0  0.62641  0.94671  0.41184  1.0000
  H   H2165     1.0  0.93401  0.89423  0.22880  1.0000
  C   C2729     1.0  0.64770  0.96538  0.41817  1.0000
  H   H2166     1.0  0.69084  0.95244  0.43660  1.0000
  H   H2167     1.0  0.68580  0.87655  0.41379  1.0000
  H   H2168     1.0  0.66638  0.84936  0.42174  1.0000
  H   H2169     1.0  0.63958  0.84932  0.45598  1.0000
  C   C2730     1.0  0.81149  0.83767  0.02762  1.0000
  H   H2170     1.0  0.98992  0.88953  0.01554  1.0000
  C   C2731     1.0  0.78809  0.92642  0.33476  1.0000
  C   C2732     1.0  0.80501  0.91746  0.32688  1.0000
  C   C2733     1.0  0.82072  0.92782  0.31956  1.0000
  C   C2734     1.0  0.81953  0.94715  0.32011  1.0000
  C   C2735     1.0  0.80267  0.95620  0.32867  1.0000
  C   C2736     1.0  0.78688  0.94573  0.33545  1.0000
  H   H2171     1.0  0.98762  0.87130  0.25044  1.0000
  H   H2172     1.0  0.88363  0.81575  0.11392  1.0000
  H   H2173     1.0  0.60793  0.79988  0.37927  1.0000
  C   C2737     1.0  0.50795  0.87549  0.16443  1.0000
  H   H2174     1.0  0.80921  0.97527  0.15859  1.0000
  H   H2175     1.0  0.50486  0.82979  0.28588  1.0000
  H   H2176     1.0  0.50875  0.90138  0.33036  1.0000
  H   H2177     1.0  0.88548  0.99061  0.17091  1.0000
  H   H2178     1.0  0.79882  0.83009  0.03076  1.0000
  H   H2179     1.0  0.60399  0.90566  0.49366  1.0000
  H   H2180     1.0  0.94373  0.92059  0.12336  1.0000
  H   H2181     1.0  0.98718  0.96975  0.22435  1.0000
  H   H2182     1.0  0.64998  0.90486  0.47227  1.0000
  C   C2738     1.0  0.52726  0.87603  0.15947  1.0000
  C   C2739     1.0  0.98860  0.87161  0.07770  1.0000
  H   H2183     1.0  0.85423  0.98457  0.19369  1.0000
  P   P92       1.0  0.97259  0.89529  0.20555  1.0000
  C   C2740     1.0  0.96203  0.88396  0.23617  1.0000
  C   C2741     1.0  0.50954  0.89334  0.26416  1.0000
  H   H2184     1.0  0.77579  0.91844  0.33959  1.0000
  H   H2185     1.0  0.80584  0.90252  0.32575  1.0000
  H   H2186     1.0  0.83370  0.92079  0.31292  1.0000
  H   H2187     1.0  0.83167  0.95499  0.31356  1.0000
  H   H2188     1.0  0.77352  0.95255  0.34054  1.0000
  C   C2742     1.0  0.78361  0.98879  0.35294  1.0000
  H   H2189     1.0  0.71141  0.98837  0.35385  1.0000
  C   C2743     1.0  0.81255  0.92119  0.04485  1.0000
  H   H2190     1.0  0.55267  0.88482  0.17312  1.0000
  C   C2744     1.0  0.84465  0.82919  0.12594  1.0000
  C   C2745     1.0  0.78277  0.97941  0.37856  1.0000
  C   C2746     1.0  0.83307  0.85829  0.04355  1.0000
  S   S366      1.0  0.78931  0.97393  0.06597  1.0000
  H   H2191     1.0  0.52211  0.81169  0.45509  1.0000
  C   C2747     1.0  0.80805  0.99074  0.27249  1.0000
  C   C2748     1.0  0.51690  0.95450  0.23312  1.0000
  Fe  Fe183     1.0  0.91065  0.80299  0.26270  1.0000
  C   C2749     1.0  0.95682  0.89517  0.17939  1.0000
  C   C2750     1.0  0.62104  0.92861  0.49977  1.0000
  H   H2192     1.0  0.59119  0.89132  0.28886  1.0000
  H   H2193     1.0  0.70039  0.86050  0.35912  1.0000
  H   H2194     1.0  0.65863  0.83605  0.31845  1.0000
  H   H2195     1.0  0.52747  0.87215  0.24563  1.0000
  H   H2196     1.0  0.52695  0.96165  0.24297  1.0000
  C   C2751     1.0  0.86732  0.89802  0.06669  1.0000
  C   C2752     1.0  0.81668  0.84841  0.04755  1.0000
  C   C2753     1.0  0.98153  0.79502  0.10796  1.0000
  H   H2197     1.0  0.56093  0.79978  0.21444  1.0000
  C   C2754     1.0  0.51067  0.83481  0.20845  1.0000
  S   S367      1.0  0.84023  0.98259  0.03011  1.0000
  C   C2755     1.0  0.53765  0.88475  0.17670  1.0000
  C   C2756     1.0  0.96636  0.92821  0.23144  1.0000
  H   H2198     1.0  0.53378  0.87656  0.32873  1.0000
  C   C2757     1.0  0.54210  0.81702  0.42172  1.0000
  C   C2758     1.0  0.71447  0.98244  0.39621  1.0000
  C   C2759     1.0  0.55306  0.80960  0.40056  1.0000
  H   H2199     1.0  0.63912  0.97782  0.41407  1.0000
  C   C2760     1.0  0.83642  0.85662  0.14960  1.0000
  H   H2200     1.0  0.87441  0.85212  0.05618  1.0000
  H   H2201     1.0  0.53931  0.80994  0.32094  1.0000
  H   H2202     1.0  0.82956  0.96833  0.36255  1.0000
  H   H2203     1.0  0.85659  0.90841  0.07146  1.0000
  H   H2204     1.0  0.93905  0.86303  0.30407  1.0000
  S   S368      1.0  0.92642  0.80243  0.22243  1.0000
  C   C2761     1.0  0.50950  0.89149  0.20494  1.0000
  H   H2205     1.0  0.59184  0.92638  0.39212  1.0000
  Fe  Fe184     1.0  0.56136  0.84814  0.48524  1.0000
  H   H2206     1.0  0.81462  0.93200  0.02880  1.0000
  H   H2207     1.0  0.98977  0.83421  0.13778  1.0000
  H   H2208     1.0  0.84877  0.81456  0.12631  1.0000
  H   H2209     1.0  0.96167  0.82459  0.16549  1.0000
  C   C2762     1.0  0.83516  0.86718  0.12519  1.0000
  C   C2763     1.0  0.97288  0.87392  0.25477  1.0000
  C   C2764     1.0  0.94277  0.88644  0.24258  1.0000
  Fe  Fe185     1.0  0.70082  0.98916  0.48329  1.0000
  C   C2765     1.0  0.98324  0.82169  0.13367  1.0000
  C   C2766     1.0  0.68980  0.93504  0.31434  1.0000
  C   C2767     1.0  0.68571  0.95058  0.32894  1.0000
  C   C2768     1.0  0.66979  0.95121  0.34673  1.0000
  C   C2769     1.0  0.65784  0.93638  0.34972  1.0000
  C   C2770     1.0  0.66189  0.92066  0.33518  1.0000
  C   C2771     1.0  0.67808  0.92008  0.31766  1.0000
  P   P93       1.0  0.64618  0.90170  0.33740  1.0000
  C   C2772     1.0  0.65961  0.87999  0.33821  1.0000
  C   C2773     1.0  0.63008  0.90187  0.36697  1.0000
  C   C2774     1.0  0.63055  0.88737  0.38728  1.0000
  C   C2775     1.0  0.60279  0.91563  0.39091  1.0000
  C   C2776     1.0  0.61596  0.91589  0.36884  1.0000
  C   C2777     1.0  0.65308  0.86453  0.32718  1.0000
  C   C2778     1.0  0.66358  0.84777  0.32759  1.0000
  C   C2779     1.0  0.68062  0.84631  0.33910  1.0000
  C   C2780     1.0  0.68706  0.86155  0.35054  1.0000
  C   C2781     1.0  0.67654  0.87830  0.35030  1.0000
  C   C2782     1.0  0.63283  0.90344  0.30831  1.0000
  C   C2783     1.0  0.64047  0.91101  0.28342  1.0000
  C   C2784     1.0  0.63035  0.91155  0.26080  1.0000
  C   C2785     1.0  0.61262  0.90448  0.26274  1.0000
  C   C2786     1.0  0.60486  0.89702  0.28741  1.0000
  C   C2787     1.0  0.61494  0.89635  0.31008  1.0000
  H   H2210     1.0  0.70216  0.93449  0.30050  1.0000
  H   H2211     1.0  0.69496  0.96207  0.32650  1.0000
  C   C2788     1.0  0.84134  0.83770  0.14997  1.0000
  H   H2212     1.0  0.64557  0.93730  0.36335  1.0000
  H   H2213     1.0  0.68153  0.90814  0.30618  1.0000
  H   H2214     1.0  0.64080  0.87599  0.38610  1.0000
  H   H2215     1.0  0.61496  0.92682  0.35292  1.0000
  H   H2216     1.0  0.64006  0.86543  0.31782  1.0000
  C   C2789     1.0  0.84342  0.94405  0.09043  1.0000
  C   C2790     1.0  0.99129  0.92835  0.19601  1.0000
  C   C2791     1.0  0.93421  0.87922  0.15732  1.0000
  H   H2217     1.0  0.92439  0.89328  0.12152  1.0000
  H   H2218     1.0  0.85638  0.86543  0.01527  1.0000
  H   H2219     1.0  0.94678  0.86800  0.19260  1.0000
  S   S369      1.0  0.53249  0.85641  0.47269  1.0000
  H   H2220     1.0  0.83683  0.90510  0.03162  1.0000
  C   C2792     1.0  0.61718  0.88704  0.40909  1.0000
  C   C2793     1.0  0.87737  0.86647  0.05813  1.0000
  P   P94       1.0  0.83922  0.87240  0.06925  1.0000
  C   C2794     1.0  0.52331  0.87894  0.26373  1.0000
  H   H2221     1.0  0.94334  0.80271  0.30723  1.0000
  C   C2795     1.0  0.95595  0.90992  0.15955  1.0000
  C   C2796     1.0  0.94428  0.90926  0.13874  1.0000
  S   S370      1.0  0.57353  0.82138  0.47055  1.0000
  H   H2222     1.0  0.88901  0.91760  0.06492  1.0000
  C   C2797     1.0  0.90006  0.89013  0.05730  1.0000
  H   H2223     1.0  0.83899  0.94153  0.07096  1.0000
  C   C2798     1.0  0.49906  0.88326  0.18699  1.0000
  C   C2799     1.0  0.98412  0.79433  0.33633  1.0000
  C   C2800     1.0  0.89581  0.87179  0.05465  1.0000
  H   H2224     1.0  0.90679  0.86170  0.04945  1.0000
  C   C2801     1.0  0.83327  0.98169  0.35280  1.0000
  H   H2225     1.0  0.83413  0.86314  0.16831  1.0000
  H   H2226     1.0  0.51229  0.83645  0.18682  1.0000
  C   C2802     1.0  0.80127  0.97423  0.11813  1.0000
  H   H2227     1.0  0.96438  0.92184  0.15990  1.0000
  H   H2228     1.0  0.83210  0.88196  0.12531  1.0000
  C   C2803     1.0  0.97002  0.94646  0.23602  1.0000
  H   H2229     1.0  0.98229  0.81054  0.05487  1.0000
  H   H2230     1.0  0.61722  0.87549  0.42416  1.0000
  H   H2231     1.0  0.49993  0.86870  0.15104  1.0000
  H   H2232     1.0  0.53425  0.86944  0.14254  1.0000
  C   C2804     1.0  0.52881  0.89265  0.19915  1.0000
  C   C2805     1.0  0.82281  0.89205  0.06767  1.0000
  H   H2233     1.0  0.59296  0.90070  0.42785  1.0000
  C   C2806     1.0  0.71189  0.92647  0.46578  1.0000
  C   C2807     1.0  0.53047  0.80563  0.43878  1.0000
  C   C2808     1.0  0.99490  0.94660  0.20065  1.0000
  H   H2234     1.0  0.84655  0.83288  0.08308  1.0000
  H   H2235     1.0  0.66550  0.83313  0.48626  1.0000
  H   H2236     1.0  0.61490  0.93783  0.48460  1.0000
  H   H2237     1.0  0.96183  0.95345  0.25160  1.0000
  H   H2238     1.0  0.53715  0.89920  0.21240  1.0000
  H   H2239     1.0  0.97487  0.87814  0.07591  1.0000
  S   S371      1.0  0.94800  0.81134  0.01400  1.0000
  C   C2809     1.0  0.84396  0.85760  0.01917  1.0000
  H   H2240     1.0  0.84296  0.82966  0.16886  1.0000
  H   H2241     1.0  0.81387  0.98022  0.10891  1.0000
  C   C2810     1.0  0.65475  0.80923  0.47065  1.0000
  C   C2811     1.0  0.96678  0.80267  0.33117  1.0000
  C   C2812     1.0  0.51423  0.93563  0.23989  1.0000
  P   P95       1.0  0.49845  0.90168  0.23427  1.0000
  C   C2813     1.0  0.56770  0.80714  0.33059  1.0000
  C   C2814     1.0  0.84944  0.98967  0.35921  1.0000
  H   H2242     1.0  0.65595  0.81497  0.45000  1.0000
  C   C2815     1.0  0.55143  0.80055  0.32222  1.0000
  H   H2243     1.0  0.49726  0.84785  0.45520  1.0000
  C   C2816     1.0  0.77029  0.98567  0.39906  1.0000
  C   C2817     1.0  0.68792  0.91062  0.49404  1.0000
  H   H2244     1.0  0.67525  0.90321  0.49706  1.0000
  C   C2818     1.0  0.66000  0.81949  0.49104  1.0000
  H   H2245     1.0  0.76462  0.98570  0.30361  1.0000
  H   H2246     1.0  0.50916  0.97863  0.20782  1.0000
  C   C2819     1.0  0.50693  0.96405  0.21325  1.0000
  C   C2820     1.0  0.98429  0.95565  0.22067  1.0000
  C   C2821     1.0  0.72047  0.93046  0.48847  1.0000
  C   C2822     1.0  0.49703  0.84385  0.47643  1.0000
  H   H2247     1.0  0.59683  0.80143  0.33494  1.0000
  C   C2823     1.0  0.50416  0.90124  0.28843  1.0000
  H   H2248     1.0  0.76937  0.97822  0.41868  1.0000
  C   C2824     1.0  0.95698  0.79660  0.31090  1.0000
  C   C2825     1.0  0.58390  0.79582  0.33046  1.0000
  H   H2249     1.0  0.53406  0.79503  0.18869  1.0000
  H   H2250     1.0  0.98529  0.87615  0.15691  1.0000
  C   C2826     1.0  0.79421  0.98803  0.29362  1.0000
  H   H2251     1.0  0.85818  0.98238  0.37351  1.0000
  H   H2252     1.0  0.82262  0.98949  0.27623  1.0000
  C   C2827     1.0  0.82186  0.99105  0.33431  1.0000
  H   H2253     1.0  0.98484  0.79644  0.01150  1.0000
  H   H2254     1.0  0.94592  0.79636  0.15676  1.0000
  H   H2255     1.0  0.97088  0.79384  0.20025  1.0000
  C   C2828     1.0  0.77062  0.99231  0.26158  1.0000
  H   H2256     1.0  0.75615  0.99226  0.25726  1.0000
  S   S372      1.0  0.61102  0.82974  0.49990  1.0000
  H   H2257     1.0  0.97867  0.84725  0.00304  1.0000
  C   C2829     1.0  0.82259  0.83681  0.00355  1.0000
  C   C2830     1.0  0.99460  0.88424  0.19421  1.0000
  H   H2258     1.0  0.70492  0.99363  0.40219  1.0000
  Fe  Fe186     1.0  0.92154  0.80107  0.00090  1.0000
  H   H2259     1.0  0.58190  0.95540  0.50896  1.0000
  H   H2260     1.0  0.50575  0.79413  0.56300  1.0000
  C   C2831     1.0  0.63478  0.93527  0.51453  1.0000
  H   H2261     1.0  0.64185  0.89590  0.55525  1.0000
  H   H2262     1.0  0.54608  0.98921  0.63693  1.0000
  C   C2832     1.0  0.59554  0.94599  0.58196  1.0000
  Fe  Fe187     1.0  0.94979  0.82941  0.97596  1.0000
  S   S373      1.0  0.61325  0.87585  0.53461  1.0000
  H   H2263     1.0  0.55894  0.98661  0.68144  1.0000
  C   C2833     1.0  0.99285  0.84374  0.99588  1.0000
  C   C2834     1.0  0.64102  0.98846  0.60567  1.0000
  H   H2264     1.0  0.70971  0.98611  0.64541  1.0000
  H   H2265     1.0  0.69235  0.98655  0.72805  1.0000
  S   S374      1.0  0.57019  0.84226  0.52699  1.0000
  H   H2266     1.0  0.78077  0.98424  0.84786  1.0000
  H   H2267     1.0  0.65584  0.80895  0.60269  1.0000
  S   S375      1.0  0.88464  0.86005  0.96757  1.0000
  C   C2835     1.0  0.69658  0.91458  0.51673  1.0000
  S   S376      1.0  0.97809  0.83000  0.95298  1.0000
  S   S377      1.0  0.92421  0.81816  0.96124  1.0000
  C   C2836     1.0  0.59782  0.96369  0.56877  1.0000
  H   H2268     1.0  0.71930  0.92796  0.53154  1.0000
  H   H2269     1.0  0.59626  0.83459  0.56979  1.0000
  C   C2837     1.0  0.63608  0.90493  0.53954  1.0000
  C   C2838     1.0  0.51248  0.84076  0.51755  1.0000
  C   C2839     1.0  0.65942  0.98407  0.61141  1.0000
  C   C2840     1.0  0.65027  0.79487  0.52429  1.0000
  H   H2270     1.0  0.98139  0.89013  0.91857  1.0000
  H   H2271     1.0  0.82332  0.99076  0.75150  1.0000
  C   C2841     1.0  0.83879  0.84680  0.99934  1.0000
  C   C2842     1.0  0.62196  0.89846  0.52531  1.0000
  H   H2272     1.0  0.66536  0.94224  0.58473  1.0000
  C   C2843     1.0  0.65840  0.95495  0.59105  1.0000
  S   S378      1.0  0.86378  0.94352  0.99769  1.0000
  H   H2273     1.0  0.61128  0.80659  0.55090  1.0000
  C   C2844     1.0  0.64263  0.92307  0.53396  1.0000
  H   H2274     1.0  0.59955  0.94307  0.60222  1.0000
  C   C2845     1.0  0.59258  0.96707  0.54246  1.0000
  Fe  Fe188     1.0  0.59666  0.85676  0.51152  1.0000
  C   C2846     1.0  0.87906  0.88336  0.97576  1.0000
  H   H2275     1.0  0.69043  0.91029  0.53652  1.0000
  C   C2847     1.0  0.58342  0.93525  0.54267  1.0000
  C   C2848     1.0  0.98352  0.89006  0.93966  1.0000
  Fe  Fe189     1.0  0.90875  0.84154  0.98290  1.0000
  S   S379      1.0  0.93475  0.85387  0.99394  1.0000
  C   C2849     1.0  0.64265  0.81406  0.59566  1.0000
  H   H2276     1.0  0.79329  0.98187  0.89278  1.0000
  H   H2277     1.0  0.95410  0.88971  0.95145  1.0000
  H   H2278     1.0  0.84408  0.91700  0.96935  1.0000
  S   S380      1.0  0.69450  0.96942  0.51994  1.0000
  H   H2279     1.0  0.66117  0.82083  0.53338  1.0000
  H   H2280     1.0  0.59421  0.98047  0.53166  1.0000
  H   H2281     1.0  0.83141  0.98929  0.90523  1.0000
  C   C2850     1.0  0.56095  0.98714  0.63834  1.0000
  C   C2851     1.0  0.71285  0.92447  0.51395  1.0000
  H   H2282     1.0  0.52459  0.84242  0.52830  1.0000
  C   C2852     1.0  0.61479  0.91033  0.50491  1.0000
  H   H2283     1.0  0.52011  0.88487  0.51252  1.0000
  H   H2284     1.0  0.81863  0.82852  0.98805  1.0000
  H   H2285     1.0  0.61403  0.97898  0.64404  1.0000
  H   H2286     1.0  0.57838  0.92412  0.53235  1.0000
  C   C2853     1.0  0.97026  0.88997  0.98554  1.0000
  Fe  Fe190     1.0  0.84092  0.96661  0.99337  1.0000
  H   H2287     1.0  0.86449  0.98097  0.91249  1.0000
  C   C2854     1.0  0.50794  0.88576  0.55306  1.0000
  C   C2855     1.0  0.56818  0.98565  0.66341  1.0000
  C   C2856     1.0  0.86216  0.89215  0.96849  1.0000
  C   C2857     1.0  0.59931  0.98150  0.64202  1.0000
  H   H2288     1.0  0.58739  0.91799  0.57877  1.0000
  H   H2289     1.0  0.65330  0.92782  0.54534  1.0000
  H   H2290     1.0  0.61078  0.84978  0.60474  1.0000
  H   H2291     1.0  0.68242  0.96402  0.60832  1.0000
  H   H2292     1.0  0.63304  0.94972  0.57441  1.0000
  C   C2858     1.0  0.63101  0.97587  0.59314  1.0000
  Fe  Fe191     1.0  0.58386  0.81601  0.51123  1.0000
  Fe  Fe192     1.0  0.66455  0.97790  0.51497  1.0000
  H   H2293     1.0  0.64040  0.83665  0.62151  1.0000
  C   C2859     1.0  0.60909  0.82871  0.57722  1.0000
  P   P96       1.0  0.60715  0.98161  0.58629  1.0000
  C   C2860     1.0  0.85712  0.91049  0.97502  1.0000
  H   H2294     1.0  0.56708  0.98701  0.59575  1.0000
  C   C2861     1.0  0.66805  0.96726  0.60429  1.0000
  S   S381      1.0  0.64009  0.95931  0.50964  1.0000
  H   H2295     1.0  0.90393  0.88672  0.99527  1.0000
  H   H2296     1.0  0.52066  0.88090  0.56188  1.0000
  C   C2862     1.0  0.58540  0.95288  0.52952  1.0000
  C   C2863     1.0  0.63998  0.95924  0.58537  1.0000
  C   C2864     1.0  0.63399  0.82988  0.60634  1.0000
  C   C2865     1.0  0.59216  0.98326  0.61672  1.0000
  C   C2866     1.0  0.58853  0.93179  0.56886  1.0000
  C   C2867     1.0  0.50765  0.88807  0.52524  1.0000
  C   C2868     1.0  0.61768  0.81290  0.56653  1.0000
  H   H2297     1.0  0.85285  0.88469  0.95782  1.0000
  C   C2869     1.0  0.61728  0.83727  0.59700  1.0000
  H   H2298     1.0  0.62593  0.99357  0.53469  1.0000
  H   H2299     1.0  0.95821  0.88954  0.99993  1.0000
  C   C2870     1.0  0.86907  0.92036  0.98870  1.0000
  C   C2871     1.0  0.49605  0.83416  0.53138  1.0000
  H   H2300     1.0  0.84739  0.84627  0.98061  1.0000
  H   H2301     1.0  0.99436  0.94763  0.88204  1.0000
  C   C2872     1.0  0.65760  0.81244  0.51776  1.0000
  H   H2302     1.0  0.49563  0.83071  0.55275  1.0000
  C   C2873     1.0  0.89090  0.89321  0.98958  1.0000
  C   C2874     1.0  0.63452  0.80543  0.57564  1.0000
  H   H2303     1.0  0.59292  0.98148  0.68471  1.0000
  C   C2875     1.0  0.96796  0.89003  0.95822  1.0000
  C   C2876     1.0  0.58734  0.98280  0.66524  1.0000
  C   C2877     1.0  0.98812  0.89002  0.99432  1.0000
  H   H2304     1.0  0.66665  0.98957  0.69788  1.0000
  C   C2878     1.0  0.88597  0.91158  0.99584  1.0000
  S   S382      1.0  0.80958  0.96728  0.99273  1.0000
  C   C2879     1.0  0.57287  0.98590  0.61508  1.0000
  S   S383      1.0  0.84345  0.99261  0.96563  1.0000
  S   S384      1.0  0.70690  0.99285  0.58830  1.0000
  C   C2880     1.0  0.86107  0.99155  0.89695  1.0000
