data_image0
_chemical_formula_structural       C4FeHSH2C2HC3HCHCHCFeC2HCH4C2HCHCHSCHC2H3SC3HC2HCHC5HCHS2HCHC5PCHC4HC7HCHC3H4C2H8CH5C3H2CHPH2C5HCH2CHCH3CHCHSCH4CSC2H3C2HCHFeHCHSC2PFeSHFeS2FeSFeS3HFeS2FeC2HSC8HC2HCHC2HCH2C2H2FeHC6H4CHCHC3HC3H2C3PC14HC4H4FeH9CH2C2H2SHCHCH2SC3H2C2HC2H2CHCHC7H2CPH2CH2C7H2CHCHSH2CH3PH4CHC2H2C2HCH2C2HSC3HCH2CH2FeC3HSC2HC3HC2HCH3CHCHC3HSCPHSH5C2H2CH3CHCH2C7HCHC2SHC2H3C2HC2HCHCSH2SH2C4FeSFeS2FeSFeS3C3FeS2FeSFeSFeS3FeS2FeS2FeSFeS3CHCHC2FeSCH3C6H4C6H4C6H4CHC4HCH2CHC6H3SH2C6H4C7H3C3HC2H2CHC3PC15H14CH4C2H2CSC2HSCH2C2H3CH2C2H2C4H2C6H7C2SC2HC4PC18HCH2CH6CH8C3PC14H13C6PC9HC4HC3H12CH4CH2C3H3C3HC2HC3SHC2HCHCHCH4CHPC2HPHFeC3HC2H2C2FeCHC2HC2HCSH2CHFeHC2HC2H2CSC2PHCH2C2HC2H2C4H2C2HC3HC3HC4HC3HCH2C2HPCH4CHC2HCPH5C3HC2H2CHCSCHSHCH7C3HPCHC2HC4HC2H3CHC2H2PH5C4FeC3HSPH2CHC2S2C5HC3H2CHC2H2SC2HC4H2CSHC9HC3HCHCPCHCH2SHFeS2FeSCHSH2C4FeS2C6H3C7H4CHCHSH3C6H3SC7H3C3H2C2SHCHCH2SHCH4CH5CHFeHCSHCH2C2SH4SFeC3HCH2C3HC2H4C6HSHCH3CHCSCH3C3HCHCHC4SFeCHCH3C2H4C2H2CFeH3CSC3HCHC2HPC7PC18H5CHCH4CH2CFeC3H5CHC2SH2C2H2C4H3FeS2HCHFeS2HSHC3SHC2HFeS2H3CSH2CHC3HC2HCHCHC2PC8H4C4HCHCH2C2HCH2CH2C2FeC4H3CHC2FeCHC4PHFeH2C2H2FeC3HCSHC4HPCH2C4HC4H2CHCH2CHCH3CS3CHC2HCHS2H2CFeHC2H4CHC5H5C2HPSHC2H5C3H3CFeC6FeS2FeS2FeSFeS3HFeS2FeS2FeSFeS3FeS2H2SHC4H2C2HC6H4C7H2CHC2HSH2C3H2CH2C2H2C11H4C4H2C7H5CHCHCH2C2HC6PC16HCH7C2H4SH2CHC2H2C2HFeH5CH2C5HCHC2H5C6PC12H15CH4CHCH4C4HC5SH2CHC4PC14HC2H10CH3C6PC2H2CHC4HC7H5CHC2H2C4H8CH2C2H2PC2HFeCH4C3HC6SHC3H4C5H2C6HC2H4CHC2HCH2CH2CH2C2HC2H2CHCH2CHCH2CHSH4C3HC2H3CHCHC3H2CFeHSCHC2FeS2FeSFeSFeS2C2FeS2FeS2FeSFeS3HSHS2HC2SHFeSHC4HCHSC6H5PHC5H2C6H2CHC2HC3H3C6H4C6H4C2HCFeH4CHSC6PC4H2C8HCHCH5C2HCH2CH3C10PC5H2C5H2CHCH2CH5CSCH5CH2C4HCSH3CHCHCHC2H2C2SHC2H3SH3FeHC2SHC2HCH3CHC4HC3PC18H18C2H3CHC2HCHC2H3C2HFeHC7H2CH2SHCHCHC2HC2HC4HC2H3C2H2CPC2HCFeHFeC3H4S2CHSFeHCFeH2CSHFeC3PCHCHCH3CHCHCS2HC2SHCFeHCHC2HCH4C7HCHCHC10H10C3H3SCHCHC2HCHCSHFeHC3HC3HCSFeCPH2C4HCH2CHCHCPC5HSCH3CH3CSH3CPCH2C2HSCSHCH3FeCHSH2CH2CHC2FeH2CHC2HC7H3CFeCHSCHFeS2FeSFeSFeS3PHFeHSH2SHSCFeS2HFeC3H2SH2C3HCHSCHCHCSPCSFeC2PHSCHCHC9H3C6H5C6H5C9PC2HC5HC6H8FeH3CHCH2C2HC8H4C2H4C2H2CHC3H2CHC2HC3SH2CH3C2HCHC3HCH2CHC6HCHCH5SH3CHFeC3PFeC6H2C3H2CHSH2C2H2C4H2CHFeC3SCHC8PC5FeC12H5CH12PSC4H2C5SH2CH2CHCH2C2HCHC2HC4HCHCSHCH2C2HCHCHC6HCH3CHC3H2CHSCHCH3C2HCH3CH2CSC2FeH3CPHCH3CFeHFeCHSFeSCFeS2FeS2FeSFeS3FeCSHCHCS2C8H4C2FeHC2HSCHC6H9C6H3C3SCH2CHCHCHC2H3C3H4C3H2C2H2C4HC2HC2H4C3H2C2H2SH2C2H2CH2CH2CSH2C3HCHCHCHC3H5CHCHFeHC4PC18FeHCH17C6PC18HFeH11CH8C3SCHCPH2CSHC2HCHC3HC2HCHC2H2C3H3CHC2PC4HC2H2C2HCSHCSC4SHC3HSC2HFeH2C2HC3FeSC2SCFeCFeSHCS2HSCHC7H2CHFeH3C7H2CHCHC3H2C8H2C2HCHCHCPCHSC2HC2SCPHCHSC2H3CHC2H4C2SHCH2CHC2HPH4CH3CHSHC5HCH2C3FeH5CHCH4CH4CPC7HCSH4CH7SHCHCHSCH3FeCHFeH2C6PC18H7FeCFeSHCHFeC8H3S2HSCHCHC2HSC2H4CH4C2HC3HC4SCFeS2FeSHFeCFeSCSH2C2SH2CHCHFeS2FeS2FeSFeS3FeS3FeSFeS3FeSFeSFeHS2CH2C2SC6H4CH2C4H6C6H4C7H3C2H3CH3C6H4C6H4C5H4C2HC3SCH2CSFeHCSC3H2C2HCHCPH3CHCH2CHC4SH4CHCHC2H2CHCHC6HCHC2HSHC2H4C6PC18HFeH18CHC6PC18H18C6PC18H20C5HPCH3C2HCH2C2HSFePC3HCHC2H2CHC2S2HCHC3H2CH2CHCHCHC2PC2HC4HC2HC5HCHCH2C2H3CH2C2H2C2H2CH2CFeH2C3H4CH5C3HSC4H2C2HC2H2CH2C2HC4H2CH2FeS2HSCFeSFeSC2Fe2S2H5FeSCFeS2FeSC2SCHCFeS2FeS2FeSFeS3CHSH3C3HCHCHC2HC8H2C6H4C6H4C2HC8H4CHC2H2C6H4C3HCH4CH2CH4C7H2C3HC5HPHC6HC2HCHPC2HCH2CH5C2HSHC4HC4HPC18HCH16SC5H3SPC3HCSCHCH2C4SC3P2HC2H2C5H2CSCHCHC2H6C2HCHC2HC2SC4HCH2CHCSFeHCHC2FeHC6PC18H16CH6C3HC4H3C2HSC2HPS2CH2C3H7FeCH6C2HC3H2C3H6C3H4FeC2H2FeHSFeSCH2CFeSHSCFeSFeS2FeSFeCS2CFeH2C2H3CH4C6H4CHCPH2C6H4C2H2C4HCH2CHSH2CHS2HFeHSFeCH2C2HSH2C4HC2H2C2H2CH4SHCH4C2H3C4HSC4H2C4PH2C2HCHC2H4CHCHC4PC19H3CH10C2HCHC7PCH4C11H5CH2SH4C2HCHC2H2C2HCPHC2HSHCSHC2H2C2HCFeHC5HCH5CHC4PCSH2CHC3HC2HC5HC3H2C2HC2H5C12H5SCHC2SHC5H6C4H2FeHCHCHC3HCH4C2HCHCHC5H3SH3CH2CHC4PC4HPFeS2FeHFeSHSFeHSHFeSCFeCFeSHCFeCSCH2C2HSHC2HC2HPC2HC6HC9H3C6H4C2HCPCHC8PC18H20C3H3CH6CHCSC2H2C3HPHCH3CFeC3H8SCPCH2CHC4HC2HCH2C7HCH3C2SHC4H3CH5CH2C2H3CHSCH2CH2CHSHCH2C2H3C2HC4SC2PH4CHC4H3CSCHCHSC3H3FeS2FeS2FeSFeS3C3SFeS2FeS2FeSFeS3FeS2FeS2FeSFeS3FeS2FeSFeSFeS3C2SHCHCHC2H2C7H4C8H4C6H4C6H4C6H4C6H4C4HCH2CH2C4HCHFeH2C6PCPCH2CH2C2HCHCHC3H3CH2SC2H2CHC3HC3H8FeCHC2PC18H2CH12CHC6H2C4HCHPCH2CHCHCHCHC7H3C7H5CH2PHPCH3C2H2CHC10H2C2HC3HCH3C10H9CPCH2C10H6CHC4HC2H3CSH3C2H2CHC2PC2H3PC3H2C4H2C5H2C3HCH3C2H3C2HCSH3PC6H5CHC2H4CHCHC2HC2HS2HC2H2C4HC3HC3H2C4H3CHC2HC2HC5HCHC2HCHC4HCHCH4CH2CHCHC3H2C3HC2HC3H5CH2C2HC5HCHC3H5C2HCH6C3H6CH2C3H4FeSCHSHFeSHSHCFeS2FeSCFeSFeS3C4H3C6H6CSC3FeCH2C6H2CHC2HC7HSH4CFeCHCSHCSC6PC6H10CHCHC3H4C2H3C2HC3HC4H3SHC4PCH3FeC5H4C2HC2H2CH2C2HCH2CHCHC4PC6HCH2CH2SH2CH6SH2C3HCHPC3H2C15H2CH8CH2FeHCSCSHC3SCHFeHCHS2CHC4H5CHC2HC3HC2HC3HC2H3SHCHC2H2FeS2FeS2FeSFeS3FeS2FeSFeSFeS3FeS2HSFeSFeS3CHC2H2C4HC6H4C6H4C6H2C3HC4H6C9H4C2H3C3SC2HCH2C5H5CHC3HCH2C3HC2HSC4PC7HC6H11C6PC18H20C6HC2H7CHC2H5C2HCPHPCH3C3HC2HC2HC3HCH4C3PHC2H3C2HC2H2C4HC2HCHC2PC7HSC2HCHC3HCH2CH4C3PC4H2C13SPH4CH6CH4C2H3CH2CHFeC3HC2HC2HCHCH2CHSFeCHC2H2SCH3C5HCH2C2H3CHCHCHC2HC4FeSHCSH3CHC4H2CFeS2FeS2FeSFeS3FeS2FeS2FeSFeS3H2SFeSHSFeSFeS3HC4HCHFeC6H4C6H3C6H5CH2C6SH3C2H2CHC6H4PCHC2H4CHC6H4C2H3C4HCFeC2HCHC4H2C3FeCHCHC3SCH2FeHC2HPHCH2CH3CH2C2SC3H2SHC7PC18H18CPC6HCH6C4HCH2C7PCHC3H2CH4C6H6CFeCH2CH2CH5CHSC2H2C3HC3H2C5HC2HC2HCH3CH6C2H2C3HCH2C2HCHC4H3CPC3HC6HCH2FeH2SCHCSHC4HCH2C5H3PHC2HCHC3FeC2HC2H2CPC2HC3SH2CPC2HC2H2C2H2C2HCSCH2C3H3C4H4CH3CH3C3HCH3CHC3HSCHCHC6H2CPC4H3C6H2CHCH3CH3SCH3C3H2FeHC2HC2HC3HCSHC2HCH2C2SH2FeS2FeS2FeSFeS3CHCPFeS3FeSFeCFeS2FeS2FeSFeS2CH2C6H5CHCHCHCHCHC6H4C6H4C2H2C5HC6H6CH4C2H5CH5CH2CHC3H2C2HPC4HCH2CHC5HC2H2C3H5CHC2HC5HC6PC8HCHC7HCH3CHCH4C2H8C3HCH2C3HCHC3H2C3SHCHCHCHCHC2HFeCHC9PC16H11CH9C3H3CS2CHCH2PCHC2HC3H4CSC3HC2H2CHC3HCHPHC6SFeCSFeH2S2CHC3SCHCFeC3SC2HCH4CSCHCH2C3HFeCH3CH5C2H2C6HCH2C6HPC6HC7HCH4C5H2CH3C2H6C2PH5C2FeCH2CHCH4CHC2H2C3HFeS2FeSHFeS2C3FeS2HCFeSCSFeS2FeS2FeSFeS3FeS2FeS2FeSFeS3FeCH3C5H2C6H8C4H2C5SHC7HC2H6CH2C8H4CH2C6H4C2HC2H4C7H2C8PC20H18C3HC2HC7H2CPC2HC3H5CH4SCHC2H5FeH3C7HPC3H3FeHC7HC2H5CH2C2HC2H2C5HCHC2H8CSC6H7C2PC2H2CHC8HC3HCSH4C4H5SH2PHC6HC2FeC4H2C6H4C2H4SH2CHSC2H4CH2CH5PCSC3H3CH5CHC6SCH2SHC2HC3HC4H4CH2C4HC2HC3HCHCH2CHC3HP2CHCH2CHCPC4FeHC2HC4HC2FeCH2C2HCH2CPH2C3HCSHC3H2SC3H2SC2H2FeS2FeS2FeCFeS3FeH2FeSCFeSFeS3C3H2CHCHC6H6CH2SCH3C7H5C2H2CH2CHC6PC20H4C2H11CH5FeHCHC3H4C2H2C4HSHCHSHCH2FeH2PH2CHC2PC3HCH2C2H3C2HCHCHCH2C3FeCHCHC2SCHCHPCHCHPC4HC6PC4HC10HC2H11C2HCHCHCHC2HCHCH2CH2C2SHCH2CH2C9HC6HC2HSHCHSHC4SH2C3HCH3SCSH3C2HC3H3C3H4CHSHC2H2C5HC4SHC2H3CHC4HCH3CFeC2HCHSHFe2SCFeSCSC2HCHCHCSCSPCH3CSC5HSCH3CH2C2FeCHCHC4HC4H6CHCHCPHCH2CSHC2HCHC2HCH2C2HCHCH3CH3C5HFeSC2H3SC4HC3HC
_chemical_formula_sum              "C4320 Fe288 H3456 S576 P144"
_cell_length_a       72.0388
_cell_length_b       72.0753
_cell_length_c       72.1783
_cell_angle_alpha    75.1952
_cell_angle_beta     75.2627
_cell_angle_gamma    74.8483

_space_group_name_H-M_alt    "P 1"
_space_group_IT_number       1

loop_
  _space_group_symop_operation_xyz
  'x, y, z'

loop_
  _atom_site_type_symbol
  _atom_site_label
  _atom_site_symmetry_multiplicity
  _atom_site_fract_x
  _atom_site_fract_y
  _atom_site_fract_z
  _atom_site_occupancy
  C   C1        1.0  0.26309  0.44000  0.13341  1.0000
  C   C2        1.0  0.14822  0.44847  0.22790  1.0000
  C   C3        1.0  0.26799  0.44704  0.07166  1.0000
  C   C4        1.0  0.27242  0.46901  0.11140  1.0000
  Fe  Fe1       1.0  0.29464  0.40484  0.20263  1.0000
  H   H1        1.0  0.12458  0.45643  0.13213  1.0000
  S   S1        1.0  0.30068  0.43506  0.19034  1.0000
  H   H2        1.0  0.17483  0.46562  0.01480  1.0000
  H   H3        1.0  0.29810  0.46993  0.15889  1.0000
  C   C5        1.0  0.27518  0.46370  0.06113  1.0000
  C   C6        1.0  0.08434  0.43569  0.21396  1.0000
  H   H4        1.0  0.26897  0.48254  0.10121  1.0000
  C   C7        1.0  0.26630  0.37753  0.16812  1.0000
  C   C8        1.0  0.10470  0.42852  0.21203  1.0000
  C   C9        1.0  0.17115  0.47833  0.11838  1.0000
  H   H5        1.0  0.00528  0.47635  0.20442  1.0000
  C   C10       1.0  0.25562  0.47689  0.16619  1.0000
  H   H6        1.0  0.13345  0.43296  0.19616  1.0000
  C   C11       1.0  0.25843  0.45743  0.11985  1.0000
  H   H7        1.0  0.26311  0.46379  0.16047  1.0000
  C   C12       1.0  0.17104  0.47822  0.13777  1.0000
  Fe  Fe2       1.0  0.32012  0.42191  0.16528  1.0000
  C   C13       1.0  0.25356  0.44726  0.04454  1.0000
  C   C14       1.0  0.20557  0.42906  0.11063  1.0000
  H   H8        1.0  0.27980  0.47133  0.21233  1.0000
  C   C15       1.0  0.09040  0.46184  0.18573  1.0000
  H   H9        1.0  0.25238  0.43094  0.14011  1.0000
  H   H10       1.0  0.25704  0.47182  0.02014  1.0000
  H   H11       1.0  0.12078  0.46230  0.17288  1.0000
  H   H12       1.0  0.28337  0.35496  0.15245  1.0000
  C   C16       1.0  0.28172  0.43421  0.13837  1.0000
  C   C17       1.0  0.20621  0.46057  0.05301  1.0000
  H   H13       1.0  0.28525  0.42075  0.14883  1.0000
  C   C18       1.0  0.24822  0.39040  0.17195  1.0000
  H   H14       1.0  0.18491  0.47365  0.10872  1.0000
  C   C19       1.0  0.25624  0.39894  0.05068  1.0000
  H   H15       1.0  0.20971  0.46877  0.23277  1.0000
  S   S2        1.0  0.31939  0.39464  0.21877  1.0000
  C   C20       1.0  0.29115  0.46301  0.11594  1.0000
  H   H16       1.0  0.22813  0.42026  0.12748  1.0000
  C   C21       1.0  0.07850  0.48381  0.12976  1.0000
  C   C22       1.0  0.29586  0.44560  0.12938  1.0000
  H   H17       1.0  0.26963  0.36955  0.06333  1.0000
  H   H18       1.0  0.15401  0.48396  0.09656  1.0000
  H   H19       1.0  0.26998  0.40389  0.04630  1.0000
  S   S3        1.0  0.31205  0.39262  0.17636  1.0000
  C   C23       1.0  0.23281  0.39057  0.16325  1.0000
  C   C24       1.0  0.07732  0.45247  0.20068  1.0000
  C   C25       1.0  0.01744  0.48361  0.20065  1.0000
  H   H20       1.0  0.25631  0.35499  0.13686  1.0000
  C   C26       1.0  0.25401  0.36486  0.14669  1.0000
  C   C27       1.0  0.26925  0.36481  0.15545  1.0000
  H   H21       1.0  0.22413  0.37749  0.14377  1.0000
  C   C28       1.0  0.23877  0.41192  0.04663  1.0000
  H   H22       1.0  0.25778  0.46263  0.19561  1.0000
  C   C29       1.0  0.02584  0.48545  0.21542  1.0000
  C   C30       1.0  0.24937  0.43776  0.00833  1.0000
  C   C31       1.0  0.06784  0.46918  0.13906  1.0000
  C   C32       1.0  0.18565  0.43128  0.11091  1.0000
  C   C33       1.0  0.04185  0.42831  0.20933  1.0000
  H   H23       1.0  0.16063  0.48154  0.04337  1.0000
  C   C34       1.0  0.09905  0.47945  0.12729  1.0000
  H   H24       1.0  0.30197  0.47196  0.10914  1.0000
  S   S4        1.0  0.14975  0.46789  0.20757  1.0000
  S   S5        1.0  0.23543  0.46417  0.11300  1.0000
  H   H25       1.0  0.10549  0.43080  0.14876  1.0000
  C   C35       1.0  0.22122  0.40504  0.05215  1.0000
  H   H26       1.0  0.32376  0.47264  0.19312  1.0000
  C   C36       1.0  0.25275  0.47640  0.18620  1.0000
  C   C37       1.0  0.22114  0.38555  0.06173  1.0000
  C   C38       1.0  0.17608  0.40637  0.19794  1.0000
  C   C39       1.0  0.19242  0.39508  0.18748  1.0000
  C   C40       1.0  0.23855  0.37278  0.06581  1.0000
  P   P1        1.0  0.20934  0.40715  0.16809  1.0000
  C   C41       1.0  0.21262  0.42725  0.17663  1.0000
  H   H27       1.0  0.18082  0.47888  0.06745  1.0000
  C   C42       1.0  0.19560  0.37452  0.19266  1.0000
  C   C43       1.0  0.25610  0.37948  0.06028  1.0000
  C   C44       1.0  0.16685  0.37676  0.21887  1.0000
  C   C45       1.0  0.15360  0.48456  0.11144  1.0000
  H   H28       1.0  0.05487  0.42514  0.19824  1.0000
  C   C46       1.0  0.21363  0.44542  0.16398  1.0000
  C   C47       1.0  0.21498  0.46121  0.17099  1.0000
  C   C48       1.0  0.21502  0.45908  0.19076  1.0000
  C   C49       1.0  0.21514  0.44077  0.20324  1.0000
  C   C50       1.0  0.21380  0.42490  0.19626  1.0000
  C   C51       1.0  0.19993  0.41621  0.14575  1.0000
  C   C52       1.0  0.17282  0.42610  0.12857  1.0000
  H   H29       1.0  0.20811  0.36547  0.18495  1.0000
  C   C53       1.0  0.20272  0.45299  0.02337  1.0000
  H   H30       1.0  0.09568  0.48429  0.08971  1.0000
  C   C54       1.0  0.17989  0.41865  0.14596  1.0000
  C   C55       1.0  0.18683  0.47129  0.05540  1.0000
  C   C56       1.0  0.11775  0.43803  0.19713  1.0000
  H   H31       1.0  0.27801  0.37750  0.17505  1.0000
  H   H32       1.0  0.17340  0.42229  0.19435  1.0000
  H   H33       1.0  0.02217  0.43119  0.19014  1.0000
  H   H34       1.0  0.24651  0.40019  0.18166  1.0000
  C   C57       1.0  0.02338  0.43153  0.20471  1.0000
  C   C58       1.0  0.21431  0.45141  0.03692  1.0000
  H   H35       1.0  0.27060  0.44060  0.08632  1.0000
  H   H36       1.0  0.02024  0.47923  0.23045  1.0000
  H   H37       1.0  0.21334  0.44753  0.14873  1.0000
  H   H38       1.0  0.21599  0.47511  0.16102  1.0000
  H   H39       1.0  0.21511  0.47160  0.19632  1.0000
  H   H40       1.0  0.21609  0.43885  0.21838  1.0000
  H   H41       1.0  0.21366  0.41082  0.20617  1.0000
  H   H42       1.0  0.15734  0.42807  0.12882  1.0000
  C   C59       1.0  0.21271  0.42147  0.12793  1.0000
  H   H43       1.0  0.29737  0.45916  0.99932  1.0000
  H   H44       1.0  0.20757  0.38031  0.06584  1.0000
  H   H45       1.0  0.16968  0.41498  0.15949  1.0000
  H   H46       1.0  0.08480  0.47488  0.17570  1.0000
  H   H47       1.0  0.18559  0.34955  0.21254  1.0000
  C   C60       1.0  0.23582  0.37765  0.15061  1.0000
  C   C61       1.0  0.25691  0.43906  0.06360  1.0000
  C   C62       1.0  0.17544  0.47284  0.04182  1.0000
  H   H48       1.0  0.28336  0.47013  0.06762  1.0000
  H   H49       1.0  0.18012  0.43733  0.09750  1.0000
  C   C63       1.0  0.27122  0.47246  0.04253  1.0000
  H   H50       1.0  0.25085  0.42666  0.07245  1.0000
  P   P2        1.0  0.23909  0.43705  0.03410  1.0000
  H   H51       1.0  0.06176  0.45860  0.20204  1.0000
  H   H52       1.0  0.18462  0.47342  0.14307  1.0000
  C   C64       1.0  0.26040  0.46435  0.03428  1.0000
  C   C65       1.0  0.11061  0.45471  0.18404  1.0000
  C   C66       1.0  0.10876  0.46018  0.13400  1.0000
  C   C67       1.0  0.09800  0.44559  0.14337  1.0000
  C   C68       1.0  0.07753  0.45012  0.14597  1.0000
  H   H53       1.0  0.05197  0.47267  0.14097  1.0000
  C   C69       1.0  0.30658  0.48101  0.15640  1.0000
  H   H54       1.0  0.17920  0.44160  0.22726  1.0000
  H   H55       1.0  0.27605  0.48590  0.03470  1.0000
  C   C70       1.0  0.15347  0.48471  0.15015  1.0000
  H   H56       1.0  0.11063  0.41602  0.22235  1.0000
  C   C71       1.0  0.16343  0.39721  0.21360  1.0000
  H   H57       1.0  0.15722  0.36976  0.23129  1.0000
  H   H58       1.0  0.21491  0.45971  0.06354  1.0000
  H   H59       1.0  0.06911  0.43892  0.15331  1.0000
  C   C72       1.0  0.20242  0.48354  0.23463  1.0000
  H   H60       1.0  0.21548  0.43363  0.09711  1.0000
  C   C73       1.0  0.18286  0.36542  0.20834  1.0000
  H   H61       1.0  0.23847  0.35766  0.07314  1.0000
  S   S6        1.0  0.26361  0.40028  0.21369  1.0000
  C   C74       1.0  0.27199  0.46391  0.22591  1.0000
  H   H62       1.0  0.17986  0.48774  0.18032  1.0000
  H   H63       1.0  0.20858  0.44613  0.01078  1.0000
  H   H64       1.0  0.26165  0.40646  0.01123  1.0000
  H   H65       1.0  0.20759  0.41459  0.04897  1.0000
  C   C75       1.0  0.25193  0.47093  0.23281  1.0000
  S   S7        1.0  0.31957  0.43830  0.13442  1.0000
  C   C76       1.0  0.25939  0.42053  0.00139  1.0000
  C   C77       1.0  0.18341  0.46377  0.02578  1.0000
  H   H66       1.0  0.15122  0.40600  0.22197  1.0000
  H   H67       1.0  0.23813  0.46894  0.99970  1.0000
  H   H68       1.0  0.15335  0.48488  0.16516  1.0000
  C   C78       1.0  0.32708  0.47569  0.15291  1.0000
  C   C79       1.0  0.24639  0.45559  0.99482  1.0000
  H   H69       1.0  0.07264  0.35486  0.23245  1.0000
  C   C80       1.0  0.00635  0.43546  0.21881  1.0000
  H   H70       1.0  0.29754  0.44150  0.23094  1.0000
  Fe  Fe3       1.0  0.32717  0.42396  0.20415  1.0000
  H   H71       1.0  0.05928  0.39037  0.22419  1.0000
  C   C81       1.0  0.04345  0.42935  0.22804  1.0000
  H   H72       1.0  0.11688  0.45193  0.23253  1.0000
  S   S8        1.0  0.01495  0.48823  0.16232  1.0000
  C   C82       1.0  0.16529  0.43772  0.23453  1.0000
  C   C83       1.0  0.07041  0.38513  0.23302  1.0000
  P   P3        1.0  0.06744  0.42440  0.23412  1.0000
  Fe  Fe4       1.0  0.16319  0.43968  0.31906  1.0000
  S   S9        1.0  0.14205  0.41950  0.32862  1.0000
  H   H73       1.0  0.07497  0.47217  0.26894  1.0000
  Fe  Fe5       1.0  0.19850  0.40696  0.31144  1.0000
  S   S10       1.0  0.18044  0.38396  0.32015  1.0000
  S   S11       1.0  0.23143  0.39928  0.30362  1.0000
  Fe  Fe6       1.0  0.15962  0.40616  0.30295  1.0000
  S   S12       1.0  0.14477  0.39938  0.28216  1.0000
  Fe  Fe7       1.0  0.16478  0.39918  0.34489  1.0000
  S   S13       1.0  0.15784  0.38368  0.37628  1.0000
  S   S14       1.0  0.17904  0.42799  0.29208  1.0000
  S   S15       1.0  0.18444  0.42071  0.33752  1.0000
  H   H74       1.0  0.24030  0.26807  0.40113  1.0000
  Fe  Fe8       1.0  0.19091  0.28087  0.43100  1.0000
  S   S16       1.0  0.17948  0.25331  0.44544  1.0000
  S   S17       1.0  0.19500  0.29288  0.39834  1.0000
  Fe  Fe9       1.0  0.20446  0.24504  0.46124  1.0000
  C   C84       1.0  0.10876  0.48825  0.29897  1.0000
  C   C85       1.0  0.07713  0.39826  0.23985  1.0000
  H   H75       1.0  0.05173  0.42282  0.30522  1.0000
  S   S18       1.0  0.21743  0.27106  0.44460  1.0000
  C   C86       1.0  0.29715  0.33765  0.25978  1.0000
  C   C87       1.0  0.24596  0.21315  0.46704  1.0000
  C   C88       1.0  0.16265  0.48618  0.32405  1.0000
  C   C89       1.0  0.27946  0.19489  0.46619  1.0000
  C   C90       1.0  0.14112  0.34160  0.47424  1.0000
  C   C91       1.0  0.09906  0.37064  0.25600  1.0000
  C   C92       1.0  0.28541  0.21178  0.46640  1.0000
  C   C93       1.0  0.13015  0.44355  0.23750  1.0000
  H   H76       1.0  0.00125  0.10259  0.43761  1.0000
  C   C94       1.0  0.29886  0.26167  0.42724  1.0000
  C   C95       1.0  0.29802  0.42069  0.29444  1.0000
  H   H77       1.0  0.02683  0.43457  0.25654  1.0000
  C   C96       1.0  0.26784  0.39479  0.25161  1.0000
  H   H78       1.0  0.22773  0.46700  0.25745  1.0000
  C   C97       1.0  0.25003  0.25406  0.40499  1.0000
  C   C98       1.0  0.25391  0.21911  0.41805  1.0000
  H   H79       1.0  0.11010  0.36509  0.26499  1.0000
  C   C99       1.0  0.02104  0.04836  0.43222  1.0000
  H   H80       1.0  0.09103  0.44641  0.31833  1.0000
  H   H81       1.0  0.24835  0.43595  0.32890  1.0000
  C   C100      1.0  0.06573  0.46495  0.34521  1.0000
  C   C101      1.0  0.18241  0.48726  0.24318  1.0000
  H   H82       1.0  0.28099  0.42439  0.26228  1.0000
  H   H83       1.0  0.13777  0.45745  0.26953  1.0000
  Fe  Fe10      1.0  0.19850  0.28564  0.46887  1.0000
  H   H84       1.0  0.14617  0.34992  0.45984  1.0000
  C   C102      1.0  0.16849  0.35849  0.38189  1.0000
  C   C103      1.0  0.17149  0.35005  0.40091  1.0000
  C   C104      1.0  0.17985  0.33003  0.40590  1.0000
  C   C105      1.0  0.18498  0.31818  0.39203  1.0000
  C   C106      1.0  0.18225  0.32664  0.37288  1.0000
  C   C107      1.0  0.17394  0.34676  0.36783  1.0000
  H   H85       1.0  0.16743  0.35905  0.41182  1.0000
  H   H86       1.0  0.18254  0.32388  0.42044  1.0000
  H   H87       1.0  0.18611  0.31756  0.36207  1.0000
  H   H88       1.0  0.17130  0.35304  0.35324  1.0000
  C   C108      1.0  0.14626  0.41750  0.26065  1.0000
  H   H89       1.0  0.28550  0.46313  0.33025  1.0000
  C   C109      1.0  0.16431  0.42243  0.25103  1.0000
  H   H90       1.0  0.17754  0.41445  0.25630  1.0000
  C   C110      1.0  0.24030  0.39789  0.27897  1.0000
  C   C111      1.0  0.22736  0.40114  0.26640  1.0000
  C   C112      1.0  0.09651  0.47591  0.31129  1.0000
  H   H91       1.0  0.21174  0.40357  0.27202  1.0000
  C   C113      1.0  0.27402  0.21751  0.41617  1.0000
  C   C114      1.0  0.24963  0.30617  0.38680  1.0000
  C   C115      1.0  0.19608  0.35941  0.28387  1.0000
  H   H92       1.0  0.18986  0.37465  0.27827  1.0000
  H   H93       1.0  0.99453  0.43975  0.24829  1.0000
  C   C116      1.0  0.28307  0.32320  0.29289  1.0000
  C   C117      1.0  0.26405  0.33212  0.28961  1.0000
  C   C118      1.0  0.31418  0.25917  0.43684  1.0000
  P   P4        1.0  0.24291  0.32912  0.30930  1.0000
  C   C119      1.0  0.24565  0.30426  0.32348  1.0000
  C   C120      1.0  0.24008  0.34511  0.32595  1.0000
  C   C121      1.0  0.22141  0.35198  0.33669  1.0000
  C   C122      1.0  0.21917  0.36378  0.35009  1.0000
  C   C123      1.0  0.23559  0.36846  0.35323  1.0000
  C   C124      1.0  0.25428  0.36139  0.34291  1.0000
  C   C125      1.0  0.25653  0.34988  0.32921  1.0000
  C   C126      1.0  0.25806  0.28851  0.31536  1.0000
  C   C127      1.0  0.26016  0.26938  0.32657  1.0000
  C   C128      1.0  0.24957  0.26579  0.34580  1.0000
  C   C129      1.0  0.23671  0.28127  0.35373  1.0000
  C   C130      1.0  0.23472  0.30041  0.34266  1.0000
  C   C131      1.0  0.22096  0.33499  0.29931  1.0000
  C   C132      1.0  0.21290  0.35462  0.29187  1.0000
  H   H94       1.0  0.29611  0.24658  0.36869  1.0000
  C   C133      1.0  0.02208  0.08276  0.42084  1.0000
  C   C134      1.0  0.19467  0.32508  0.29125  1.0000
  C   C135      1.0  0.21174  0.32020  0.29890  1.0000
  C   C136      1.0  0.29481  0.10375  0.48029  1.0000
  H   H95       1.0  0.28510  0.31424  0.30698  1.0000
  H   H96       1.0  0.17346  0.34858  0.27810  1.0000
  H   H97       1.0  0.20854  0.34819  0.33479  1.0000
  H   H98       1.0  0.20465  0.36940  0.35801  1.0000
  Fe  Fe11      1.0  0.16367  0.26922  0.46976  1.0000
  H   H99       1.0  0.27650  0.35588  0.24222  1.0000
  H   H100      1.0  0.27108  0.34488  0.32119  1.0000
  H   H101      1.0  0.26597  0.29091  0.30034  1.0000
  H   H102      1.0  0.26983  0.25730  0.32030  1.0000
  H   H103      1.0  0.25104  0.25098  0.35449  1.0000
  H   H104      1.0  0.22807  0.27848  0.36848  1.0000
  H   H105      1.0  0.22449  0.31207  0.34917  1.0000
  H   H106      1.0  0.30628  0.31218  0.33049  1.0000
  H   H107      1.0  0.06214  0.45395  0.30175  1.0000
  C   C137      1.0  0.25978  0.19553  0.46658  1.0000
  H   H108      1.0  0.18739  0.31367  0.29132  1.0000
  H   H109      1.0  0.21752  0.30494  0.30463  1.0000
  C   C138      1.0  0.09958  0.45663  0.30862  1.0000
  C   C139      1.0  0.09154  0.39083  0.25139  1.0000
  H   H110      1.0  0.21584  0.33635  0.41432  1.0000
  H   H111      1.0  0.23023  0.15081  0.45670  1.0000
  S   S19       1.0  0.29427  0.12815  0.46778  1.0000
  H   H112      1.0  0.23373  0.37771  0.36355  1.0000
  C   C140      1.0  0.25544  0.47676  0.32771  1.0000
  H   H113      1.0  0.28151  0.46933  0.36331  1.0000
  C   C141      1.0  0.25178  0.22999  0.46770  1.0000
  H   H114      1.0  0.07732  0.45975  0.23953  1.0000
  H   H115      1.0  0.23516  0.31674  0.43925  1.0000
  S   S20       1.0  0.22160  0.21397  0.46638  1.0000
  C   C142      1.0  0.00567  0.05291  0.44776  1.0000
  C   C143      1.0  0.22396  0.46336  0.30022  1.0000
  C   C144      1.0  0.20567  0.46821  0.29500  1.0000
  H   H116      1.0  0.28879  0.30876  0.36491  1.0000
  H   H117      1.0  0.26698  0.36509  0.34531  1.0000
  C   C145      1.0  0.13301  0.23299  0.48000  1.0000
  C   C146      1.0  0.29070  0.27749  0.36929  1.0000
  H   H118      1.0  0.31847  0.28305  0.31496  1.0000
  C   C147      1.0  0.31241  0.08976  0.48030  1.0000
  C   C148      1.0  0.08022  0.15856  0.48370  1.0000
  H   H119      1.0  0.24759  0.35156  0.26810  1.0000
  H   H120      1.0  0.29739  0.45119  0.28364  1.0000
  C   C149      1.0  0.23361  0.32114  0.39163  1.0000
  H   H121      1.0  0.22910  0.44833  0.30689  1.0000
  C   C150      1.0  0.11432  0.45005  0.29354  1.0000
  H   H122      1.0  0.27058  0.39126  0.28144  1.0000
  C   C151      1.0  0.07170  0.45148  0.25373  1.0000
  C   C152      1.0  0.25560  0.29905  0.41970  1.0000
  C   C153      1.0  0.29977  0.27232  0.40795  1.0000
  C   C154      1.0  0.26198  0.43194  0.31882  1.0000
  C   C155      1.0  0.24195  0.23735  0.41235  1.0000
  C   C156      1.0  0.02925  0.06326  0.41877  1.0000
  C   C157      1.0  0.22223  0.12438  0.47550  1.0000
  H   H123      1.0  0.02838  0.09434  0.41038  1.0000
  H   H124      1.0  0.24108  0.24350  0.46861  1.0000
  C   C158      1.0  0.06566  0.43400  0.25548  1.0000
  P   P5        1.0  0.28042  0.27450  0.39521  1.0000
  H   H125      1.0  0.27621  0.47406  0.26212  1.0000
  H   H126      1.0  0.31702  0.28966  0.38398  1.0000
  C   C159      1.0  0.28323  0.28840  0.46813  1.0000
  H   H127      1.0  0.04202  0.47338  0.32939  1.0000
  H   H128      1.0  0.99953  0.04110  0.45787  1.0000
  C   C160      1.0  0.23510  0.47775  0.29662  1.0000
  C   C161      1.0  0.03980  0.44703  0.35101  1.0000
  C   C162      1.0  0.04830  0.43292  0.36546  1.0000
  C   C163      1.0  0.06560  0.43464  0.36965  1.0000
  C   C164      1.0  0.07434  0.45052  0.35954  1.0000
  C   C165      1.0  0.18684  0.34468  0.28375  1.0000
  C   C166      1.0  0.26055  0.39409  0.27168  1.0000
  H   H129      1.0  0.02656  0.03324  0.43058  1.0000
  H   H130      1.0  0.12698  0.06847  0.46436  1.0000
  C   C167      1.0  0.02621  0.43349  0.24207  1.0000
  H   H131      1.0  0.28990  0.18116  0.46603  1.0000
  C   C168      1.0  0.23467  0.40130  0.24644  1.0000
  H   H132      1.0  0.22458  0.32923  0.38104  1.0000
  S   S21       1.0  0.17276  0.29752  0.45413  1.0000
  H   H133      1.0  0.18067  0.12135  0.47508  1.0000
  H   H134      1.0  0.22453  0.11694  0.46358  1.0000
  C   C169      1.0  0.29953  0.32595  0.27806  1.0000
  H   H135      1.0  0.02649  0.44556  0.34762  1.0000
  H   H136      1.0  0.04161  0.42055  0.37329  1.0000
  H   H137      1.0  0.07242  0.42352  0.38061  1.0000
  P   P6        1.0  0.25872  0.47209  0.30357  1.0000
  H   H138      1.0  0.11520  0.42416  0.26110  1.0000
  H   H139      1.0  0.08798  0.45124  0.36276  1.0000
  H   H140      1.0  0.31418  0.31917  0.28070  1.0000
  H   H141      1.0  0.25281  0.30290  0.37239  1.0000
  C   C170      1.0  0.29782  0.26106  0.36046  1.0000
  H   H142      1.0  0.09804  0.34202  0.25285  1.0000
  C   C171      1.0  0.27083  0.44642  0.30513  1.0000
  C   C172      1.0  0.25313  0.44456  0.26156  1.0000
  H   H143      1.0  0.27581  0.24222  0.46852  1.0000
  H   H144      1.0  0.11634  0.09999  0.47536  1.0000
  C   C173      1.0  0.12607  0.46263  0.28098  1.0000
  C   C174      1.0  0.24275  0.46142  0.25106  1.0000
  H   H145      1.0  0.31262  0.27721  0.47339  1.0000
  C   C175      1.0  0.27042  0.41206  0.31941  1.0000
  H   H146      1.0  0.24590  0.43693  0.27537  1.0000
  H   H147      1.0  0.28775  0.29722  0.45386  1.0000
  C   C176      1.0  0.22859  0.32510  0.41044  1.0000
  C   C177      1.0  0.29371  0.29596  0.35826  1.0000
  H   H148      1.0  0.08010  0.17408  0.47836  1.0000
  S   S22       1.0  0.32052  0.16812  0.43754  1.0000
  C   C178      1.0  0.28938  0.44061  0.29350  1.0000
  C   C179      1.0  0.07797  0.36493  0.23768  1.0000
  C   C180      1.0  0.09227  0.35768  0.24917  1.0000
  H   H149      1.0  0.31208  0.41637  0.28503  1.0000
  C   C181      1.0  0.05847  0.42370  0.27419  1.0000
  H   H150      1.0  0.26279  0.40108  0.32919  1.0000
  H   H151      1.0  0.22461  0.40383  0.23681  1.0000
  C   C182      1.0  0.00672  0.08736  0.43636  1.0000
  H   H152      1.0  0.31820  0.10335  0.42841  1.0000
  H   H153      1.0  0.25538  0.18238  0.46627  1.0000
  Fe  Fe12      1.0  0.32090  0.14135  0.46151  1.0000
  C   C183      1.0  0.26917  0.47410  0.35599  1.0000
  C   C184      1.0  0.23956  0.31406  0.42447  1.0000
  C   C185      1.0  0.28217  0.23418  0.40879  1.0000
  H   H154      1.0  0.28346  0.39235  0.24600  1.0000
  S   S23       1.0  0.31032  0.21118  0.46454  1.0000
  C   C186      1.0  0.07041  0.45860  0.27041  1.0000
  C   C187      1.0  0.25490  0.39870  0.23892  1.0000
  H   H155      1.0  0.29477  0.39099  0.30740  1.0000
  C   C188      1.0  0.99838  0.07247  0.44999  1.0000
  C   C189      1.0  0.11819  0.48433  0.36210  1.0000
  C   C190      1.0  0.00777  0.43650  0.23745  1.0000
  H   H156      1.0  0.28764  0.02603  0.48471  1.0000
  C   C191      1.0  0.04855  0.46289  0.34082  1.0000
  C   C192      1.0  0.12923  0.42776  0.25357  1.0000
  H   H157      1.0  0.30988  0.34001  0.24829  1.0000
  C   C193      1.0  0.31598  0.28103  0.39868  1.0000
  H   H158      1.0  0.13131  0.20521  0.47509  1.0000
  H   H159      1.0  0.14050  0.23781  0.46519  1.0000
  H   H160      1.0  0.17435  0.46231  0.34564  1.0000
  C   C194      1.0  0.17293  0.47778  0.33923  1.0000
  H   H161      1.0  0.25240  0.29756  0.46743  1.0000
  C   C195      1.0  0.26086  0.29508  0.40077  1.0000
  H   H162      1.0  0.26339  0.29019  0.43102  1.0000
  C   C196      1.0  0.27017  0.25268  0.40345  1.0000
  C   C197      1.0  0.28836  0.40641  0.30711  1.0000
  C   C198      1.0  0.05722  0.43086  0.29084  1.0000
  H   H163      1.0  0.21956  0.36624  0.29243  1.0000
  S   S24       1.0  0.32604  0.15596  0.48312  1.0000
  C   C199      1.0  0.27833  0.34657  0.25634  1.0000
  P   P7        1.0  0.07786  0.48460  0.33098  1.0000
  H   H164      1.0  0.29774  0.23261  0.40776  1.0000
  S   S25       1.0  0.15213  0.47225  0.31462  1.0000
  H   H165      1.0  0.11627  0.46852  0.34151  1.0000
  H   H166      1.0  0.28641  0.25508  0.43482  1.0000
  H   H167      1.0  0.28317  0.20341  0.42107  1.0000
  H   H168      1.0  0.24745  0.20634  0.42453  1.0000
  H   H169      1.0  0.04113  0.05971  0.40672  1.0000
  C   C200      1.0  0.06313  0.44834  0.28892  1.0000
  C   C201      1.0  0.27145  0.22925  0.46767  1.0000
  H   H170      1.0  0.19701  0.45716  0.29815  1.0000
  H   H171      1.0  0.11694  0.43502  0.29191  1.0000
  C   C202      1.0  0.26186  0.34401  0.27120  1.0000
  H   H172      1.0  0.05380  0.41013  0.27590  1.0000
  H   H173      1.0  0.22626  0.23864  0.41431  1.0000
  H   H174      1.0  0.09698  0.40062  0.25688  1.0000
  C   C203      1.0  0.27289  0.43744  0.25425  1.0000
  H   H175      1.0  0.17032  0.32831  0.47930  1.0000
  C   C204      1.0  0.27136  0.47059  0.33729  1.0000
  H   H176      1.0  0.17440  0.47547  0.24776  1.0000
  H   H177      1.0  0.00932  0.09946  0.46822  1.0000
  C   C205      1.0  0.12315  0.48177  0.28360  1.0000
  C   C206      1.0  0.25107  0.48380  0.36523  1.0000
  C   C207      1.0  0.31062  0.28153  0.33005  1.0000
  C   C208      1.0  0.27360  0.48802  0.28610  1.0000
  C   C209      1.0  0.12760  0.06891  0.47908  1.0000
  C   C210      1.0  0.30371  0.29794  0.33876  1.0000
  C   C211      1.0  0.23731  0.48657  0.33704  1.0000
  H   H178      1.0  0.31350  0.25057  0.45161  1.0000
  C   C212      1.0  0.28022  0.48535  0.26674  1.0000
  H   H179      1.0  0.18897  0.48320  0.35813  1.0000
  C   C213      1.0  0.00287  0.09460  0.48335  1.0000
  C   C214      1.0  0.26333  0.28853  0.47569  1.0000
  S   S26       1.0  0.21075  0.30577  0.47937  1.0000
  H   H180      1.0  0.11048  0.35272  0.47349  1.0000
  C   C215      1.0  0.30763  0.26312  0.34088  1.0000
  C   C216      1.0  0.22543  0.14343  0.47162  1.0000
  H   H181      1.0  0.24933  0.48657  0.37971  1.0000
  H   H182      1.0  0.31319  0.25035  0.33422  1.0000
  H   H183      1.0  0.05333  0.16002  0.47489  1.0000
  C   C217      1.0  0.29721  0.27712  0.47910  1.0000
  C   C218      1.0  0.28227  0.44711  0.23650  1.0000
  H   H184      1.0  0.32608  0.09398  0.47247  1.0000
  C   C219      1.0  0.12103  0.34310  0.48192  1.0000
  C   C220      1.0  0.06522  0.15066  0.48172  1.0000
  H   H185      1.0  0.22600  0.16748  0.48377  1.0000
  C   C221      1.0  0.10884  0.48030  0.34928  1.0000
  H   H186      1.0  0.13277  0.47595  0.36374  1.0000
  C   C222      1.0  0.19828  0.48737  0.28609  1.0000
  S   S27       1.0  0.22804  0.37642  0.68650  1.0000
  H   H187      1.0  0.21948  0.99416  0.54824  1.0000
  H   H188      1.0  0.12203  0.33596  0.66494  1.0000
  S   S28       1.0  0.27561  0.39918  0.66537  1.0000
  H   H189      1.0  0.18079  0.46253  0.71635  1.0000
  H   H190      1.0  0.02024  0.10872  0.49360  1.0000
  C   C223      1.0  0.31884  0.21940  0.72946  1.0000
  C   C224      1.0  0.11769  0.20851  0.50464  1.0000
  C   C225      1.0  0.28162  0.27891  0.61852  1.0000
  C   C226      1.0  0.29788  0.28666  0.64659  1.0000
  Fe  Fe13      1.0  0.24153  0.01408  0.56836  1.0000
  S   S29       1.0  0.22208  0.03929  0.58156  1.0000
  Fe  Fe14      1.0  0.26717  0.04030  0.53892  1.0000
  S   S30       1.0  0.24970  0.06752  0.54957  1.0000
  S   S31       1.0  0.29444  0.04120  0.51520  1.0000
  Fe  Fe15      1.0  0.24990  0.04893  0.57957  1.0000
  S   S32       1.0  0.25393  0.05971  0.60483  1.0000
  Fe  Fe16      1.0  0.22344  0.05583  0.55060  1.0000
  S   S33       1.0  0.19773  0.07613  0.53840  1.0000
  S   S34       1.0  0.26933  0.02234  0.56900  1.0000
  S   S35       1.0  0.24092  0.02988  0.53731  1.0000
  C   C227      1.0  0.29379  0.33207  0.65354  1.0000
  C   C228      1.0  0.32139  0.21385  0.65263  1.0000
  C   C229      1.0  0.99907  0.20697  0.52267  1.0000
  Fe  Fe17      1.0  0.07061  0.16574  0.57815  1.0000
  S   S36       1.0  0.08696  0.16691  0.60034  1.0000
  S   S37       1.0  0.04146  0.15642  0.58770  1.0000
  Fe  Fe18      1.0  0.10215  0.17852  0.54420  1.0000
  S   S38       1.0  0.12164  0.18020  0.56321  1.0000
  Fe  Fe19      1.0  0.11360  0.15201  0.58129  1.0000
  S   S39       1.0  0.13436  0.12602  0.59547  1.0000
  Fe  Fe20      1.0  0.09356  0.19499  0.58050  1.0000
  S   S40       1.0  0.08978  0.22291  0.59121  1.0000
  S   S41       1.0  0.09670  0.14895  0.56055  1.0000
  S   S42       1.0  0.07459  0.19526  0.56005  1.0000
  Fe  Fe21      1.0  0.17994  0.28721  0.63513  1.0000
  S   S43       1.0  0.20254  0.29746  0.60956  1.0000
  S   S44       1.0  0.17000  0.30272  0.66058  1.0000
  Fe  Fe22      1.0  0.17559  0.25561  0.61643  1.0000
  S   S45       1.0  0.19808  0.26317  0.58944  1.0000
  S   S46       1.0  0.16356  0.22897  0.61928  1.0000
  Fe  Fe23      1.0  0.21533  0.26549  0.61023  1.0000
  S   S47       1.0  0.24808  0.25475  0.60527  1.0000
  Fe  Fe24      1.0  0.18311  0.29420  0.59129  1.0000
  S   S48       1.0  0.17615  0.31852  0.56600  1.0000
  S   S49       1.0  0.19420  0.25529  0.63737  1.0000
  S   S50       1.0  0.15912  0.28657  0.61682  1.0000
  C   C230      1.0  0.28104  0.27217  0.69280  1.0000
  H   H191      1.0  0.09696  0.39218  0.71163  1.0000
  C   C231      1.0  0.00072  0.09449  0.51743  1.0000
  H   H192      1.0  0.31879  0.12249  0.68370  1.0000
  C   C232      1.0  0.14327  0.48306  0.70797  1.0000
  C   C233      1.0  0.30985  0.27650  0.63209  1.0000
  Fe  Fe25      1.0  0.30764  0.15167  0.62182  1.0000
  S   S51       1.0  0.27628  0.16378  0.63471  1.0000
  C   C234      1.0  0.31241  0.11497  0.52200  1.0000
  H   H193      1.0  0.31691  0.17959  0.54905  1.0000
  H   H194      1.0  0.30177  0.42322  0.64151  1.0000
  H   H195      1.0  0.08036  0.06282  0.59342  1.0000
  C   C235      1.0  0.20118  0.30841  0.50370  1.0000
  C   C236      1.0  0.19752  0.32705  0.50793  1.0000
  C   C237      1.0  0.18968  0.32989  0.52707  1.0000
  C   C238      1.0  0.18615  0.31399  0.54229  1.0000
  C   C239      1.0  0.19014  0.29517  0.53821  1.0000
  C   C240      1.0  0.19742  0.29240  0.51884  1.0000
  H   H196      1.0  0.20042  0.33944  0.49630  1.0000
  H   H197      1.0  0.18657  0.34445  0.53012  1.0000
  H   H198      1.0  0.18746  0.28282  0.54989  1.0000
  H   H199      1.0  0.20034  0.27790  0.51567  1.0000
  C   C241      1.0  0.25575  0.22942  0.61319  1.0000
  C   C242      1.0  0.27567  0.22064  0.60853  1.0000
  C   C243      1.0  0.28204  0.20037  0.61477  1.0000
  C   C244      1.0  0.26861  0.18900  0.62619  1.0000
  C   C245      1.0  0.24876  0.19780  0.63097  1.0000
  C   C246      1.0  0.24227  0.21794  0.62424  1.0000
  H   H200      1.0  0.28613  0.22948  0.59990  1.0000
  H   H201      1.0  0.29733  0.19357  0.61078  1.0000
  H   H202      1.0  0.23841  0.18898  0.63976  1.0000
  H   H203      1.0  0.22688  0.22455  0.62775  1.0000
  C   C247      1.0  0.11118  0.22633  0.59623  1.0000
  C   C248      1.0  0.11067  0.24295  0.60327  1.0000
  C   C249      1.0  0.12708  0.24464  0.60944  1.0000
  C   C250      1.0  0.14402  0.22972  0.60847  1.0000
  C   C251      1.0  0.14480  0.21377  0.60044  1.0000
  C   C252      1.0  0.12839  0.21189  0.59462  1.0000
  H   H204      1.0  0.09738  0.25419  0.60453  1.0000
  H   H205      1.0  0.12644  0.25712  0.61547  1.0000
  H   H206      1.0  0.15806  0.20256  0.59914  1.0000
  H   H207      1.0  0.12890  0.19894  0.58950  1.0000
  C   C253      1.0  0.30172  0.27252  0.61824  1.0000
  H   H208      1.0  0.10560  0.21602  0.53298  1.0000
  C   C254      1.0  0.03217  0.15279  0.56886  1.0000
  C   C255      1.0  0.04384  0.15249  0.55019  1.0000
  C   C256      1.0  0.03627  0.14941  0.53538  1.0000
  C   C257      1.0  0.01691  0.14696  0.53898  1.0000
  H   H209      1.0  0.13375  0.31744  0.69512  1.0000
  C   C258      1.0  0.01291  0.14994  0.57263  1.0000
  H   H210      1.0  0.05867  0.15474  0.54710  1.0000
  H   H211      1.0  0.04533  0.14940  0.52097  1.0000
  C   C259      1.0  0.01085  0.20006  0.50617  1.0000
  H   H212      1.0  0.13062  0.03439  0.55667  1.0000
  C   C260      1.0  0.18019  0.08983  0.55445  1.0000
  C   C261      1.0  0.16900  0.10789  0.54677  1.0000
  C   C262      1.0  0.15484  0.11910  0.55924  1.0000
  C   C263      1.0  0.15161  0.11209  0.57946  1.0000
  C   C264      1.0  0.16248  0.09378  0.58716  1.0000
  C   C265      1.0  0.17691  0.08278  0.57469  1.0000
  H   H213      1.0  0.17151  0.11330  0.53114  1.0000
  H   H214      1.0  0.16000  0.08830  0.60280  1.0000
  H   H215      1.0  0.18542  0.06884  0.58069  1.0000
  S   S52       1.0  0.11081  0.18572  0.51156  1.0000
  H   H216      1.0  0.27528  0.27577  0.60786  1.0000
  H   H217      1.0  0.04262  0.21666  0.69215  1.0000
  C   C266      1.0  0.27500  0.06947  0.60090  1.0000
  C   C267      1.0  0.28698  0.07265  0.58233  1.0000
  C   C268      1.0  0.30368  0.08045  0.57948  1.0000
  C   C269      1.0  0.30860  0.08509  0.59511  1.0000
  C   C270      1.0  0.29634  0.08240  0.61358  1.0000
  C   C271      1.0  0.27966  0.07449  0.61650  1.0000
  H   H218      1.0  0.28358  0.06888  0.57017  1.0000
  H   H219      1.0  0.31297  0.08261  0.56517  1.0000
  H   H220      1.0  0.30018  0.08564  0.62578  1.0000
  H   H221      1.0  0.27063  0.07188  0.63097  1.0000
  C   C272      1.0  0.18217  0.41165  0.66941  1.0000
  C   C273      1.0  0.18978  0.30732  0.66774  1.0000
  C   C274      1.0  0.20818  0.29458  0.66548  1.0000
  C   C275      1.0  0.22362  0.29792  0.67193  1.0000
  C   C276      1.0  0.22103  0.31441  0.68000  1.0000
  C   C277      1.0  0.20277  0.32738  0.68192  1.0000
  C   C278      1.0  0.18707  0.32365  0.67611  1.0000
  H   H222      1.0  0.21039  0.28193  0.65910  1.0000
  H   H223      1.0  0.23760  0.28766  0.67067  1.0000
  H   H224      1.0  0.17291  0.33358  0.67774  1.0000
  C   C279      1.0  0.27928  0.42168  0.66769  1.0000
  C   C280      1.0  0.26847  0.43113  0.68302  1.0000
  C   C281      1.0  0.27110  0.44972  0.68343  1.0000
  H   H225      1.0  0.30739  0.45518  0.64308  1.0000
  C   C282      1.0  0.29649  0.44854  0.65422  1.0000
  C   C283      1.0  0.29335  0.43042  0.65339  1.0000
  H   H226      1.0  0.25788  0.42437  0.69438  1.0000
  H   H227      1.0  0.26224  0.45729  0.69489  1.0000
  C   C284      1.0  0.17138  0.35002  0.72682  1.0000
  H   H228      1.0  0.11468  0.24843  0.52308  1.0000
  C   C285      1.0  0.29315  0.21947  0.52074  1.0000
  C   C286      1.0  0.28192  0.22987  0.53531  1.0000
  C   C287      1.0  0.28294  0.22159  0.55497  1.0000
  P   P8        1.0  0.26372  0.25167  0.52920  1.0000
  C   C288      1.0  0.24199  0.24254  0.53203  1.0000
  C   C289      1.0  0.25918  0.26879  0.54497  1.0000
  C   C290      1.0  0.27436  0.27085  0.55271  1.0000
  C   C291      1.0  0.27086  0.28492  0.56413  1.0000
  C   C292      1.0  0.25222  0.29702  0.56780  1.0000
  C   C293      1.0  0.23717  0.29529  0.55980  1.0000
  C   C294      1.0  0.24068  0.28133  0.54831  1.0000
  C   C295      1.0  0.23073  0.23747  0.55079  1.0000
  C   C296      1.0  0.21474  0.22888  0.55333  1.0000
  C   C297      1.0  0.20993  0.22531  0.53715  1.0000
  C   C298      1.0  0.22136  0.22991  0.51851  1.0000
  C   C299      1.0  0.23741  0.23840  0.51600  1.0000
  C   C300      1.0  0.27138  0.26544  0.50499  1.0000
  C   C301      1.0  0.12967  0.07013  0.51691  1.0000
  C   C302      1.0  0.19451  0.46435  0.66721  1.0000
  H   H229      1.0  0.19241  0.18142  0.49875  1.0000
  H   H230      1.0  0.14167  0.03909  0.52011  1.0000
  H   H231      1.0  0.03588  0.22784  0.65853  1.0000
  H   H232      1.0  0.28057  0.22443  0.70796  1.0000
  H   H233      1.0  0.32030  0.36460  0.69877  1.0000
  H   H234      1.0  0.27373  0.22890  0.56655  1.0000
  H   H235      1.0  0.28886  0.26163  0.54992  1.0000
  H   H236      1.0  0.28249  0.28629  0.57033  1.0000
  H   H237      1.0  0.24937  0.30766  0.57696  1.0000
  H   H238      1.0  0.22273  0.30473  0.56251  1.0000
  H   H239      1.0  0.22896  0.28040  0.54196  1.0000
  H   H240      1.0  0.23444  0.23995  0.56348  1.0000
  H   H241      1.0  0.20618  0.22496  0.56789  1.0000
  H   H242      1.0  0.19756  0.21873  0.53899  1.0000
  C   C303      1.0  0.18889  0.03043  0.53217  1.0000
  H   H243      1.0  0.24643  0.24143  0.50163  1.0000
  H   H244      1.0  0.30233  0.25732  0.50594  1.0000
  H   H245      1.0  0.00383  0.15011  0.58707  1.0000
  H   H246      1.0  0.28625  0.15406  0.49692  1.0000
  C   C304      1.0  0.16879  0.38233  0.68158  1.0000
  C   C305      1.0  0.09462  0.05292  0.59178  1.0000
  H   H247      1.0  0.26804  0.30066  0.65777  1.0000
  H   H248      1.0  0.06430  0.26051  0.54099  1.0000
  C   C306      1.0  0.13102  0.36391  0.70033  1.0000
  S   S53       1.0  0.32232  0.12143  0.63507  1.0000
  C   C307      1.0  0.12143  0.08673  0.48543  1.0000
  C   C308      1.0  0.14997  0.48791  0.66505  1.0000
  H   H249      1.0  0.03389  0.25332  0.57573  1.0000
  S   S54       1.0  0.28958  0.48128  0.66933  1.0000
  C   C309      1.0  0.11224  0.18892  0.70955  1.0000
  H   H250      1.0  0.03511  0.20314  0.54716  1.0000
  H   H251      1.0  0.32541  0.27147  0.63142  1.0000
  C   C310      1.0  0.03123  0.19483  0.50429  1.0000
  C   C311      1.0  0.07392  0.27019  0.53997  1.0000
  H   H252      1.0  0.32513  0.40698  0.68048  1.0000
  H   H253      1.0  0.27459  0.08550  0.68979  1.0000
  H   H254      1.0  0.15459  0.99329  0.55243  1.0000
  C   C312      1.0  0.11653  0.16001  0.69635  1.0000
  H   H255      1.0  0.14640  0.41642  0.70990  1.0000
  H   H256      1.0  0.29186  0.22496  0.50556  1.0000
  C   C313      1.0  0.16660  0.03358  0.60409  1.0000
  C   C314      1.0  0.21113  0.44907  0.66718  1.0000
  H   H257      1.0  0.28671  0.18017  0.66351  1.0000
  H   H258      1.0  0.15062  0.19655  0.68033  1.0000
  C   C315      1.0  0.15243  0.11609  0.49174  1.0000
  C   C316      1.0  0.17777  0.03692  0.61572  1.0000
  C   C317      1.0  0.29448  0.06506  0.50112  1.0000
  C   C318      1.0  0.10574  0.10672  0.53848  1.0000
  H   H259      1.0  0.29692  0.31041  0.69898  1.0000
  H   H260      1.0  0.14650  0.13320  0.55322  1.0000
  C   C319      1.0  0.08547  0.11079  0.54637  1.0000
  C   C320      1.0  0.07866  0.10816  0.56664  1.0000
  C   C321      1.0  0.09197  0.10140  0.57919  1.0000
  C   C322      1.0  0.11210  0.09696  0.57151  1.0000
  C   C323      1.0  0.11897  0.09972  0.55125  1.0000
  C   C324      1.0  0.27602  0.29552  0.72003  1.0000
  H   H261      1.0  0.12309  0.14236  0.52534  1.0000
  H   H262      1.0  0.15058  0.15947  0.51529  1.0000
  H   H263      1.0  0.07479  0.11661  0.53709  1.0000
  H   H264      1.0  0.06306  0.11219  0.57257  1.0000
  H   H265      1.0  0.08673  0.10009  0.59483  1.0000
  H   H266      1.0  0.12240  0.09193  0.58126  1.0000
  H   H267      1.0  0.13464  0.09666  0.54555  1.0000
  C   C325      1.0  0.12770  0.21462  0.48557  1.0000
  C   C326      1.0  0.12205  0.08743  0.50454  1.0000
  S   S55       1.0  0.18779  0.25882  0.48676  1.0000
  C   C327      1.0  0.10294  0.04361  0.60816  1.0000
  C   C328      1.0  0.28526  0.45838  0.66908  1.0000
  H   H268      1.0  0.28743  0.18186  0.51056  1.0000
  C   C329      1.0  0.32011  0.03068  0.56007  1.0000
  C   C330      1.0  0.21380  0.12427  0.51022  1.0000
  C   C331      1.0  0.21740  0.14326  0.50646  1.0000
  C   C332      1.0  0.12795  0.24536  0.49342  1.0000
  P   P9        1.0  0.21659  0.15462  0.52635  1.0000
  C   C333      1.0  0.19534  0.17456  0.52912  1.0000
  C   C334      1.0  0.21699  0.13579  0.54831  1.0000
  C   C335      1.0  0.19951  0.13270  0.56150  1.0000
  C   C336      1.0  0.20004  0.11772  0.57814  1.0000
  C   C337      1.0  0.21778  0.10503  0.58117  1.0000
  C   C338      1.0  0.23514  0.10778  0.56798  1.0000
  C   C339      1.0  0.23483  0.12310  0.55163  1.0000
  C   C340      1.0  0.18646  0.18476  0.51313  1.0000
  C   C341      1.0  0.16965  0.19965  0.51552  1.0000
  C   C342      1.0  0.16150  0.20446  0.53385  1.0000
  C   C343      1.0  0.17043  0.19473  0.54974  1.0000
  C   C344      1.0  0.18745  0.18005  0.54734  1.0000
  C   C345      1.0  0.23897  0.16339  0.52149  1.0000
  C   C346      1.0  0.25606  0.15431  0.50997  1.0000
  C   C347      1.0  0.27344  0.16084  0.50634  1.0000
  C   C348      1.0  0.27405  0.17642  0.51416  1.0000
  C   C349      1.0  0.25730  0.18518  0.52615  1.0000
  C   C350      1.0  0.23980  0.17861  0.52990  1.0000
  H   H269      1.0  0.31032  0.02405  0.55595  1.0000
  C   C351      1.0  0.17327  0.00668  0.52721  1.0000
  H   H270      1.0  0.07996  0.10334  0.50412  1.0000
  H   H271      1.0  0.20949  0.11642  0.52502  1.0000
  C   C352      1.0  0.01452  0.23858  0.56922  1.0000
  H   H272      1.0  0.18541  0.14148  0.55882  1.0000
  H   H273      1.0  0.18660  0.11565  0.58842  1.0000
  H   H274      1.0  0.21815  0.09278  0.59348  1.0000
  H   H275      1.0  0.24884  0.09777  0.57033  1.0000
  H   H276      1.0  0.24849  0.12462  0.54143  1.0000
  H   H277      1.0  0.19274  0.41953  0.65920  1.0000
  C   C353      1.0  0.28873  0.39310  0.72911  1.0000
  H   H278      1.0  0.14826  0.21579  0.53570  1.0000
  H   H279      1.0  0.16410  0.19861  0.56389  1.0000
  H   H280      1.0  0.19432  0.17289  0.55977  1.0000
  H   H281      1.0  0.16671  0.22359  0.67843  1.0000
  H   H282      1.0  0.30690  0.14354  0.52884  1.0000
  H   H283      1.0  0.19230  0.38602  0.65652  1.0000
  H   H284      1.0  0.25784  0.19720  0.53232  1.0000
  H   H285      1.0  0.22700  0.18541  0.53928  1.0000
  C   C354      1.0  0.20307  0.17589  0.65979  1.0000
  C   C355      1.0  0.21732  0.15386  0.63697  1.0000
  C   C356      1.0  0.21363  0.15754  0.65591  1.0000
  P   P10       1.0  0.23164  0.13070  0.63114  1.0000
  C   C357      1.0  0.24845  0.13588  0.60802  1.0000
  C   C358      1.0  0.24534  0.11714  0.64991  1.0000
  C   C359      1.0  0.23560  0.10741  0.66774  1.0000
  C   C360      1.0  0.25454  0.15388  0.60197  1.0000
  C   C361      1.0  0.26733  0.15810  0.58408  1.0000
  C   C362      1.0  0.27458  0.14419  0.57226  1.0000
  C   C363      1.0  0.26906  0.12605  0.57834  1.0000
  C   C364      1.0  0.25597  0.12191  0.59613  1.0000
  C   C365      1.0  0.21559  0.11549  0.63018  1.0000
  C   C366      1.0  0.22234  0.09508  0.63251  1.0000
  C   C367      1.0  0.20973  0.08298  0.63323  1.0000
  C   C368      1.0  0.19026  0.09118  0.63147  1.0000
  C   C369      1.0  0.18338  0.11147  0.62911  1.0000
  C   C370      1.0  0.19599  0.12359  0.62845  1.0000
  H   H286      1.0  0.20057  0.17882  0.67431  1.0000
  H   H287      1.0  0.21928  0.14654  0.66757  1.0000
  H   H288      1.0  0.21991  0.10843  0.67044  1.0000
  H   H289      1.0  0.24968  0.16467  0.61113  1.0000
  H   H290      1.0  0.27202  0.17196  0.57969  1.0000
  H   H291      1.0  0.28480  0.14732  0.55862  1.0000
  H   H292      1.0  0.27516  0.11512  0.56933  1.0000
  H   H293      1.0  0.25192  0.10778  0.60066  1.0000
  H   H294      1.0  0.23740  0.08843  0.63376  1.0000
  H   H295      1.0  0.21530  0.06728  0.63466  1.0000
  H   H296      1.0  0.18059  0.08184  0.63170  1.0000
  H   H297      1.0  0.16830  0.11779  0.62759  1.0000
  H   H298      1.0  0.19036  0.13918  0.62672  1.0000
  C   C371      1.0  0.08781  0.34385  0.57138  1.0000
  C   C372      1.0  0.10231  0.35165  0.57461  1.0000
  C   C373      1.0  0.12193  0.34576  0.56573  1.0000
  C   C374      1.0  0.12706  0.33206  0.55370  1.0000
  C   C375      1.0  0.11270  0.32374  0.55086  1.0000
  C   C376      1.0  0.09296  0.32997  0.55947  1.0000
  P   P11       1.0  0.11994  0.30598  0.53541  1.0000
  C   C377      1.0  0.12824  0.31924  0.51114  1.0000
  C   C378      1.0  0.13885  0.28606  0.54384  1.0000
  C   C379      1.0  0.14831  0.27196  0.53237  1.0000
  C   C380      1.0  0.16077  0.25481  0.53982  1.0000
  C   C381      1.0  0.16382  0.25165  0.55884  1.0000
  C   C382      1.0  0.15495  0.26591  0.57011  1.0000
  C   C383      1.0  0.14234  0.28297  0.56278  1.0000
  C   C384      1.0  0.29785  0.17093  0.67142  1.0000
  C   C385      1.0  0.12132  0.03083  0.60606  1.0000
  H   H299      1.0  0.12755  0.02363  0.61891  1.0000
  C   C386      1.0  0.30097  0.15056  0.67356  1.0000
  C   C387      1.0  0.11460  0.33219  0.50044  1.0000
  C   C388      1.0  0.10052  0.29371  0.53706  1.0000
  C   C389      1.0  0.09544  0.29184  0.52018  1.0000
  H   H300      1.0  0.31032  0.19921  0.63647  1.0000
  C   C390      1.0  0.13585  0.05235  0.51049  1.0000
  C   C391      1.0  0.07907  0.27178  0.55681  1.0000
  C   C392      1.0  0.09232  0.28346  0.55538  1.0000
  H   H301      1.0  0.07259  0.34856  0.57811  1.0000
  H   H302      1.0  0.09838  0.36228  0.58393  1.0000
  H   H303      1.0  0.13331  0.35165  0.56819  1.0000
  H   H304      1.0  0.14233  0.32771  0.54681  1.0000
  H   H305      1.0  0.08156  0.32420  0.55699  1.0000
  H   H306      1.0  0.14563  0.27401  0.51783  1.0000
  H   H307      1.0  0.16773  0.24395  0.53088  1.0000
  H   H308      1.0  0.17285  0.23813  0.56500  1.0000
  H   H309      1.0  0.15757  0.26362  0.58470  1.0000
  H   H310      1.0  0.13510  0.29337  0.57216  1.0000
  H   H311      1.0  0.20184  0.02469  0.63085  1.0000
  H   H312      1.0  0.30003  0.11847  0.51485  1.0000
  C   C393      1.0  0.13051  0.33336  0.69215  1.0000
  H   H313      1.0  0.25411  0.04656  0.48723  1.0000
  H   H314      1.0  0.09901  0.33376  0.50639  1.0000
  H   H315      1.0  0.10259  0.29827  0.50576  1.0000
  H   H316      1.0  0.21997  0.44538  0.65352  1.0000
  C   C394      1.0  0.18302  0.46908  0.68495  1.0000
  H   H317      1.0  0.15038  0.45145  0.71093  1.0000
  H   H318      1.0  0.09686  0.28380  0.56848  1.0000
  C   C395      1.0  0.32107  0.02792  0.57972  1.0000
  C   C396      1.0  0.02806  0.20264  0.53580  1.0000
  C   C397      1.0  0.12396  0.34382  0.67505  1.0000
  H   H319      1.0  0.10659  0.15316  0.49438  1.0000
  H   H320      1.0  0.15183  0.15117  0.61005  1.0000
  H   H321      1.0  0.27366  0.12266  0.63308  1.0000
  C   C398      1.0  0.13568  0.13740  0.51460  1.0000
  C   C399      1.0  0.13600  0.12194  0.50596  1.0000
  C   C400      1.0  0.08545  0.21237  0.64729  1.0000
  H   H322      1.0  0.17033  0.17057  0.61967  1.0000
  C   C401      1.0  0.26571  0.11540  0.64670  1.0000
  C   C402      1.0  0.26763  0.26933  0.71056  1.0000
  H   H323      1.0  0.20996  0.43574  0.71611  1.0000
  C   C403      1.0  0.00529  0.14705  0.55771  1.0000
  C   C404      1.0  0.16746  0.01399  0.55955  1.0000
  C   C405      1.0  0.14837  0.31812  0.50349  1.0000
  S   S56       1.0  0.24093  0.31812  0.68766  1.0000
  H   H324      1.0  0.25399  0.29409  0.63295  1.0000
  C   C406      1.0  0.30601  0.20162  0.52566  1.0000
  C   C407      1.0  0.26962  0.28919  0.63271  1.0000
  H   H325      1.0  0.20084  0.34024  0.68781  1.0000
  C   C408      1.0  0.27689  0.07897  0.50060  1.0000
  H   H326      1.0  0.12232  0.39016  0.67921  1.0000
  C   C409      1.0  0.19646  0.19073  0.64474  1.0000
  H   H327      1.0  0.26309  0.07489  0.50812  1.0000
  C   C410      1.0  0.12416  0.37433  0.68323  1.0000
  H   H328      1.0  0.28066  0.32849  0.65206  1.0000
  H   H329      1.0  0.16288  0.20745  0.50312  1.0000
  H   H330      1.0  0.21385  0.10005  0.49794  1.0000
  H   H331      1.0  0.03539  0.19365  0.60654  1.0000
  C   C411      1.0  0.21006  0.16867  0.62212  1.0000
  H   H332      1.0  0.18880  0.20516  0.64749  1.0000
  P   P12       1.0  0.11491  0.11069  0.51228  1.0000
  C   C412      1.0  0.03984  0.19621  0.51905  1.0000
  C   C413      1.0  0.09988  0.39759  0.72303  1.0000
  H   H333      1.0  0.28214  0.36322  0.64621  1.0000
  P   P13       1.0  0.32558  0.44881  0.72492  1.0000
  H   H334      1.0  0.31751  0.41656  0.71235  1.0000
  Fe  Fe26      1.0  0.25625  0.38198  0.68951  1.0000
  C   C414      1.0  0.15545  0.16995  0.62728  1.0000
  C   C415      1.0  0.14499  0.15915  0.62176  1.0000
  C   C416      1.0  0.20008  0.18710  0.62591  1.0000
  H   H335      1.0  0.21267  0.16617  0.60741  1.0000
  C   C417      1.0  0.28922  0.29859  0.70217  1.0000
  C   C418      1.0  0.00777  0.22108  0.57313  1.0000
  H   H336      1.0  0.28263  0.26315  0.68235  1.0000
  H   H337      1.0  0.05566  0.19188  0.51774  1.0000
  C   C419      1.0  0.27768  0.29295  0.64672  1.0000
  C   C420      1.0  0.26512  0.28100  0.72416  1.0000
  Fe  Fe27      1.0  0.23930  0.34488  0.69942  1.0000
  C   C421      1.0  0.27614  0.10400  0.66110  1.0000
  H   H338      1.0  0.19537  0.19865  0.61411  1.0000
  C   C422      1.0  0.15125  0.14720  0.50884  1.0000
  C   C423      1.0  0.18897  0.45886  0.70251  1.0000
  H   H339      1.0  0.29312  0.99051  0.48606  1.0000
  C   C424      1.0  0.29171  0.28706  0.68836  1.0000
  C   C425      1.0  0.32190  0.47504  0.72196  1.0000
  H   H340      1.0  0.32153  0.08555  0.51710  1.0000
  C   C426      1.0  0.29450  0.35188  0.65030  1.0000
  S   S57       1.0  0.18960  0.40147  0.72481  1.0000
  H   H341      1.0  0.15459  0.18981  0.64516  1.0000
  H   H342      1.0  0.29188  0.10244  0.65848  1.0000
  C   C427      1.0  0.27705  0.09822  0.49014  1.0000
  H   H343      1.0  0.31583  0.48193  0.69276  1.0000
  Fe  Fe28      1.0  0.21773  0.37976  0.71787  1.0000
  H   H344      1.0  0.25874  0.25851  0.71353  1.0000
  C   C428      1.0  0.11873  0.39271  0.72732  1.0000
  C   C429      1.0  0.25738  0.27729  0.49415  1.0000
  H   H345      1.0  0.22900  0.42634  0.68480  1.0000
  C   C430      1.0  0.14637  0.18098  0.64175  1.0000
  C   C431      1.0  0.12551  0.15899  0.63105  1.0000
  H   H346      1.0  0.11743  0.15060  0.62672  1.0000
  H   H347      1.0  0.19073  0.47229  0.65337  1.0000
  C   C432      1.0  0.11319  0.22066  0.51819  1.0000
  S   S58       1.0  0.26863  0.35011  0.69951  1.0000
  C   C433      1.0  0.11821  0.23910  0.51255  1.0000
  C   C434      1.0  0.31079  0.35717  0.65301  1.0000
  P   P14       1.0  0.30803  0.29172  0.66491  1.0000
  H   H348      1.0  0.31107  0.37257  0.65074  1.0000
  C   C435      1.0  0.30954  0.31733  0.65932  1.0000
  H   H349      1.0  0.31499  0.19389  0.51428  1.0000
  H   H350      1.0  0.25313  0.25433  0.64567  1.0000
  C   C436      1.0  0.06524  0.13075  0.48906  1.0000
  C   C437      1.0  0.15155  0.35889  0.73218  1.0000
  H   H351      1.0  0.10114  0.16981  0.65241  1.0000
  C   C438      1.0  0.25650  0.24166  0.65711  1.0000
  C   C439      1.0  0.31462  0.37127  0.71148  1.0000
  H   H352      1.0  0.20914  0.99243  0.62133  1.0000
  H   H353      1.0  0.28744  0.24036  0.64906  1.0000
  C   C440      1.0  0.12667  0.18119  0.65091  1.0000
  C   C441      1.0  0.11635  0.16994  0.64557  1.0000
  C   C442      1.0  0.02843  0.23995  0.57900  1.0000
  C   C443      1.0  0.16996  0.01499  0.59953  1.0000
  H   H354      1.0  0.26337  0.10894  0.48990  1.0000
  H   H355      1.0  0.00943  0.25101  0.55835  1.0000
  C   C444      1.0  0.27596  0.23356  0.65902  1.0000
  C   C445      1.0  0.24133  0.23314  0.66954  1.0000
  H   H356      1.0  0.22631  0.23935  0.66775  1.0000
  C   C446      1.0  0.15588  0.40975  0.69808  1.0000
  C   C447      1.0  0.00755  0.20815  0.53772  1.0000
  C   C448      1.0  0.32544  0.36732  0.72618  1.0000
  H   H357      1.0  0.27440  0.40279  0.73040  1.0000
  C   C449      1.0  0.08036  0.11867  0.49820  1.0000
  C   C450      1.0  0.15578  0.39063  0.69691  1.0000
  C   C451      1.0  0.31082  0.21189  0.69621  1.0000
  H   H358      1.0  0.32642  0.29805  0.71280  1.0000
  C   C452      1.0  0.12778  0.25009  0.65806  1.0000
  C   C453      1.0  0.16742  0.14146  0.49455  1.0000
  C   C454      1.0  0.18197  0.39276  0.66797  1.0000
  C   C455      1.0  0.30712  0.19358  0.54522  1.0000
  H   H359      1.0  0.25826  0.43907  0.73304  1.0000
  C   C456      1.0  0.28042  0.21668  0.67336  1.0000
  C   C457      1.0  0.29630  0.38408  0.71301  1.0000
  C   C458      1.0  0.24609  0.09612  0.68211  1.0000
  H   H360      1.0  0.10551  0.23842  0.65300  1.0000
  C   C459      1.0  0.29564  0.20356  0.55985  1.0000
  H   H361      1.0  0.00007  0.24890  0.52424  1.0000
  H   H362      1.0  0.31179  0.01930  0.59095  1.0000
  C   C460      1.0  0.32574  0.32284  0.66230  1.0000
  C   C461      1.0  0.24558  0.21651  0.68403  1.0000
  H   H363      1.0  0.31095  0.26439  0.60730  1.0000
  P   P15       1.0  0.30563  0.20563  0.67551  1.0000
  C   C462      1.0  0.26504  0.20832  0.68597  1.0000
  H   H364      1.0  0.26814  0.19532  0.69714  1.0000
  H   H365      1.0  0.06991  0.41329  0.73032  1.0000
  H   H366      1.0  0.11581  0.37237  0.65725  1.0000
  H   H367      1.0  0.17938  0.14919  0.49003  1.0000
  C   C463      1.0  0.17982  0.02749  0.55198  1.0000
  H   H368      1.0  0.15218  0.25784  0.66424  1.0000
  C   C464      1.0  0.30922  0.17914  0.67907  1.0000
  C   C465      1.0  0.11650  0.14831  0.71509  1.0000
  H   H369      1.0  0.13968  0.33477  0.71758  1.0000
  C   C466      1.0  0.11861  0.23490  0.65899  1.0000
  P   P16       1.0  0.11447  0.19573  0.66931  1.0000
  H   H370      1.0  0.09724  0.21131  0.63461  1.0000
  H   H371      1.0  0.12179  0.26501  0.65137  1.0000
  H   H372      1.0  0.15916  0.30877  0.51172  1.0000
  H   H373      1.0  0.17982  0.35478  0.71251  1.0000
  H   H374      1.0  0.12190  0.99251  0.60962  1.0000
  C   C467      1.0  0.16413  0.00372  0.54698  1.0000
  C   C468      1.0  0.09533  0.14654  0.49288  1.0000
  C   C469      1.0  0.21645  0.43849  0.68480  1.0000
  H   H375      1.0  0.15554  0.04562  0.59853  1.0000
  C   C470      1.0  0.29560  0.22066  0.70984  1.0000
  C   C471      1.0  0.26637  0.09439  0.67877  1.0000
  H   H376      1.0  0.16972  0.43452  0.68578  1.0000
  H   H377      1.0  0.16900  0.36765  0.68026  1.0000
  C   C472      1.0  0.02921  0.20640  0.59651  1.0000
  H   H378      1.0  0.19284  0.02221  0.50454  1.0000
  C   C473      1.0  0.16906  0.42016  0.68435  1.0000
  S   S59       1.0  0.22686  0.34766  0.73077  1.0000
  C   C474      1.0  0.16808  0.12581  0.48611  1.0000
  H   H379      1.0  0.22576  0.03156  0.49086  1.0000
  S   S60       1.0  0.00778  0.14366  0.51984  1.0000
  H   H380      1.0  0.25614  0.14216  0.50367  1.0000
  C   C475      1.0  0.29132  0.26574  0.49751  1.0000
  H   H381      1.0  0.24183  0.27806  0.50000  1.0000
  H   H382      1.0  0.11822  0.15303  0.68424  1.0000
  H   H383      1.0  0.28793  0.38703  0.70171  1.0000
  H   H384      1.0  0.13107  0.07029  0.53141  1.0000
  H   H385      1.0  0.07346  0.26329  0.57091  1.0000
  H   H386      1.0  0.27370  0.30496  0.73033  1.0000
  H   H387      1.0  0.09514  0.04632  0.62250  1.0000
  C   C476      1.0  0.01527  0.20501  0.58682  1.0000
  C   C477      1.0  0.18567  0.02001  0.51981  1.0000
  C   C478      1.0  0.12656  0.21546  0.66727  1.0000
  H   H388      1.0  0.04707  0.22468  0.59968  1.0000
  P   P17       1.0  0.15517  0.01047  0.58495  1.0000
  C   C479      1.0  0.13395  0.34332  0.70482  1.0000
  H   H389      1.0  0.07648  0.20280  0.69716  1.0000
  C   C480      1.0  0.31723  0.48767  0.70468  1.0000
  C   C481      1.0  0.19278  0.02194  0.62235  1.0000
  H   H390      1.0  0.07889  0.27831  0.50849  1.0000
  C   C482      1.0  0.32637  0.34266  0.65909  1.0000
  C   C483      1.0  0.20561  0.44364  0.70242  1.0000
  C   C484      1.0  0.12310  0.03681  0.57111  1.0000
  C   C485      1.0  0.14121  0.46378  0.71707  1.0000
  H   H391      1.0  0.19852  0.04078  0.52646  1.0000
  C   C486      1.0  0.32480  0.09640  0.52299  1.0000
  C   C487      1.0  0.12058  0.36431  0.67069  1.0000
  H   H392      1.0  0.11618  0.46883  0.65441  1.0000
  H   H393      1.0  0.11046  0.20466  0.70767  1.0000
  H   H394      1.0  0.01087  0.19113  0.58950  1.0000
  C   C488      1.0  0.14402  0.21146  0.67424  1.0000
  H   H395      1.0  0.12972  0.46936  0.68225  1.0000
  C   C489      1.0  0.08944  0.20588  0.66621  1.0000
  C   C490      1.0  0.08203  0.28030  0.52168  1.0000
  H   H396      1.0  0.06339  0.22514  0.62983  1.0000
  H   H397      1.0  0.21800  0.22662  0.50602  1.0000
  P   P18       1.0  0.16067  0.48777  0.68521  1.0000
  H   H398      1.0  0.23853  0.08856  0.69577  1.0000
  H   H399      1.0  0.18253  0.03578  0.56126  1.0000
  H   H400      1.0  0.13959  0.03790  0.48669  1.0000
  H   H401      1.0  0.32582  0.05955  0.49075  1.0000
  H   H402      1.0  0.28965  0.44758  0.71363  1.0000
  C   C491      1.0  0.11445  0.18042  0.69343  1.0000
  C   C492      1.0  0.15315  0.22671  0.67325  1.0000
  C   C493      1.0  0.32419  0.16648  0.68831  1.0000
  C   C494      1.0  0.14499  0.24603  0.66523  1.0000
  Fe  Fe29      1.0  0.25548  0.35522  0.72975  1.0000
  C   C495      1.0  0.03583  0.22384  0.59258  1.0000
  C   C496      1.0  0.10474  0.04962  0.57326  1.0000
  C   C497      1.0  0.05460  0.21546  0.67963  1.0000
  H   H403      1.0  0.29216  0.14431  0.66766  1.0000
  S   S61       1.0  0.13284  0.26901  0.48631  1.0000
  P   P19       1.0  0.13890  0.37680  0.71441  1.0000
  H   H404      1.0  0.23381  0.20983  0.69356  1.0000
  H   H405      1.0  0.29659  0.19722  0.57497  1.0000
  C   C498      1.0  0.22297  0.15288  0.48701  1.0000
  H   H406      1.0  0.32335  0.25788  0.69431  1.0000
  C   C499      1.0  0.13154  0.02727  0.58751  1.0000
  C   C500      1.0  0.19684  0.00374  0.61707  1.0000
  S   S62       1.0  0.31562  0.14644  0.59131  1.0000
  S   S63       1.0  0.24518  0.38767  0.71979  1.0000
  C   C501      1.0  0.29964  0.22454  0.72629  1.0000
  C   C502      1.0  0.07387  0.20757  0.68240  1.0000
  C   C503      1.0  0.06623  0.22026  0.64456  1.0000
  C   C504      1.0  0.09559  0.12645  0.50013  1.0000
  C   C505      1.0  0.05078  0.22177  0.66071  1.0000
  H   H407      1.0  0.17517  0.05128  0.61912  1.0000
  C   C506      1.0  0.27839  0.99935  0.48656  1.0000
  C   C507      1.0  0.31615  0.12899  0.53003  1.0000
  C   C508      1.0  0.18554  0.00027  0.60568  1.0000
  H   H408      1.0  0.09835  0.05708  0.56055  1.0000
  H   H409      1.0  0.04034  0.18946  0.49155  1.0000
  C   C509      1.0  0.00923  0.09984  0.49772  1.0000
  H   H410      1.0  0.17099  0.99833  0.51774  1.0000
  C   C510      1.0  0.13529  0.47733  0.66789  1.0000
  C   C511      1.0  0.21630  0.11486  0.49479  1.0000
  H   H411      1.0  0.05320  0.12484  0.48812  1.0000
  H   H412      1.0  0.00418  0.19853  0.49492  1.0000
  S   S64       1.0  0.25817  0.48765  0.72021  1.0000
  C   C512      1.0  0.31221  0.07033  0.49053  1.0000
  C   C513      1.0  0.31584  0.13820  0.68277  1.0000
  H   H413      1.0  0.00518  0.09920  0.52846  1.0000
  C   C514      1.0  0.11435  0.15688  0.73104  1.0000
  C   C515      1.0  0.12758  0.47694  0.65208  1.0000
  C   C516      1.0  0.13474  0.05170  0.49163  1.0000
  C   C517      1.0  0.27535  0.01946  0.48585  1.0000
  H   H414      1.0  0.32189  0.32880  0.72402  1.0000
  H   H415      1.0  0.11814  0.13256  0.71724  1.0000
  C   C518      1.0  0.25641  0.03106  0.48725  1.0000
  S   S65       1.0  0.20962  0.47382  0.73336  1.0000
  H   H416      1.0  0.23084  0.99598  0.49212  1.0000
  C   C519      1.0  0.24341  0.00241  0.49003  1.0000
  C   C520      1.0  0.32031  0.20840  0.63569  1.0000
  C   C521      1.0  0.26247  0.99070  0.48844  1.0000
  C   C522      1.0  0.24044  0.02255  0.48936  1.0000
  C   C523      1.0  0.11221  0.17718  0.72827  1.0000
  C   C524      1.0  0.28764  0.44336  0.72940  1.0000
  C   C525      1.0  0.08445  0.40949  0.73367  1.0000
  C   C526      1.0  0.32739  0.14616  0.69019  1.0000
  C   C527      1.0  0.32640  0.42446  0.70007  1.0000
  H   H417      1.0  0.12862  0.48660  0.62108  1.0000
  C   C528      1.0  0.13459  0.48693  0.63331  1.0000
  C   C529      1.0  0.12743  0.46024  0.73441  1.0000
  C   C530      1.0  0.15475  0.32933  0.48515  1.0000
  H   H418      1.0  0.15319  0.10422  0.48479  1.0000
  C   C531      1.0  0.31794  0.37675  0.74216  1.0000
  H   H419      1.0  0.16684  0.31524  0.91073  1.0000
  C   C532      1.0  0.24889  0.47728  0.77703  1.0000
  P   P20       1.0  0.20739  0.45259  0.81922  1.0000
  C   C533      1.0  0.06628  0.45787  0.87981  1.0000
  H   H420      1.0  0.31358  0.46510  0.86469  1.0000
  C   C534      1.0  0.17557  0.48105  0.80748  1.0000
  H   H421      1.0  0.08580  0.47519  0.88109  1.0000
  H   H422      1.0  0.12615  0.44535  0.74155  1.0000
  S   S66       1.0  0.31871  0.40498  0.79640  1.0000
  H   H423      1.0  0.01810  0.35826  0.85278  1.0000
  Fe  Fe30      1.0  0.30844  0.39907  0.85225  1.0000
  S   S67       1.0  0.28937  0.42216  0.83393  1.0000
  S   S68       1.0  0.30268  0.39225  0.88511  1.0000
  Fe  Fe31      1.0  0.29195  0.39834  0.81816  1.0000
  S   S69       1.0  0.26458  0.39723  0.80949  1.0000
  C   C535      1.0  0.17018  0.32858  0.75879  1.0000
  H   H424      1.0  0.31637  0.24494  0.84640  1.0000
  S   S70       1.0  0.30887  0.37463  0.83799  1.0000
  H   H425      1.0  0.02613  0.32312  0.86818  1.0000
  H   H426      1.0  0.23797  0.40379  0.87052  1.0000
  C   C536      1.0  0.29757  0.48678  0.94534  1.0000
  C   C537      1.0  0.26302  0.43900  0.96802  1.0000
  C   C538      1.0  0.18489  0.42750  0.81707  1.0000
  C   C539      1.0  0.20533  0.42075  0.78016  1.0000
  Fe  Fe32      1.0  0.11612  0.42503  0.81311  1.0000
  S   S71       1.0  0.13011  0.39522  0.80589  1.0000
  S   S72       1.0  0.21821  0.42339  0.93266  1.0000
  C   C540      1.0  0.01255  0.45014  0.78400  1.0000
  C   C541      1.0  0.03311  0.44657  0.78042  1.0000
  C   C542      1.0  0.04281  0.44890  0.79404  1.0000
  C   C543      1.0  0.03197  0.45464  0.81145  1.0000
  C   C544      1.0  0.01138  0.45835  0.81496  1.0000
  C   C545      1.0  0.00170  0.45628  0.80118  1.0000
  H   H427      1.0  0.04152  0.44193  0.76708  1.0000
  H   H428      1.0  0.05864  0.44596  0.79119  1.0000
  H   H429      1.0  0.02239  0.40287  0.83463  1.0000
  C   C546      1.0  0.22501  0.41457  0.86739  1.0000
  C   C547      1.0  0.27874  0.40078  0.89749  1.0000
  C   C548      1.0  0.27251  0.39135  0.91677  1.0000
  C   C549      1.0  0.25376  0.39814  0.92730  1.0000
  C   C550      1.0  0.24141  0.41490  0.91890  1.0000
  C   C551      1.0  0.24767  0.42446  0.89966  1.0000
  C   C552      1.0  0.26611  0.41712  0.88879  1.0000
  H   H430      1.0  0.28220  0.37870  0.92354  1.0000
  H   H431      1.0  0.24898  0.39068  0.94215  1.0000
  H   H432      1.0  0.23818  0.43735  0.89302  1.0000
  H   H433      1.0  0.27075  0.42453  0.87395  1.0000
  C   C553      1.0  0.03500  0.47577  0.87174  1.0000
  H   H434      1.0  0.30953  0.44058  0.76691  1.0000
  C   C554      1.0  0.25335  0.45623  0.97479  1.0000
  H   H435      1.0  0.25025  0.48468  0.76187  1.0000
  S   S73       1.0  0.27474  0.34092  0.75195  1.0000
  H   H436      1.0  0.10888  0.41665  0.76504  1.0000
  H   H437      1.0  0.00411  0.41180  0.74656  1.0000
  H   H438      1.0  0.23593  0.41993  0.83636  1.0000
  C   C555      1.0  0.17552  0.46532  0.75668  1.0000
  C   C556      1.0  0.14113  0.35241  0.75107  1.0000
  C   C557      1.0  0.14877  0.41507  0.77166  1.0000
  C   C558      1.0  0.14738  0.39679  0.78382  1.0000
  C   C559      1.0  0.15972  0.37971  0.77821  1.0000
  C   C560      1.0  0.32116  0.21993  0.83340  1.0000
  H   H439      1.0  0.17715  0.34509  0.88988  1.0000
  H   H440      1.0  0.13939  0.42827  0.77597  1.0000
  H   H441      1.0  0.15866  0.36554  0.78762  1.0000
  S   S74       1.0  0.32105  0.45696  0.79517  1.0000
  C   C561      1.0  0.27212  0.35644  0.76806  1.0000
  C   C562      1.0  0.25611  0.37227  0.76931  1.0000
  C   C563      1.0  0.25380  0.38446  0.78237  1.0000
  C   C564      1.0  0.26788  0.38142  0.79363  1.0000
  C   C565      1.0  0.28408  0.36576  0.79229  1.0000
  C   C566      1.0  0.28590  0.35293  0.77988  1.0000
  C   C567      1.0  0.29294  0.45265  0.88861  1.0000
  H   H442      1.0  0.24118  0.39639  0.78364  1.0000
  H   H443      1.0  0.29505  0.36350  0.80091  1.0000
  H   H444      1.0  0.29808  0.34052  0.77924  1.0000
  C   C568      1.0  0.17445  0.39927  0.74807  1.0000
  C   C569      1.0  0.30323  0.31987  0.82593  1.0000
  C   C570      1.0  0.32048  0.31879  0.83200  1.0000
  H   H445      1.0  0.08178  0.40278  0.80411  1.0000
  H   H446      1.0  0.15538  0.46532  0.91005  1.0000
  C   C571      1.0  0.20803  0.43946  0.84412  1.0000
  C   C572      1.0  0.32589  0.47387  0.80615  1.0000
  S   S75       1.0  0.09081  0.47410  0.82976  1.0000
  H   H447      1.0  0.26774  0.43929  0.95248  1.0000
  C   C573      1.0  0.10636  0.41151  0.75318  1.0000
  H   H448      1.0  0.21298  0.41848  0.76563  1.0000
  C   C574      1.0  0.02513  0.31297  0.84290  1.0000
  H   H449      1.0  0.17916  0.45476  0.85696  1.0000
  H   H450      1.0  0.31485  0.44194  0.97205  1.0000
  S   S76       1.0  0.09745  0.44915  0.79504  1.0000
  H   H451      1.0  0.13620  0.39613  0.74606  1.0000
  C   C575      1.0  0.13950  0.45555  0.89396  1.0000
  H   H452      1.0  0.18278  0.45017  0.75672  1.0000
  H   H453      1.0  0.07839  0.38272  0.78235  1.0000
  H   H454      1.0  0.16318  0.43046  0.74434  1.0000
  H   H455      1.0  0.18154  0.28288  0.90145  1.0000
  C   C576      1.0  0.18052  0.33467  0.73993  1.0000
  H   H456      1.0  0.20669  0.28056  0.87097  1.0000
  H   H457      1.0  0.13902  0.44164  0.90408  1.0000
  H   H458      1.0  0.24439  0.45138  0.83146  1.0000
  H   H459      1.0  0.18122  0.43751  0.89073  1.0000
  H   H460      1.0  0.04702  0.37261  0.78657  1.0000
  C   C577      1.0  0.30603  0.48039  0.88849  1.0000
  H   H461      1.0  0.27174  0.44386  0.91421  1.0000
  Fe  Fe33      1.0  0.20902  0.45629  0.92619  1.0000
  H   H462      1.0  0.25073  0.47005  0.96452  1.0000
  C   C578      1.0  0.01906  0.34723  0.84461  1.0000
  S   S77       1.0  0.04361  0.45676  0.82937  1.0000
  H   H463      1.0  0.14890  0.45812  0.77552  1.0000
  C   C579      1.0  0.30506  0.46594  0.87924  1.0000
  H   H464      1.0  0.05365  0.41286  0.83005  1.0000
  H   H465      1.0  0.27726  0.48033  0.77896  1.0000
  C   C580      1.0  0.05216  0.40401  0.82061  1.0000
  C   C581      1.0  0.04823  0.38157  0.79601  1.0000
  S   S78       1.0  0.21032  0.47459  0.89598  1.0000
  H   H466      1.0  0.29211  0.33333  0.82528  1.0000
  H   H467      1.0  0.10521  0.47326  0.75643  1.0000
  H   H468      1.0  0.16378  0.41547  0.86787  1.0000
  H   H469      1.0  0.21715  0.31010  0.84989  1.0000
  S   S79       1.0  0.11880  0.44336  0.87404  1.0000
  Fe  Fe34      1.0  0.11025  0.44799  0.84483  1.0000
  C   C582      1.0  0.19312  0.43380  0.87879  1.0000
  C   C583      1.0  0.02367  0.32736  0.85333  1.0000
  C   C584      1.0  0.00096  0.38282  0.79221  1.0000
  H   H470      1.0  0.29236  0.44146  0.88136  1.0000
  C   C585      1.0  0.06799  0.39842  0.80591  1.0000
  H   H471      1.0  0.16781  0.40729  0.81620  1.0000
  H   H472      1.0  0.24256  0.33019  0.83393  1.0000
  C   C586      1.0  0.11562  0.47590  0.74280  1.0000
  C   C587      1.0  0.14875  0.46893  0.89737  1.0000
  C   C588      1.0  0.08770  0.41644  0.74873  1.0000
  H   H473      1.0  0.12573  0.35874  0.75555  1.0000
  C   C589      1.0  0.28802  0.48657  0.98024  1.0000
  C   C590      1.0  0.18943  0.47525  0.81955  1.0000
  H   H474      1.0  0.00289  0.46281  0.82837  1.0000
  H   H475      1.0  0.19520  0.39115  0.86396  1.0000
  H   H476      1.0  0.04473  0.44438  0.87552  1.0000
  H   H477      1.0  0.27336  0.40782  0.97595  1.0000
  C   C591      1.0  0.29888  0.43937  0.75931  1.0000
  C   C592      1.0  0.28130  0.43426  0.77019  1.0000
  C   C593      1.0  0.26695  0.43354  0.76072  1.0000
  C   C594      1.0  0.03213  0.38742  0.81053  1.0000
  C   C595      1.0  0.30746  0.45721  0.96893  1.0000
  C   C596      1.0  0.30051  0.30368  0.82041  1.0000
  H   H478      1.0  0.18654  0.40087  0.78378  1.0000
  S   S80       1.0  0.00095  0.44630  0.76694  1.0000
  H   H479      1.0  0.21054  0.41217  0.89772  1.0000
  C   C597      1.0  0.26613  0.42119  0.98131  1.0000
  H   H480      1.0  0.14248  0.33291  0.77905  1.0000
  H   H481      1.0  0.25433  0.27920  0.73765  1.0000
  H   H482      1.0  0.23625  0.35459  0.90617  1.0000
  C   C598      1.0  0.02215  0.31847  0.82367  1.0000
  H   H483      1.0  0.24032  0.36918  0.83440  1.0000
  C   C599      1.0  0.20047  0.43690  0.80730  1.0000
  S   S81       1.0  0.09430  0.42659  0.84126  1.0000
  C   C600      1.0  0.20960  0.41940  0.88273  1.0000
  H   H484      1.0  0.12523  0.48139  0.85168  1.0000
  H   H485      1.0  0.27863  0.43123  0.78602  1.0000
  H   H486      1.0  0.25355  0.42927  0.76926  1.0000
  C   C601      1.0  0.24545  0.45818  0.81618  1.0000
  C   C602      1.0  0.01562  0.35285  0.82547  1.0000
  C   C603      1.0  0.17991  0.41446  0.80866  1.0000
  H   H487      1.0  0.17649  0.43040  0.83113  1.0000
  C   C604      1.0  0.21044  0.43363  0.78862  1.0000
  H   H488      1.0  0.28783  0.23129  0.73674  1.0000
  C   C605      1.0  0.01754  0.33834  0.81491  1.0000
  H   H489      1.0  0.13611  0.37996  0.84847  1.0000
  C   C606      1.0  0.13093  0.46007  0.87751  1.0000
  C   C607      1.0  0.17337  0.38096  0.76036  1.0000
  C   C608      1.0  0.31479  0.28622  0.82147  1.0000
  C   C609      1.0  0.04820  0.45799  0.87599  1.0000
  S   S82       1.0  0.13346  0.44449  0.81791  1.0000
  Fe  Fe35      1.0  0.07679  0.45237  0.82367  1.0000
  C   C610      1.0  0.06603  0.38717  0.79363  1.0000
  H   H490      1.0  0.01560  0.34229  0.79991  1.0000
  C   C611      1.0  0.28244  0.46835  0.91653  1.0000
  H   H491      1.0  0.17527  0.47197  0.79775  1.0000
  H   H492      1.0  0.11434  0.14778  0.74555  1.0000
  H   H493      1.0  0.02140  0.47583  0.86785  1.0000
  C   C612      1.0  0.30252  0.44305  0.73884  1.0000
  C   C613      1.0  0.28151  0.45392  0.90720  1.0000
  H   H494      1.0  0.26621  0.37456  0.84781  1.0000
  H   H495      1.0  0.13451  0.40995  0.85968  1.0000
  H   H496      1.0  0.20022  0.48329  0.84113  1.0000
  H   H497      1.0  0.29367  0.39652  0.75612  1.0000
  C   C614      1.0  0.19029  0.41095  0.79030  1.0000
  C   C615      1.0  0.19221  0.44373  0.85957  1.0000
  H   H498      1.0  0.02345  0.30731  0.81553  1.0000
  H   H499      1.0  0.21050  0.34826  0.89316  1.0000
  C   C616      1.0  0.03432  0.39848  0.82301  1.0000
  Fe  Fe36      1.0  0.11290  0.46895  0.80234  1.0000
  H   H500      1.0  0.24512  0.37481  0.76068  1.0000
  H   H501      1.0  0.32369  0.47367  0.75185  1.0000
  H   H502      1.0  0.16677  0.35475  0.84586  1.0000
  C   C617      1.0  0.15628  0.46980  0.76726  1.0000
  S   S83       1.0  0.22514  0.47348  0.93601  1.0000
  C   C618      1.0  0.23007  0.46045  0.80651  1.0000
  C   C619      1.0  0.13155  0.47804  0.86452  1.0000
  C   C620      1.0  0.29764  0.46690  0.98428  1.0000
  H   H503      1.0  0.26446  0.36728  0.88354  1.0000
  C   C621      1.0  0.22398  0.42411  0.84811  1.0000
  H   H504      1.0  0.07575  0.42555  0.75705  1.0000
  C   C622      1.0  0.07128  0.47553  0.87920  1.0000
  C   C623      1.0  0.26241  0.46527  0.80623  1.0000
  H   H505      1.0  0.22206  0.44095  0.78040  1.0000
  P   P21       1.0  0.00987  0.37855  0.81447  1.0000
  C   C624      1.0  0.15051  0.33754  0.76440  1.0000
  C   C625      1.0  0.24038  0.33300  0.80419  1.0000
  C   C626      1.0  0.22898  0.34146  0.78996  1.0000
  C   C627      1.0  0.21102  0.35427  0.79438  1.0000
  C   C628      1.0  0.20404  0.35809  0.81324  1.0000
  C   C629      1.0  0.21502  0.34903  0.82793  1.0000
  C   C630      1.0  0.23351  0.33682  0.82308  1.0000
  P   P22       1.0  0.20540  0.35211  0.85300  1.0000
  C   C631      1.0  0.22377  0.35752  0.86272  1.0000
  C   C632      1.0  0.18335  0.37110  0.85454  1.0000
  C   C633      1.0  0.18241  0.38834  0.86074  1.0000
  C   C634      1.0  0.16470  0.40218  0.86294  1.0000
  C   C635      1.0  0.14810  0.39912  0.85845  1.0000
  C   C636      1.0  0.14898  0.38210  0.85218  1.0000
  C   C637      1.0  0.16642  0.36800  0.85052  1.0000
  C   C638      1.0  0.22265  0.35378  0.88303  1.0000
  C   C639      1.0  0.23727  0.35727  0.89050  1.0000
  C   C640      1.0  0.25318  0.36438  0.87779  1.0000
  C   C641      1.0  0.25419  0.36848  0.85762  1.0000
  C   C642      1.0  0.23944  0.36535  0.85008  1.0000
  C   C643      1.0  0.19805  0.32997  0.86824  1.0000
  C   C644      1.0  0.20626  0.31158  0.86309  1.0000
  C   C645      1.0  0.20032  0.29468  0.87505  1.0000
  C   C646      1.0  0.18614  0.29598  0.89222  1.0000
  C   C647      1.0  0.17787  0.31419  0.89745  1.0000
  C   C648      1.0  0.18377  0.33110  0.88554  1.0000
  H   H506      1.0  0.25473  0.32382  0.80036  1.0000
  H   H507      1.0  0.23446  0.33872  0.77525  1.0000
  H   H508      1.0  0.20261  0.36146  0.78307  1.0000
  H   H509      1.0  0.19019  0.36827  0.81603  1.0000
  H   H510      1.0  0.01895  0.40374  0.77546  1.0000
  C   C649      1.0  0.99934  0.40084  0.75905  1.0000
  H   H511      1.0  0.27346  0.46916  0.93086  1.0000
  C   C650      1.0  0.16219  0.41628  0.75377  1.0000
  H   H512      1.0  0.28737  0.30477  0.81517  1.0000
  H   H513      1.0  0.02866  0.29757  0.84969  1.0000
  H   H514      1.0  0.30752  0.21579  0.84164  1.0000
  H   H515      1.0  0.32286  0.33146  0.83585  1.0000
  C   C651      1.0  0.00781  0.39613  0.77552  1.0000
  H   H516      1.0  0.17742  0.31694  0.76903  1.0000
  H   H517      1.0  0.27425  0.46358  0.81365  1.0000
  C   C652      1.0  0.26985  0.43863  0.74034  1.0000
  Fe  Fe37      1.0  0.31764  0.42721  0.81361  1.0000
  C   C653      1.0  0.29960  0.38955  0.74361  1.0000
  C   C654      1.0  0.23177  0.47062  0.78698  1.0000
  C   C655      1.0  0.30754  0.46713  0.94952  1.0000
  H   H518      1.0  0.31255  0.27402  0.81677  1.0000
  H   H519      1.0  0.07677  0.44413  0.88253  1.0000
  H   H520      1.0  0.31513  0.45938  0.93777  1.0000
  H   H521      1.0  0.18271  0.36781  0.75588  1.0000
  H   H522      1.0  0.11053  0.18383  0.74063  1.0000
  C   C656      1.0  0.12182  0.39983  0.74244  1.0000
  H   H523      1.0  0.32196  0.22206  0.74236  1.0000
  C   C657      1.0  0.18538  0.48031  0.74605  1.0000
  C   C658      1.0  0.26413  0.47480  0.78666  1.0000
  S   S84       1.0  0.17908  0.47268  0.93826  1.0000
  H   H524      1.0  0.28031  0.47844  0.84799  1.0000
  H   H525      1.0  0.21980  0.47354  0.77937  1.0000
  C   C659      1.0  0.32614  0.23651  0.83595  1.0000
  C   C660      1.0  0.29474  0.48172  0.90732  1.0000
  H   H526      1.0  0.24634  0.47537  0.85018  1.0000
  H   H527      1.0  0.32613  0.37428  0.75354  1.0000
  C   C661      1.0  0.32150  0.48307  0.73788  1.0000
  C   C662      1.0  0.25096  0.48890  0.84245  1.0000
  C   C663      1.0  0.18972  0.48762  0.83162  1.0000
  C   C664      1.0  0.14891  0.48715  0.88466  1.0000
  H   H528      1.0  0.09729  0.48771  0.92971  1.0000
  H   H529      1.0  0.99448  0.41997  0.81349  1.0000
  H   H530      1.0  0.19566  0.32751  0.73541  1.0000
  Fe  Fe38      1.0  0.19536  0.52748  0.08426  1.0000
  S   S85       1.0  0.21501  0.54657  0.06360  1.0000
  S   S86       1.0  0.16292  0.53966  0.08795  1.0000
  H   H531      1.0  0.07066  0.49851  0.12452  1.0000
  C   C665      1.0  0.28230  0.62982  0.11949  1.0000
  H   H532      1.0  0.08553  0.57025  0.10516  1.0000
  Fe  Fe39      1.0  0.23332  0.53652  0.08676  1.0000
  S   S87       1.0  0.23997  0.55825  0.10057  1.0000
  S   S88       1.0  0.10241  0.50471  0.19240  1.0000
  H   H533      1.0  0.26207  0.70111  0.03628  1.0000
  S   S89       1.0  0.21240  0.51923  0.10797  1.0000
  H   H534      1.0  0.13786  0.51956  0.08304  1.0000
  C   C666      1.0  0.27967  0.65176  0.04704  1.0000
  C   C667      1.0  0.27094  0.66550  0.07621  1.0000
  C   C668      1.0  0.27315  0.62883  0.13918  1.0000
  S   S90       1.0  0.27458  0.60478  0.18992  1.0000
  H   H535      1.0  0.24193  0.59969  0.05625  1.0000
  C   C669      1.0  0.28414  0.58401  0.22501  1.0000
  C   C670      1.0  0.07646  0.55588  0.13496  1.0000
  H   H536      1.0  0.25806  0.56047  0.16225  1.0000
  Fe  Fe40      1.0  0.10634  0.53429  0.19339  1.0000
  S   S91       1.0  0.08207  0.53831  0.21964  1.0000
  S   S92       1.0  0.10832  0.55899  0.16729  1.0000
  H   H537      1.0  0.17943  0.50862  0.01364  1.0000
  H   H538      1.0  0.16662  0.58007  0.10377  1.0000
  H   H539      1.0  0.28552  0.63939  0.03981  1.0000
  C   C671      1.0  0.20268  0.59799  0.11136  1.0000
  S   S93       1.0  0.13019  0.52288  0.21057  1.0000
  H   H540      1.0  0.26988  0.66395  0.09174  1.0000
  H   H541      1.0  0.31046  0.53071  0.09813  1.0000
  C   C672      1.0  0.20138  0.59029  0.13140  1.0000
  H   H542      1.0  0.28434  0.57699  0.13016  1.0000
  C   C673      1.0  0.24707  0.61681  0.13374  1.0000
  C   C674      1.0  0.20817  0.56695  0.17612  1.0000
  C   C675      1.0  0.14669  0.57436  0.18290  1.0000
  H   H543      1.0  0.19194  0.57132  0.20503  1.0000
  C   C676      1.0  0.07764  0.53807  0.14842  1.0000
  C   C677      1.0  0.25561  0.62223  0.14632  1.0000
  H   H544      1.0  0.27508  0.67238  0.02029  1.0000
  C   C678      1.0  0.16444  0.58050  0.17962  1.0000
  H   H545      1.0  0.17767  0.60334  0.18193  1.0000
  C   C679      1.0  0.24134  0.56647  0.19014  1.0000
  H   H546      1.0  0.28588  0.68169  0.20688  1.0000
  C   C680      1.0  0.22706  0.56313  0.16448  1.0000
  C   C681      1.0  0.29764  0.54096  0.10378  1.0000
  P   P23       1.0  0.28620  0.62506  0.08141  1.0000
  C   C682      1.0  0.24958  0.59671  0.22515  1.0000
  C   C683      1.0  0.22270  0.56934  0.20219  1.0000
  C   C684      1.0  0.14950  0.54535  0.11054  1.0000
  C   C685      1.0  0.13403  0.56176  0.11045  1.0000
  C   C686      1.0  0.12216  0.56618  0.12804  1.0000
  C   C687      1.0  0.12490  0.55362  0.14585  1.0000
  C   C688      1.0  0.14054  0.53724  0.14611  1.0000
  C   C689      1.0  0.15312  0.53336  0.12841  1.0000
  H   H547      1.0  0.13119  0.57111  0.09670  1.0000
  H   H548      1.0  0.11028  0.57898  0.12778  1.0000
  H   H549      1.0  0.14294  0.52764  0.15988  1.0000
  H   H550      1.0  0.16514  0.52076  0.12845  1.0000
  C   C690      1.0  0.26279  0.55514  0.10687  1.0000
  C   C691      1.0  0.26467  0.56765  0.11799  1.0000
  C   C692      1.0  0.28297  0.56698  0.12191  1.0000
  C   C693      1.0  0.29958  0.55394  0.11439  1.0000
  H   H551      1.0  0.30734  0.58578  0.07338  1.0000
  C   C694      1.0  0.27920  0.54138  0.10022  1.0000
  H   H552      1.0  0.25194  0.57811  0.12330  1.0000
  C   C695      1.0  0.16429  0.59798  0.18493  1.0000
  H   H553      1.0  0.29376  0.52774  0.20099  1.0000
  H   H554      1.0  0.23351  0.52430  0.15115  1.0000
  C   C696      1.0  0.24354  0.56309  0.17141  1.0000
  C   C697      1.0  0.25616  0.61776  0.11403  1.0000
  H   H555      1.0  0.21372  0.60641  0.10342  1.0000
  C   C698      1.0  0.20619  0.56939  0.19531  1.0000
  H   H556      1.0  0.22908  0.56017  0.15002  1.0000
  H   H557      1.0  0.20147  0.51499  0.03160  1.0000
  C   C699      1.0  0.14675  0.60876  0.19405  1.0000
  H   H558      1.0  0.22108  0.57160  0.21687  1.0000
  H   H559      1.0  0.22798  0.52360  0.18666  1.0000
  C   C700      1.0  0.21299  0.49863  0.22907  1.0000
  C   C701      1.0  0.08847  0.52071  0.14244  1.0000
  Fe  Fe41      1.0  0.30367  0.58875  0.17537  1.0000
  C   C702      1.0  0.19112  0.53166  0.15566  1.0000
  C   C703      1.0  0.20159  0.50514  0.98767  1.0000
  C   C704      1.0  0.19029  0.59414  0.10137  1.0000
  C   C705      1.0  0.29715  0.50057  0.15630  1.0000
  H   H560      1.0  0.06845  0.56936  0.13976  1.0000
  H   H561      1.0  0.29804  0.61892  0.21570  1.0000
  H   H562      1.0  0.25097  0.62444  0.06857  1.0000
  C   C706      1.0  0.04111  0.49989  0.17626  1.0000
  H   H563      1.0  0.29828  0.56191  0.06030  1.0000
  C   C707      1.0  0.04926  0.50213  0.19109  1.0000
  C   C708      1.0  0.31238  0.62027  0.07995  1.0000
  Fe  Fe42      1.0  0.32436  0.56571  0.14320  1.0000
  C   C709      1.0  0.17895  0.53163  0.19015  1.0000
  H   H564      1.0  0.29919  0.58215  0.21746  1.0000
  C   C710      1.0  0.18911  0.51225  0.15894  1.0000
  C   C711      1.0  0.09727  0.53909  0.10953  1.0000
  C   C712      1.0  0.23875  0.51094  0.16103  1.0000
  C   C713      1.0  0.27989  0.60712  0.07185  1.0000
  P   P24       1.0  0.23923  0.49342  0.21948  1.0000
  H   H565      1.0  0.14675  0.62212  0.19831  1.0000
  Fe  Fe43      1.0  0.08022  0.50757  0.22026  1.0000
  H   H566      1.0  0.19691  0.53883  0.14099  1.0000
  H   H567      1.0  0.16388  0.56678  0.13917  1.0000
  C   C714      1.0  0.08612  0.55636  0.11550  1.0000
  C   C715      1.0  0.12919  0.58522  0.19193  1.0000
  H   H568      1.0  0.07046  0.53784  0.16358  1.0000
  H   H569      1.0  0.17459  0.53907  0.20233  1.0000
  Fe  Fe44      1.0  0.12445  0.49340  0.21183  1.0000
  C   C716      1.0  0.26911  0.59455  0.21503  1.0000
  C   C717      1.0  0.29336  0.65039  0.20930  1.0000
  C   C718      1.0  0.22662  0.51297  0.00796  1.0000
  H   H570      1.0  0.23354  0.61160  0.13940  1.0000
  C   C719      1.0  0.12921  0.60238  0.19755  1.0000
  S   S94       1.0  0.21043  0.50061  0.07182  1.0000
  H   H571      1.0  0.10497  0.54010  0.09451  1.0000
  C   C720      1.0  0.27967  0.52673  0.21043  1.0000
  C   C721      1.0  0.26886  0.51439  0.20802  1.0000
  C   C722      1.0  0.27386  0.67044  0.03592  1.0000
  C   C723      1.0  0.17738  0.51209  0.19338  1.0000
  H   H572      1.0  0.29598  0.63485  0.11433  1.0000
  P   P25       1.0  0.18688  0.56704  0.16710  1.0000
  C   C724      1.0  0.17623  0.58305  0.11152  1.0000
  H   H573      1.0  0.21105  0.59346  0.13881  1.0000
  H   H574      1.0  0.14619  0.56140  0.17821  1.0000
  C   C725      1.0  0.09849  0.52104  0.12294  1.0000
  C   C726      1.0  0.13604  0.49155  0.14308  1.0000
  C   C727      1.0  0.26515  0.68417  0.06504  1.0000
  C   C728      1.0  0.25638  0.59707  0.05953  1.0000
  H   H575      1.0  0.11559  0.61083  0.20440  1.0000
  C   C729      1.0  0.12988  0.51269  0.07686  1.0000
  C   C730      1.0  0.18541  0.54169  0.17116  1.0000
  C   C731      1.0  0.18792  0.57834  0.14151  1.0000
  C   C732      1.0  0.18197  0.50258  0.17776  1.0000
  H   H576      1.0  0.25409  0.56681  0.19536  1.0000
  H   H577      1.0  0.19167  0.59959  0.08574  1.0000
  C   C733      1.0  0.17485  0.57540  0.13156  1.0000
  H   H578      1.0  0.11556  0.58040  0.19429  1.0000
  C   C734      1.0  0.26150  0.61092  0.06670  1.0000
  H   H579      1.0  0.32019  0.67819  0.22187  1.0000
  H   H580      1.0  0.25961  0.69675  0.07199  1.0000
  C   C735      1.0  0.29082  0.63226  0.22112  1.0000
  H   H581      1.0  0.15158  0.57778  0.22992  1.0000
  C   C736      1.0  0.28391  0.66763  0.21612  1.0000
  H   H582      1.0  0.04702  0.50551  0.16110  1.0000
  H   H583      1.0  0.27987  0.63274  0.14910  1.0000
  H   H584      1.0  0.23786  0.60471  0.21749  1.0000
  C   C737      1.0  0.30819  0.51478  0.15293  1.0000
  S   S95       1.0  0.25207  0.51088  0.07374  1.0000
  S   S96       1.0  0.30615  0.55783  0.17306  1.0000
  S   S97       1.0  0.24282  0.51716  0.02055  1.0000
  C   C738      1.0  0.26969  0.57948  0.05708  1.0000
  H   H585      1.0  0.30086  0.52993  0.15287  1.0000
  C   C739      1.0  0.13277  0.51544  0.05653  1.0000
  C   C740      1.0  0.27400  0.62406  0.10678  1.0000
  H   H586      1.0  0.06140  0.50944  0.18740  1.0000
  C   C741      1.0  0.20708  0.51238  0.01691  1.0000
  H   H587      1.0  0.01794  0.53985  0.20103  1.0000
  S   S98       1.0  0.31906  0.59752  0.14432  1.0000
  S   S99       1.0  0.32300  0.55428  0.11729  1.0000
  H   H588      1.0  0.24876  0.62111  0.16169  1.0000
  H   H589      1.0  0.26548  0.56850  0.05209  1.0000
  C   C742      1.0  0.25135  0.51163  0.22129  1.0000
  Fe  Fe45      1.0  0.23146  0.51905  0.05262  1.0000
  H   H590      1.0  0.08900  0.50708  0.15310  1.0000
  C   C743      1.0  0.32105  0.60472  0.09332  1.0000
  C   C744      1.0  0.19460  0.50872  0.00671  1.0000
  H   H591      1.0  0.19288  0.50477  0.14687  1.0000
  H   H592      1.0  0.24938  0.61318  0.10471  1.0000
  H   H593      1.0  0.31215  0.59551  0.10426  1.0000
  H   H594      1.0  0.27469  0.50641  0.19625  1.0000
  C   C745      1.0  0.27802  0.64912  0.06732  1.0000
  H   H595      1.0  0.17183  0.50442  0.20787  1.0000
  C   C746      1.0  0.26655  0.68663  0.04492  1.0000
  C   C747      1.0  0.00368  0.53598  0.20611  1.0000
  C   C748      1.0  0.23345  0.51004  0.98865  1.0000
  C   C749      1.0  0.27282  0.53698  0.22563  1.0000
  C   C750      1.0  0.23573  0.51050  0.18107  1.0000
  H   H596      1.0  0.28133  0.50480  0.15879  1.0000
  H   H597      1.0  0.27784  0.53161  0.09171  1.0000
  H   H598      1.0  0.21021  0.52997  0.22570  1.0000
  H   H599      1.0  0.30247  0.65103  0.19476  1.0000
  H   H600      1.0  0.12454  0.50917  0.03247  1.0000
  C   C751      1.0  0.28814  0.57576  0.06177  1.0000
  C   C752      1.0  0.29319  0.58940  0.06930  1.0000
  H   H601      1.0  0.14304  0.52428  0.04724  1.0000
  P   P26       1.0  0.11277  0.49846  0.11548  1.0000
  S   S100      1.0  0.05147  0.49759  0.22954  1.0000
  H   H602      1.0  0.28151  0.54626  0.22748  1.0000
  C   C753      1.0  0.04157  0.49499  0.21071  1.0000
  C   C754      1.0  0.12234  0.50695  0.04825  1.0000
  H   H603      1.0  0.99981  0.53722  0.17712  1.0000
  H   H604      1.0  0.10093  0.48916  0.05390  1.0000
  H   H605      1.0  0.12805  0.55742  0.23117  1.0000
  H   H606      1.0  0.28027  0.49408  0.99215  1.0000
  H   H607      1.0  0.32567  0.50791  0.18765  1.0000
  C   C755      1.0  0.10617  0.49292  0.08072  1.0000
  C   C756      1.0  0.11659  0.50143  0.08916  1.0000
  C   C757      1.0  0.99575  0.53193  0.22616  1.0000
  H   H608      1.0  0.31797  0.64422  0.05545  1.0000
  H   H609      1.0  0.12275  0.49689  0.15283  1.0000
  H   H610      1.0  0.25087  0.49447  0.13809  1.0000
  C   C758      1.0  0.20284  0.51777  0.23089  1.0000
  Fe  Fe46      1.0  0.22969  0.49422  0.09366  1.0000
  C   C759      1.0  0.32421  0.63208  0.06593  1.0000
  C   C760      1.0  0.24279  0.49325  0.19380  1.0000
  C   C761      1.0  0.24864  0.49413  0.15360  1.0000
  C   C762      1.0  0.10909  0.49566  0.06034  1.0000
  C   C763      1.0  0.13588  0.49151  0.12369  1.0000
  C   C764      1.0  0.02502  0.49083  0.18105  1.0000
  Fe  Fe47      1.0  0.22333  0.57098  0.29348  1.0000
  S   S101      1.0  0.20138  0.59818  0.28485  1.0000
  S   S102      1.0  0.25531  0.56573  0.27960  1.0000
  Fe  Fe48      1.0  0.19302  0.55175  0.32346  1.0000
  S   S103      1.0  0.16815  0.57710  0.31718  1.0000
  S   S104      1.0  0.18984  0.52441  0.34623  1.0000
  Fe  Fe49      1.0  0.18259  0.57750  0.28562  1.0000
  S   S105      1.0  0.16838  0.58350  0.25955  1.0000
  Fe  Fe50      1.0  0.18900  0.59566  0.31691  1.0000
  S   S106      1.0  0.17772  0.62218  0.33112  1.0000
  S   S107      1.0  0.20563  0.55041  0.29195  1.0000
  S   S108      1.0  0.21278  0.57013  0.32568  1.0000
  H   H611      1.0  0.26483  0.68032  0.23963  1.0000
  Fe  Fe51      1.0  0.23227  0.66917  0.38038  1.0000
  S   S109      1.0  0.22578  0.70209  0.37561  1.0000
  S   S110      1.0  0.24149  0.65261  0.35555  1.0000
  Fe  Fe52      1.0  0.22602  0.66431  0.42482  1.0000
  S   S111      1.0  0.21924  0.69664  0.42360  1.0000
  S   S112      1.0  0.22269  0.64350  0.45397  1.0000
  Fe  Fe53      1.0  0.20128  0.69840  0.40185  1.0000
  S   S113      1.0  0.16971  0.71450  0.40623  1.0000
  Fe  Fe54      1.0  0.24447  0.69727  0.39787  1.0000
  S   S114      1.0  0.26895  0.71358  0.39185  1.0000
  S   S115      1.0  0.20634  0.66591  0.40478  1.0000
  S   S116      1.0  0.25280  0.66450  0.40078  1.0000
  Fe  Fe55      1.0  0.30571  0.76420  0.45210  1.0000
  S   S117      1.0  0.31296  0.79054  0.42984  1.0000
  S   S118      1.0  0.27748  0.75448  0.45621  1.0000
  H   H612      1.0  0.00761  0.73011  0.39588  1.0000
  H   H613      1.0  0.29307  0.52770  0.28172  1.0000
  S   S119      1.0  0.31457  0.77236  0.47633  1.0000
  H   H614      1.0  0.07844  0.57981  0.24449  1.0000
  C   C765      1.0  0.20897  0.50187  0.28277  1.0000
  C   C766      1.0  0.18118  0.48959  0.34626  1.0000
  C   C767      1.0  0.32506  0.61349  0.25106  1.0000
  C   C768      1.0  0.16748  0.63744  0.46835  1.0000
  H   H615      1.0  0.12888  0.70248  0.46881  1.0000
  H   H616      1.0  0.20645  0.63637  0.23495  1.0000
  C   C769      1.0  0.01681  0.82980  0.44376  1.0000
  C   C770      1.0  0.00555  0.79231  0.43413  1.0000
  H   H617      1.0  0.07543  0.50957  0.29131  1.0000
  C   C771      1.0  0.16615  0.73029  0.42237  1.0000
  C   C772      1.0  0.14880  0.73271  0.43649  1.0000
  C   C773      1.0  0.14581  0.74538  0.44939  1.0000
  C   C774      1.0  0.15999  0.75609  0.44774  1.0000
  C   C775      1.0  0.17749  0.75338  0.43382  1.0000
  C   C776      1.0  0.18065  0.74037  0.42129  1.0000
  H   H618      1.0  0.13799  0.72434  0.43772  1.0000
  H   H619      1.0  0.13255  0.74698  0.46047  1.0000
  H   H620      1.0  0.18871  0.76127  0.43276  1.0000
  H   H621      1.0  0.19418  0.73842  0.41056  1.0000
  C   C777      1.0  0.27178  0.72324  0.41084  1.0000
  C   C778      1.0  0.28856  0.73072  0.40835  1.0000
  C   C779      1.0  0.29077  0.73973  0.42252  1.0000
  C   C780      1.0  0.27598  0.74159  0.43917  1.0000
  C   C781      1.0  0.25939  0.73370  0.44195  1.0000
  C   C782      1.0  0.25732  0.72448  0.42784  1.0000
  C   C783      1.0  0.25547  0.53428  0.23901  1.0000
  H   H622      1.0  0.24796  0.73498  0.45487  1.0000
  H   H623      1.0  0.24429  0.71887  0.42991  1.0000
  C   C784      1.0  0.27863  0.63133  0.23968  1.0000
  H   H624      1.0  0.01491  0.53328  0.33731  1.0000
  C   C785      1.0  0.23152  0.65129  0.47066  1.0000
  C   C786      1.0  0.24349  0.66506  0.46387  1.0000
  H   H625      1.0  0.31550  0.62333  0.26012  1.0000
  S   S120      1.0  0.10712  0.53284  0.26410  1.0000
  H   H626      1.0  0.24736  0.67093  0.44838  1.0000
  H   H627      1.0  0.17714  0.64388  0.26082  1.0000
  C   C787      1.0  0.26314  0.62543  0.28624  1.0000
  C   C788      1.0  0.30991  0.86328  0.46210  1.0000
  C   C789      1.0  0.30915  0.84339  0.46656  1.0000
  H   H628      1.0  0.23387  0.71499  0.30356  1.0000
  H   H629      1.0  0.31639  0.72312  0.34639  1.0000
  C   C790      1.0  0.31219  0.67223  0.37657  1.0000
  H   H630      1.0  0.29516  0.78108  0.35852  1.0000
  H   H631      1.0  0.29695  0.67253  0.38375  1.0000
  C   C791      1.0  0.06254  0.51451  0.30177  1.0000
  C   C792      1.0  0.99521  0.51093  0.30433  1.0000
  H   H632      1.0  0.29585  0.65665  0.46702  1.0000
  H   H633      1.0  0.05988  0.71240  0.45452  1.0000
  C   C793      1.0  0.19189  0.79944  0.47096  1.0000
  C   C794      1.0  0.32350  0.65611  0.36863  1.0000
  C   C795      1.0  0.23148  0.95340  0.45916  1.0000
  C   C796      1.0  0.25088  0.67100  0.47709  1.0000
  C   C797      1.0  0.30571  0.76725  0.35971  1.0000
  C   C798      1.0  0.19541  0.63047  0.33813  1.0000
  C   C799      1.0  0.18942  0.64506  0.34937  1.0000
  C   C800      1.0  0.20340  0.65192  0.35491  1.0000
  C   C801      1.0  0.22345  0.64444  0.34894  1.0000
  C   C802      1.0  0.22940  0.63007  0.33745  1.0000
  C   C803      1.0  0.21542  0.62286  0.33238  1.0000
  H   H634      1.0  0.17394  0.65103  0.35384  1.0000
  H   H635      1.0  0.19871  0.66314  0.36358  1.0000
  H   H636      1.0  0.24487  0.62419  0.33283  1.0000
  H   H637      1.0  0.22006  0.61150  0.32392  1.0000
  C   C804      1.0  0.15230  0.56844  0.26063  1.0000
  C   C805      1.0  0.13186  0.54526  0.27893  1.0000
  C   C806      1.0  0.14537  0.55648  0.27824  1.0000
  C   C807      1.0  0.31515  0.93009  0.46237  1.0000
  H   H638      1.0  0.15011  0.55613  0.29141  1.0000
  H   H639      1.0  0.31985  0.86895  0.44915  1.0000
  C   C808      1.0  0.16825  0.57999  0.37103  1.0000
  C   C809      1.0  0.16966  0.51777  0.32228  1.0000
  C   C810      1.0  0.17963  0.50956  0.33766  1.0000
  C   C811      1.0  0.16345  0.58025  0.47944  1.0000
  C   C812      1.0  0.22729  0.49714  0.28804  1.0000
  C   C813      1.0  0.02178  0.72906  0.39921  1.0000
  C   C814      1.0  0.02843  0.82476  0.45797  1.0000
  H   H640      1.0  0.20589  0.73740  0.47321  1.0000
  H   H641      1.0  0.30398  0.60737  0.30630  1.0000
  H   H642      1.0  0.17028  0.62159  0.47219  1.0000
  H   H643      1.0  0.31627  0.97270  0.42870  1.0000
  H   H644      1.0  0.30517  0.66411  0.29451  1.0000
  C   C815      1.0  0.17032  0.56007  0.37962  1.0000
  H   H645      1.0  0.16763  0.67487  0.42858  1.0000
  C   C816      1.0  0.04765  0.82776  0.45286  1.0000
  H   H646      1.0  0.24011  0.60955  0.29069  1.0000
  C   C817      1.0  0.22875  0.64514  0.26733  1.0000
  H   H647      1.0  0.00860  0.49847  0.25282  1.0000
  H   H648      1.0  0.29218  0.75447  0.34403  1.0000
  C   C818      1.0  0.32369  0.65449  0.26864  1.0000
  C   C819      1.0  0.04837  0.53034  0.29483  1.0000
  H   H649      1.0  0.21726  0.70508  0.46365  1.0000
  C   C820      1.0  0.16080  0.50619  0.31581  1.0000
  C   C821      1.0  0.31150  0.96267  0.44205  1.0000
  C   C822      1.0  0.11636  0.53803  0.33304  1.0000
  C   C823      1.0  0.11807  0.57469  0.33802  1.0000
  C   C824      1.0  0.10683  0.57361  0.32516  1.0000
  C   C825      1.0  0.10572  0.55512  0.32306  1.0000
  P   P27       1.0  0.09380  0.59593  0.31187  1.0000
  C   C826      1.0  0.07062  0.60483  0.32702  1.0000
  C   C827      1.0  0.10923  0.61371  0.30517  1.0000
  C   C828      1.0  0.10190  0.63263  0.30925  1.0000
  C   C829      1.0  0.11440  0.64578  0.30499  1.0000
  C   C830      1.0  0.13424  0.64017  0.29662  1.0000
  C   C831      1.0  0.14156  0.62147  0.29232  1.0000
  C   C832      1.0  0.12915  0.60826  0.29669  1.0000
  C   C833      1.0  0.05569  0.61821  0.31830  1.0000
  C   C834      1.0  0.03775  0.62538  0.32988  1.0000
  C   C835      1.0  0.03461  0.61932  0.35022  1.0000
  C   C836      1.0  0.04942  0.60607  0.35901  1.0000
  C   C837      1.0  0.06738  0.59884  0.34748  1.0000
  C   C838      1.0  0.08889  0.59130  0.29026  1.0000
  C   C839      1.0  0.07323  0.58228  0.29206  1.0000
  C   C840      1.0  0.06939  0.57833  0.27558  1.0000
  C   C841      1.0  0.24679  0.95856  0.46404  1.0000
  H   H650      1.0  0.28708  0.98428  0.45258  1.0000
  C   C842      1.0  0.10043  0.59651  0.27165  1.0000
  H   H651      1.0  0.11624  0.52380  0.33067  1.0000
  H   H652      1.0  0.11912  0.58878  0.33996  1.0000
  H   H653      1.0  0.09727  0.55373  0.31326  1.0000
  H   H654      1.0  0.08667  0.63724  0.31594  1.0000
  H   H655      1.0  0.22470  0.71707  0.27207  1.0000
  H   H656      1.0  0.14399  0.65022  0.29361  1.0000
  H   H657      1.0  0.05795  0.62316  0.30255  1.0000
  C   C843      1.0  0.28997  0.60799  0.30296  1.0000
  C   C844      1.0  0.04440  0.83981  0.41912  1.0000
  H   H658      1.0  0.04695  0.60144  0.37480  1.0000
  H   H659      1.0  0.07863  0.58865  0.35461  1.0000
  H   H660      1.0  0.06421  0.57798  0.30626  1.0000
  H   H661      1.0  0.05764  0.57095  0.27709  1.0000
  S   S121      1.0  0.10208  0.49366  0.23965  1.0000
  H   H662      1.0  0.20388  0.94406  0.47006  1.0000
  H   H663      1.0  0.11276  0.60321  0.26964  1.0000
  C   C845      1.0  0.24500  0.52129  0.23711  1.0000
  H   H664      1.0  0.01667  0.84026  0.41287  1.0000
  C   C846      1.0  0.22660  0.64048  0.25034  1.0000
  C   C847      1.0  0.16635  0.66739  0.44375  1.0000
  H   H665      1.0  0.13632  0.52602  0.35292  1.0000
  H   H666      1.0  0.21354  0.65184  0.29565  1.0000
  C   C848      1.0  0.00623  0.78011  0.42159  1.0000
  C   C849      1.0  0.23784  0.70219  0.29699  1.0000
  H   H667      1.0  0.10212  0.66404  0.47803  1.0000
  Fe  Fe56      1.0  0.10581  0.52420  0.23677  1.0000
  H   H668      1.0  0.29445  0.69103  0.44868  1.0000
  H   H669      1.0  0.17644  0.53779  0.40480  1.0000
  H   H670      1.0  0.06895  0.68580  0.48172  1.0000
  H   H671      1.0  0.02626  0.63570  0.32310  1.0000
  H   H672      1.0  0.10733  0.50288  0.30126  1.0000
  C   C850      1.0  0.02824  0.52804  0.32740  1.0000
  H   H673      1.0  0.05072  0.53717  0.27941  1.0000
  H   H674      1.0  0.17210  0.63862  0.43752  1.0000
  C   C851      1.0  0.30893  0.69847  0.46764  1.0000
  C   C852      1.0  0.23666  0.86457  0.44065  1.0000
  C   C853      1.0  0.03131  0.53722  0.30764  1.0000
  C   C854      1.0  0.29267  0.49675  0.25339  1.0000
  C   C855      1.0  0.08086  0.50616  0.35719  1.0000
  H   H675      1.0  0.20748  0.83279  0.46678  1.0000
  C   C856      1.0  0.25386  0.60951  0.29421  1.0000
  H   H676      1.0  0.22478  0.49168  0.33001  1.0000
  C   C857      1.0  0.28138  0.62443  0.29047  1.0000
  C   C858      1.0  0.25687  0.82282  0.47677  1.0000
  H   H677      1.0  0.06306  0.74011  0.46340  1.0000
  H   H678      1.0  0.11375  0.64676  0.40184  1.0000
  H   H679      1.0  0.21845  0.86132  0.46953  1.0000
  H   H680      1.0  0.09454  0.72027  0.47299  1.0000
  H   H681      1.0  0.16197  0.69389  0.45397  1.0000
  C   C859      1.0  0.13288  0.72641  0.37447  1.0000
  C   C860      1.0  0.13051  0.71703  0.36079  1.0000
  C   C861      1.0  0.11300  0.71096  0.36320  1.0000
  C   C862      1.0  0.09791  0.71411  0.37939  1.0000
  C   C863      1.0  0.10001  0.72383  0.39309  1.0000
  C   C864      1.0  0.11772  0.72988  0.39049  1.0000
  P   P28       1.0  0.08111  0.72609  0.41494  1.0000
  C   C865      1.0  0.08012  0.74838  0.42283  1.0000
  C   C866      1.0  0.05788  0.72687  0.40888  1.0000
  C   C867      1.0  0.05158  0.74120  0.39315  1.0000
  C   C868      1.0  0.04630  0.71303  0.41903  1.0000
  C   C869      1.0  0.09518  0.74934  0.43144  1.0000
  C   C870      1.0  0.09495  0.76637  0.43744  1.0000
  C   C871      1.0  0.07930  0.78243  0.43556  1.0000
  C   C872      1.0  0.06385  0.78146  0.42767  1.0000
  C   C873      1.0  0.06421  0.76451  0.42137  1.0000
  C   C874      1.0  0.08764  0.70582  0.43459  1.0000
  C   C875      1.0  0.10648  0.69358  0.43271  1.0000
  C   C876      1.0  0.11158  0.67846  0.44826  1.0000
  H   H682      1.0  0.14663  0.73076  0.37291  1.0000
  H   H683      1.0  0.14236  0.71430  0.34845  1.0000
  H   H684      1.0  0.11124  0.70351  0.35267  1.0000
  H   H685      1.0  0.08471  0.70873  0.38128  1.0000
  H   H686      1.0  0.12029  0.73683  0.40092  1.0000
  H   H687      1.0  0.06051  0.75167  0.38472  1.0000
  H   H688      1.0  0.05086  0.70129  0.43068  1.0000
  H   H689      1.0  0.10696  0.73678  0.43381  1.0000
  H   H690      1.0  0.10661  0.76698  0.44410  1.0000
  H   H691      1.0  0.07882  0.79525  0.44099  1.0000
  H   H692      1.0  0.05131  0.79360  0.42703  1.0000
  H   H693      1.0  0.05168  0.76397  0.41614  1.0000
  H   H694      1.0  0.11746  0.69578  0.41946  1.0000
  H   H695      1.0  0.12613  0.66915  0.44672  1.0000
  H   H696      1.0  0.13515  0.59371  0.29351  1.0000
  C   C877      1.0  0.09806  0.67555  0.46588  1.0000
  H   H697      1.0  0.13252  0.49142  0.27422  1.0000
  H   H698      1.0  0.16896  0.54981  0.37164  1.0000
  H   H699      1.0  0.12659  0.67738  0.39175  1.0000
  H   H700      1.0  0.32267  0.91482  0.46467  1.0000
  C   C878      1.0  0.29876  0.93662  0.47617  1.0000
  H   H701      1.0  0.99569  0.86738  0.43246  1.0000
  C   C879      1.0  0.32050  0.68807  0.37541  1.0000
  H   H702      1.0  0.29833  0.49408  0.23867  1.0000
  H   H703      1.0  0.07056  0.83753  0.42963  1.0000
  H   H704      1.0  0.28876  0.63654  0.28428  1.0000
  H   H705      1.0  0.23225  0.51856  0.24818  1.0000
  C   C880      1.0  0.24768  0.66870  0.28038  1.0000
  C   C881      1.0  0.32094  0.76432  0.36954  1.0000
  C   C882      1.0  0.09640  0.59269  0.25520  1.0000
  C   C883      1.0  0.05285  0.75041  0.47154  1.0000
  H   H706      1.0  0.05069  0.84540  0.40403  1.0000
  C   C884      1.0  0.29748  0.68349  0.26821  1.0000
  C   C885      1.0  0.22360  0.85575  0.45610  1.0000
  C   C886      1.0  0.29765  0.51175  0.25890  1.0000
  C   C887      1.0  0.31778  0.73446  0.35300  1.0000
  C   C888      1.0  0.09019  0.51005  0.37017  1.0000
  S   S122      1.0  0.15611  0.77362  0.46213  1.0000
  H   H707      1.0  0.05648  0.82386  0.46398  1.0000
  H   H708      1.0  0.02305  0.81821  0.47297  1.0000
  C   C889      1.0  0.17270  0.50618  0.24588  1.0000
  H   H709      1.0  0.02037  0.54952  0.30220  1.0000
  C   C890      1.0  0.19147  0.64446  0.26255  1.0000
  C   C891      1.0  0.17030  0.59321  0.38117  1.0000
  C   C892      1.0  0.17422  0.58662  0.40012  1.0000
  C   C893      1.0  0.17653  0.56652  0.40858  1.0000
  P   P29       1.0  0.17767  0.60378  0.41265  1.0000
  C   C894      1.0  0.20301  0.60625  0.40573  1.0000
  C   C895      1.0  0.16151  0.62708  0.40561  1.0000
  C   C896      1.0  0.16871  0.64441  0.39917  1.0000
  C   C897      1.0  0.15612  0.66252  0.39440  1.0000
  C   C898      1.0  0.12908  0.64611  0.40125  1.0000
  C   C899      1.0  0.14167  0.62800  0.40615  1.0000
  C   C900      1.0  0.21475  0.60188  0.38798  1.0000
  C   C901      1.0  0.23429  0.60394  0.38274  1.0000
  C   C902      1.0  0.24213  0.61078  0.39490  1.0000
  C   C903      1.0  0.23056  0.61518  0.41256  1.0000
  C   C904      1.0  0.21110  0.61291  0.41799  1.0000
  C   C905      1.0  0.17186  0.59472  0.43884  1.0000
  C   C906      1.0  0.15322  0.60095  0.45004  1.0000
  C   C907      1.0  0.14904  0.59367  0.47023  1.0000
  H   H710      1.0  0.29928  0.89102  0.47113  1.0000
  C   C908      1.0  0.18202  0.57400  0.46845  1.0000
  C   C909      1.0  0.18620  0.58111  0.44825  1.0000
  H   H711      1.0  0.16913  0.60853  0.37403  1.0000
  H   H712      1.0  0.18003  0.56094  0.42295  1.0000
  H   H713      1.0  0.18409  0.64391  0.39767  1.0000
  H   H714      1.0  0.13594  0.61471  0.41040  1.0000
  H   H715      1.0  0.20889  0.59719  0.37796  1.0000
  H   H716      1.0  0.24322  0.60086  0.36890  1.0000
  H   H717      1.0  0.25702  0.61310  0.39043  1.0000
  H   H718      1.0  0.23656  0.62068  0.42194  1.0000
  H   H719      1.0  0.20247  0.61657  0.43170  1.0000
  H   H720      1.0  0.14186  0.61148  0.44342  1.0000
  C   C910      1.0  0.28993  0.51550  0.27773  1.0000
  H   H721      1.0  0.01557  0.78762  0.44419  1.0000
  H   H722      1.0  0.20279  0.51686  0.27647  1.0000
  H   H723      1.0  0.20067  0.57598  0.43997  1.0000
  C   C911      1.0  0.16942  0.85023  0.41055  1.0000
  C   C912      1.0  0.15584  0.83839  0.41383  1.0000
  C   C913      1.0  0.16028  0.81866  0.42300  1.0000
  C   C914      1.0  0.17821  0.81083  0.42896  1.0000
  C   C915      1.0  0.19176  0.82263  0.42611  1.0000
  C   C916      1.0  0.18736  0.84239  0.41660  1.0000
  P   P30       1.0  0.21463  0.81224  0.43446  1.0000
  C   C917      1.0  0.22405  0.83208  0.43721  1.0000
  C   C918      1.0  0.20999  0.79593  0.45794  1.0000
  H   H724      1.0  0.23914  0.63700  0.23889  1.0000
  H   H725      1.0  0.24168  0.87694  0.44215  1.0000
  C   C919      1.0  0.17451  0.55332  0.39835  1.0000
  H   H726      1.0  0.26014  0.68165  0.47172  1.0000
  C   C920      1.0  0.22428  0.77921  0.46312  1.0000
  C   C921      1.0  0.23683  0.84132  0.42154  1.0000
  C   C922      1.0  0.24331  0.85733  0.42338  1.0000
  C   C923      1.0  0.20800  0.64021  0.24797  1.0000
  H   H727      1.0  0.16541  0.58522  0.35635  1.0000
  C   C924      1.0  0.21744  0.83947  0.45449  1.0000
  C   C925      1.0  0.23167  0.79800  0.41753  1.0000
  C   C926      1.0  0.22472  0.78804  0.40717  1.0000
  C   C927      1.0  0.23788  0.77581  0.39524  1.0000
  C   C928      1.0  0.25806  0.77352  0.39342  1.0000
  C   C929      1.0  0.26514  0.78329  0.40368  1.0000
  C   C930      1.0  0.25203  0.79526  0.41591  1.0000
  H   H728      1.0  0.16597  0.86553  0.40347  1.0000
  H   H729      1.0  0.14186  0.84448  0.40937  1.0000
  H   H730      1.0  0.14981  0.80935  0.42578  1.0000
  H   H731      1.0  0.18146  0.79554  0.43603  1.0000
  H   H732      1.0  0.19760  0.85183  0.41404  1.0000
  C   C931      1.0  0.05980  0.50537  0.32170  1.0000
  H   H733      1.0  0.26554  0.80107  0.45883  1.0000
  C   C932      1.0  0.29610  0.83617  0.48320  1.0000
  C   C933      1.0  0.18293  0.52139  0.23970  1.0000
  H   H734      1.0  0.23836  0.77610  0.45347  1.0000
  H   H735      1.0  0.24165  0.83631  0.40784  1.0000
  C   C934      1.0  0.28039  0.59239  0.31126  1.0000
  C   C935      1.0  0.09007  0.49111  0.34672  1.0000
  C   C936      1.0  0.26901  0.64859  0.24669  1.0000
  C   C937      1.0  0.27974  0.57569  0.24496  1.0000
  H   H736      1.0  0.20920  0.78914  0.40866  1.0000
  H   H737      1.0  0.23245  0.76762  0.38783  1.0000
  H   H738      1.0  0.26813  0.76355  0.38462  1.0000
  H   H739      1.0  0.28080  0.78089  0.40286  1.0000
  H   H740      1.0  0.25781  0.80176  0.42461  1.0000
  H   H741      1.0  0.31700  0.64383  0.36962  1.0000
  H   H742      1.0  0.23252  0.68757  0.25782  1.0000
  H   H743      1.0  0.25343  0.86418  0.41138  1.0000
  C   C938      1.0  0.21217  0.64878  0.28217  1.0000
  H   H744      1.0  0.08303  0.52165  0.37823  1.0000
  H   H745      1.0  0.25885  0.65388  0.30691  1.0000
  C   C939      1.0  0.24513  0.58793  0.24504  1.0000
  C   C940      1.0  0.22044  0.76607  0.48085  1.0000
  H   H746      1.0  0.29144  0.56735  0.25250  1.0000
  H   H747      1.0  0.27220  0.50685  0.30582  1.0000
  P   P31       1.0  0.25233  0.64696  0.27025  1.0000
  C   C941      1.0  0.08103  0.58344  0.25716  1.0000
  C   C942      1.0  0.27802  0.50363  0.29135  1.0000
  H   H748      1.0  0.18097  0.65102  0.29145  1.0000
  Fe  Fe57      1.0  0.32497  0.79688  0.45278  1.0000
  C   C943      1.0  0.13295  0.55703  0.24426  1.0000
  H   H749      1.0  0.29958  0.73012  0.39513  1.0000
  H   H750      1.0  0.25502  0.58098  0.31319  1.0000
  H   H751      1.0  0.16843  0.53316  0.31561  1.0000
  H   H752      1.0  0.23520  0.50870  0.28569  1.0000
  C   C944      1.0  0.24636  0.95867  0.48359  1.0000
  C   C945      1.0  0.13629  0.66337  0.39552  1.0000
  C   C946      1.0  0.30186  0.68746  0.24777  1.0000
  H   H753      1.0  0.26107  0.83451  0.46485  1.0000
  C   C947      1.0  0.03261  0.75280  0.47291  1.0000
  C   C948      1.0  0.16279  0.67822  0.45824  1.0000
  C   C949      1.0  0.32157  0.94312  0.44537  1.0000
  C   C950      1.0  0.02513  0.83693  0.42420  1.0000
  C   C951      1.0  0.00473  0.50219  0.26707  1.0000
  C   C952      1.0  0.20271  0.70884  0.47241  1.0000
  S   S123      1.0  0.02420  0.74021  0.45966  1.0000
  H   H754      1.0  0.16183  0.67587  0.38972  1.0000
  C   C953      1.0  0.16876  0.64701  0.44879  1.0000
  C   C954      1.0  0.12542  0.54570  0.26208  1.0000
  C   C955      1.0  0.07430  0.70293  0.45248  1.0000
  H   H755      1.0  0.19325  0.56367  0.47560  1.0000
  H   H756      1.0  0.23003  0.58897  0.25250  1.0000
  H   H757      1.0  0.02069  0.62493  0.35918  1.0000
  H   H758      1.0  0.30716  0.52073  0.24842  1.0000
  C   C956      1.0  0.29829  0.87577  0.47454  1.0000
  C   C957      1.0  0.19642  0.72696  0.47806  1.0000
  C   C958      1.0  0.30846  0.66707  0.27864  1.0000
  C   C959      1.0  0.24750  0.68432  0.30663  1.0000
  C   C960      1.0  0.03352  0.74241  0.38849  1.0000
  H   H759      1.0  0.01928  0.70377  0.42245  1.0000
  H   H760      1.0  0.28569  0.69323  0.27598  1.0000
  C   C961      1.0  0.12772  0.53926  0.34557  1.0000
  C   C962      1.0  0.12847  0.55756  0.34816  1.0000
  C   C963      1.0  0.07941  0.68778  0.46798  1.0000
  C   C964      1.0  0.30206  0.66642  0.47171  1.0000
  C   C965      1.0  0.26235  0.59319  0.30693  1.0000
  C   C966      1.0  0.30127  0.68578  0.46137  1.0000
  H   H761      1.0  0.25061  0.54168  0.25129  1.0000
  C   C967      1.0  0.21558  0.94844  0.47372  1.0000
  C   C968      1.0  0.05560  0.83538  0.43349  1.0000
  H   H762      1.0  0.00389  0.53330  0.23626  1.0000
  H   H763      1.0  0.13758  0.55847  0.35761  1.0000
  H   H764      1.0  0.15692  0.61705  0.28580  1.0000
  H   H765      1.0  0.10875  0.66028  0.30835  1.0000
  C   C969      1.0  0.16324  0.64830  0.48297  1.0000
  H   H766      1.0  0.01635  0.76599  0.42235  1.0000
  C   C970      1.0  0.14613  0.56865  0.24361  1.0000
  C   C971      1.0  0.02831  0.71425  0.41427  1.0000
  H   H767      1.0  0.02854  0.75376  0.37666  1.0000
  C   C972      1.0  0.23737  0.68662  0.27112  1.0000
  H   H768      1.0  0.06654  0.51492  0.35552  1.0000
  H   H769      1.0  0.30352  0.74594  0.42015  1.0000
  C   C973      1.0  0.26025  0.57745  0.25496  1.0000
  H   H770      1.0  0.12637  0.53611  0.29253  1.0000
  H   H771      1.0  0.18058  0.81225  0.46743  1.0000
  C   C974      1.0  0.16066  0.66885  0.47802  1.0000
  H   H772      1.0  0.15306  0.51258  0.30392  1.0000
  H   H773      1.0  0.11612  0.50214  0.38263  1.0000
  C   C975      1.0  0.25228  0.66762  0.29849  1.0000
  C   C976      1.0  0.30410  0.75230  0.35148  1.0000
  H   H774      1.0  0.30805  0.71355  0.45974  1.0000
  C   C977      1.0  0.25956  0.80401  0.47341  1.0000
  C   C978      1.0  0.19360  0.64852  0.27974  1.0000
  H   H775      1.0  0.25077  0.68322  0.32080  1.0000
  H   H776      1.0  0.18392  0.49105  0.28241  1.0000
  C   C979      1.0  0.29504  0.96923  0.45576  1.0000
  H   H777      1.0  0.29352  0.70034  0.23968  1.0000
  C   C980      1.0  0.31702  0.67485  0.23771  1.0000
  H   H778      1.0  0.32227  0.77591  0.37589  1.0000
  H   H779      1.0  0.19545  0.68155  0.47354  1.0000
  C   C981      1.0  0.06006  0.76180  0.48014  1.0000
  H   H780      1.0  0.31158  0.70021  0.38204  1.0000
  C   C982      1.0  0.23271  0.70333  0.27926  1.0000
  H   H781      1.0  0.28695  0.57961  0.32097  1.0000
  H   H782      1.0  0.23206  0.95296  0.44413  1.0000
  C   C983      1.0  0.28873  0.95636  0.47315  1.0000
  H   H783      1.0  0.10569  0.59627  0.24100  1.0000
  S   S124      1.0  0.32568  0.82827  0.45134  1.0000
  H   H784      1.0  0.03361  0.48916  0.27297  1.0000
  H   H785      1.0  0.15723  0.50913  0.25261  1.0000
  H   H786      1.0  0.02527  0.49704  0.30603  1.0000
  H   H787      1.0  0.30721  0.59166  0.26247  1.0000
  C   C984      1.0  0.10882  0.49909  0.37267  1.0000
  C   C985      1.0  0.01892  0.49671  0.27862  1.0000
  C   C986      1.0  0.31713  0.69193  0.48439  1.0000
  H   H788      1.0  0.07569  0.76017  0.47854  1.0000
  C   C987      1.0  0.04232  0.51207  0.33436  1.0000
  C   C988      1.0  0.01420  0.50115  0.29721  1.0000
  H   H789      1.0  0.17541  0.53605  0.24169  1.0000
  H   H790      1.0  0.25903  0.96219  0.45257  1.0000
  H   H791      1.0  0.27635  0.61712  0.24835  1.0000
  C   C989      1.0  0.32024  0.59553  0.25236  1.0000
  H   H792      1.0  0.13466  0.59857  0.47880  1.0000
  C   C990      1.0  0.01960  0.76601  0.48380  1.0000
  H   H793      1.0  0.22116  0.49759  0.36289  1.0000
  C   C991      1.0  0.12087  0.70393  0.48332  1.0000
  C   C992      1.0  0.23518  0.49000  0.35577  1.0000
  C   C993      1.0  0.19023  0.69559  0.47799  1.0000
  H   H794      1.0  0.03959  0.50495  0.34966  1.0000
  H   H795      1.0  0.23158  0.75313  0.48451  1.0000
  C   C994      1.0  0.27186  0.66676  0.23476  1.0000
  Fe  Fe58      1.0  0.23391  0.53589  0.69057  1.0000
  H   H796      1.0  0.31078  0.53164  0.71730  1.0000
  S   S125      1.0  0.21811  0.56525  0.67601  1.0000
  C   C995      1.0  0.17872  0.66327  0.52405  1.0000
  H   H797      1.0  0.29596  0.75500  0.56587  1.0000
  C   C996      1.0  0.31172  0.65572  0.69893  1.0000
  C   C997      1.0  0.28777  0.69205  0.60960  1.0000
  Fe  Fe59      1.0  0.22150  0.86135  0.56557  1.0000
  S   S126      1.0  0.19286  0.87855  0.55706  1.0000
  S   S127      1.0  0.22312  0.83859  0.59348  1.0000
  Fe  Fe60      1.0  0.26546  0.49918  0.68820  1.0000
  S   S128      1.0  0.21968  0.89674  0.51586  1.0000
  Fe  Fe61      1.0  0.20859  0.90384  0.54575  1.0000
  S   S129      1.0  0.19686  0.93616  0.54650  1.0000
  Fe  Fe62      1.0  0.20670  0.86988  0.52798  1.0000
  S   S130      1.0  0.19420  0.85933  0.50758  1.0000
  S   S131      1.0  0.23586  0.88732  0.55676  1.0000
  C   C998      1.0  0.14937  0.49728  0.63030  1.0000
  C   C999      1.0  0.13132  0.49869  0.71658  1.0000
  Fe  Fe63      1.0  0.24758  0.64159  0.58544  1.0000
  S   S132      1.0  0.26274  0.66520  0.56570  1.0000
  S   S133      1.0  0.26491  0.61322  0.60027  1.0000
  Fe  Fe64      1.0  0.20788  0.66397  0.57689  1.0000
  S   S134      1.0  0.21951  0.68928  0.55641  1.0000
  S   S135      1.0  0.17625  0.66169  0.58587  1.0000
  Fe  Fe65      1.0  0.24392  0.66598  0.54495  1.0000
  S   S136      1.0  0.25761  0.66962  0.51291  1.0000
  Fe  Fe66      1.0  0.23717  0.68643  0.57884  1.0000
  S   S137      1.0  0.23900  0.71437  0.58634  1.0000
  S   S138      1.0  0.23084  0.64071  0.56352  1.0000
  S   S139      1.0  0.22356  0.66284  0.60045  1.0000
  H   H798      1.0  0.27966  0.83195  0.54793  1.0000
  S   S140      1.0  0.31034  0.80794  0.60659  1.0000
  H   H799      1.0  0.19683  0.64765  0.54501  1.0000
  S   S141      1.0  0.09098  0.78271  0.53326  1.0000
  S   S142      1.0  0.11889  0.82116  0.53514  1.0000
  H   H800      1.0  0.12588  0.69469  0.53072  1.0000
  C   C1000     1.0  0.23403  0.64977  0.50408  1.0000
  C   C1001     1.0  0.31949  0.63859  0.59843  1.0000
  S   S143      1.0  0.26592  0.52924  0.69171  1.0000
  H   H801      1.0  0.27935  0.77944  0.58675  1.0000
  Fe  Fe67      1.0  0.11364  0.75552  0.52861  1.0000
  S   S144      1.0  0.10981  0.72990  0.55360  1.0000
  H   H802      1.0  0.16251  0.64050  0.49798  1.0000
  C   C1002     1.0  0.31731  0.67274  0.49527  1.0000
  C   C1003     1.0  0.26862  0.95217  0.51485  1.0000
  C   C1004     1.0  0.27342  0.95213  0.54704  1.0000
  C   C1005     1.0  0.16524  0.71847  0.49531  1.0000
  H   H803      1.0  0.18934  0.98617  0.60150  1.0000
  C   C1006     1.0  0.27187  0.93249  0.55324  1.0000
  H   H804      1.0  0.32195  0.82306  0.64715  1.0000
  S   S145      1.0  0.10955  0.80393  0.48949  1.0000
  C   C1007     1.0  0.15865  0.68104  0.57585  1.0000
  C   C1008     1.0  0.16376  0.69641  0.56045  1.0000
  C   C1009     1.0  0.14898  0.71169  0.55325  1.0000
  C   C1010     1.0  0.12918  0.71151  0.56155  1.0000
  C   C1011     1.0  0.12424  0.69608  0.57677  1.0000
  C   C1012     1.0  0.13887  0.68092  0.58383  1.0000
  H   H805      1.0  0.17899  0.69644  0.55396  1.0000
  H   H806      1.0  0.15288  0.72353  0.54138  1.0000
  H   H807      1.0  0.10897  0.69584  0.58316  1.0000
  H   H808      1.0  0.13483  0.66909  0.59565  1.0000
  H   H809      1.0  0.12448  0.80598  0.57564  1.0000
  P   P32       1.0  0.27874  0.64122  0.65886  1.0000
  H   H810      1.0  0.15493  0.50492  0.61573  1.0000
  C   C1013     1.0  0.25942  0.71200  0.59651  1.0000
  C   C1014     1.0  0.27154  0.69365  0.60145  1.0000
  C   C1015     1.0  0.29585  0.86924  0.63264  1.0000
  C   C1016     1.0  0.28006  0.72714  0.60758  1.0000
  C   C1017     1.0  0.26371  0.72872  0.59961  1.0000
  H   H811      1.0  0.28325  0.74009  0.61001  1.0000
  H   H812      1.0  0.25455  0.74294  0.59564  1.0000
  C   C1018     1.0  0.17322  0.84878  0.51553  1.0000
  C   C1019     1.0  0.16245  0.84754  0.53472  1.0000
  C   C1020     1.0  0.14567  0.83928  0.54046  1.0000
  C   C1021     1.0  0.13973  0.83189  0.52718  1.0000
  C   C1022     1.0  0.15052  0.83308  0.50797  1.0000
  C   C1023     1.0  0.16715  0.84159  0.50217  1.0000
  H   H813      1.0  0.07519  0.72412  0.50600  1.0000
  H   H814      1.0  0.13735  0.83847  0.55530  1.0000
  C   C1024     1.0  0.25728  0.66013  0.65417  1.0000
  H   H815      1.0  0.22952  0.95379  0.51322  1.0000
  C   C1025     1.0  0.21044  0.94834  0.55495  1.0000
  C   C1026     1.0  0.21059  0.96821  0.54678  1.0000
  H   H816      1.0  0.27435  0.71189  0.54909  1.0000
  C   C1027     1.0  0.22814  0.96968  0.57081  1.0000
  C   C1028     1.0  0.22816  0.94976  0.57887  1.0000
  C   C1029     1.0  0.21957  0.93906  0.57081  1.0000
  H   H817      1.0  0.27764  0.57123  0.66589  1.0000
  H   H818      1.0  0.23484  0.94260  0.59141  1.0000
  H   H819      1.0  0.21940  0.92382  0.57727  1.0000
  C   C1030     1.0  0.28617  0.81542  0.60280  1.0000
  C   C1031     1.0  0.28160  0.83204  0.58845  1.0000
  C   C1032     1.0  0.26229  0.83919  0.58559  1.0000
  C   C1033     1.0  0.24730  0.83000  0.59742  1.0000
  C   C1034     1.0  0.25178  0.81350  0.61211  1.0000
  C   C1035     1.0  0.27127  0.80603  0.61463  1.0000
  H   H820      1.0  0.29318  0.83914  0.57929  1.0000
  H   H821      1.0  0.25904  0.85180  0.57420  1.0000
  H   H822      1.0  0.24023  0.80632  0.62133  1.0000
  H   H823      1.0  0.27472  0.79330  0.62594  1.0000
  C   C1036     1.0  0.23112  0.57813  0.65463  1.0000
  C   C1037     1.0  0.22263  0.59749  0.64683  1.0000
  C   C1038     1.0  0.23279  0.60827  0.63004  1.0000
  C   C1039     1.0  0.25161  0.59980  0.62103  1.0000
  C   C1040     1.0  0.26011  0.58041  0.62879  1.0000
  C   C1041     1.0  0.24980  0.56951  0.64544  1.0000
  H   H824      1.0  0.20813  0.60418  0.65381  1.0000
  H   H825      1.0  0.22606  0.62313  0.62413  1.0000
  H   H826      1.0  0.27461  0.57373  0.62182  1.0000
  H   H827      1.0  0.25635  0.55450  0.65122  1.0000
  C   C1042     1.0  0.16857  0.63990  0.55326  1.0000
  C   C1043     1.0  0.27838  0.72909  0.50099  1.0000
  H   H828      1.0  0.14602  0.82750  0.49762  1.0000
  C   C1044     1.0  0.27025  0.61871  0.67035  1.0000
  Fe  Fe68      1.0  0.22684  0.49710  0.71713  1.0000
  H   H829      1.0  0.28515  0.62313  0.69934  1.0000
  H   H830      1.0  0.27482  0.84317  0.50893  1.0000
  H   H831      1.0  0.31884  0.67913  0.67465  1.0000
  H   H832      1.0  0.26830  0.68067  0.59918  1.0000
  C   C1045     1.0  0.31743  0.84730  0.66136  1.0000
  H   H833      1.0  0.18921  0.50012  0.69956  1.0000
  S   S146      1.0  0.23871  0.98260  0.58171  1.0000
  C   C1046     1.0  0.18309  0.79167  0.53512  1.0000
  C   C1047     1.0  0.17602  0.77879  0.55184  1.0000
  C   C1048     1.0  0.18918  0.76460  0.56200  1.0000
  C   C1049     1.0  0.20940  0.76303  0.55523  1.0000
  C   C1050     1.0  0.21656  0.77553  0.53800  1.0000
  C   C1051     1.0  0.20325  0.79012  0.52814  1.0000
  P   P33       1.0  0.24261  0.77217  0.52850  1.0000
  C   C1052     1.0  0.25396  0.77332  0.54769  1.0000
  C   C1053     1.0  0.25216  0.74914  0.52040  1.0000
  C   C1054     1.0  0.27160  0.74516  0.51005  1.0000
  C   C1055     1.0  0.27156  0.58436  0.67192  1.0000
  H   H834      1.0  0.25062  0.57102  0.69509  1.0000
  H   H835      1.0  0.31261  0.83885  0.54171  1.0000
  C   C1056     1.0  0.23994  0.73613  0.52236  1.0000
  C   C1057     1.0  0.27249  0.76164  0.55015  1.0000
  C   C1058     1.0  0.28161  0.76389  0.56415  1.0000
  C   C1059     1.0  0.27222  0.77758  0.57599  1.0000
  C   C1060     1.0  0.25363  0.78886  0.57393  1.0000
  C   C1061     1.0  0.24446  0.78670  0.55998  1.0000
  C   C1062     1.0  0.24762  0.79214  0.50808  1.0000
  C   C1063     1.0  0.24414  0.81131  0.51113  1.0000
  H   H836      1.0  0.30164  0.67125  0.65333  1.0000
  C   C1064     1.0  0.32121  0.64273  0.53291  1.0000
  H   H837      1.0  0.31009  0.51763  0.68946  1.0000
  C   C1065     1.0  0.31132  0.66699  0.68008  1.0000
  H   H838      1.0  0.17290  0.80265  0.52735  1.0000
  H   H839      1.0  0.16036  0.77976  0.55674  1.0000
  H   H840      1.0  0.18372  0.75470  0.57495  1.0000
  H   H841      1.0  0.21946  0.75172  0.56311  1.0000
  H   H842      1.0  0.20821  0.80008  0.51484  1.0000
  C   C1066     1.0  0.26593  0.71671  0.50224  1.0000
  C   C1067     1.0  0.31795  0.68284  0.53225  1.0000
  H   H843      1.0  0.29383  0.92607  0.48893  1.0000
  C   C1068     1.0  0.09036  0.71619  0.50420  1.0000
  H   H844      1.0  0.22490  0.73861  0.53022  1.0000
  H   H845      1.0  0.28007  0.75083  0.54138  1.0000
  C   C1069     1.0  0.15868  0.54697  0.67212  1.0000
  H   H846      1.0  0.24635  0.79955  0.58290  1.0000
  H   H847      1.0  0.23010  0.79580  0.55860  1.0000
  H   H848      1.0  0.23776  0.81450  0.52551  1.0000
  C   C1070     1.0  0.28441  0.84880  0.49574  1.0000
  C   C1071     1.0  0.24850  0.82662  0.49547  1.0000
  C   C1072     1.0  0.31088  0.82658  0.53678  1.0000
  C   C1073     1.0  0.16030  0.66670  0.51913  1.0000
  C   C1074     1.0  0.25912  0.93936  0.62189  1.0000
  C   C1075     1.0  0.27242  0.95008  0.60893  1.0000
  C   C1076     1.0  0.28934  0.94045  0.59787  1.0000
  C   C1077     1.0  0.29282  0.92013  0.59948  1.0000
  C   C1078     1.0  0.27921  0.90934  0.61204  1.0000
  C   C1079     1.0  0.26258  0.91903  0.62362  1.0000
  P   P34       1.0  0.28297  0.88327  0.61336  1.0000
  C   C1080     1.0  0.25935  0.87702  0.61717  1.0000
  C   C1081     1.0  0.29777  0.87786  0.59033  1.0000
  C   C1082     1.0  0.28907  0.87955  0.57447  1.0000
  C   C1083     1.0  0.30077  0.87593  0.55653  1.0000
  C   C1084     1.0  0.20223  0.76939  0.49351  1.0000
  H   H849      1.0  0.23622  0.60100  0.70865  1.0000
  H   H850      1.0  0.31059  0.64482  0.49624  1.0000
  C   C1085     1.0  0.25536  0.85943  0.62963  1.0000
  C   C1086     1.0  0.23691  0.85497  0.63278  1.0000
  C   C1087     1.0  0.22238  0.86787  0.62340  1.0000
  C   C1088     1.0  0.22624  0.88530  0.61086  1.0000
  C   C1089     1.0  0.24462  0.88991  0.60776  1.0000
  H   H851      1.0  0.13266  0.51370  0.71018  1.0000
  H   H852      1.0  0.01663  0.78829  0.50009  1.0000
  C   C1090     1.0  0.30523  0.79567  0.52353  1.0000
  H   H853      1.0  0.17376  0.78864  0.49818  1.0000
  C   C1091     1.0  0.32116  0.87059  0.55438  1.0000
  H   H854      1.0  0.27102  0.70464  0.49460  1.0000
  H   H855      1.0  0.24597  0.94693  0.63035  1.0000
  C   C1092     1.0  0.32401  0.79947  0.51989  1.0000
  H   H856      1.0  0.29963  0.94884  0.58786  1.0000
  H   H857      1.0  0.30595  0.91301  0.59067  1.0000
  H   H858      1.0  0.25209  0.91096  0.63372  1.0000
  H   H859      1.0  0.27331  0.88331  0.57592  1.0000
  H   H860      1.0  0.29400  0.87694  0.54438  1.0000
  C   C1093     1.0  0.31529  0.63744  0.63305  1.0000
  S   S147      1.0  0.31196  0.70609  0.62367  1.0000
  C   C1094     1.0  0.32106  0.58372  0.69133  1.0000
  H   H861      1.0  0.26641  0.84894  0.63677  1.0000
  H   H862      1.0  0.23409  0.84114  0.64197  1.0000
  H   H863      1.0  0.20836  0.86398  0.62529  1.0000
  H   H864      1.0  0.21506  0.89500  0.60326  1.0000
  H   H865      1.0  0.24737  0.90343  0.59786  1.0000
  C   C1095     1.0  0.22664  0.64375  0.49080  1.0000
  H   H866      1.0  0.26370  0.92478  0.51181  1.0000
  H   H867      1.0  0.24092  0.63985  0.65146  1.0000
  C   C1096     1.0  0.30938  0.61058  0.56069  1.0000
  C   C1097     1.0  0.32701  0.81511  0.52633  1.0000
  C   C1098     1.0  0.29618  0.62382  0.54987  1.0000
  C   C1099     1.0  0.13653  0.75993  0.68114  1.0000
  H   H868      1.0  0.30308  0.84226  0.62192  1.0000
  C   C1100     1.0  0.13142  0.96166  0.61068  1.0000
  S   S148      1.0  0.27535  0.88339  0.50907  1.0000
  H   H869      1.0  0.21333  0.70059  0.63810  1.0000
  H   H870      1.0  0.16697  0.85306  0.54510  1.0000
  H   H871      1.0  0.16026  0.57475  0.49512  1.0000
  C   C1101     1.0  0.26677  0.93254  0.52135  1.0000
  H   H872      1.0  0.23057  0.64364  0.51955  1.0000
  C   C1102     1.0  0.11620  0.76187  0.68432  1.0000
  H   H873      1.0  0.17164  0.63007  0.56677  1.0000
  C   C1103     1.0  0.18279  0.64989  0.54103  1.0000
  H   H874      1.0  0.24183  0.70995  0.64389  1.0000
  C   C1104     1.0  0.14618  0.65630  0.53131  1.0000
  C   C1105     1.0  0.15025  0.64311  0.54843  1.0000
  H   H875      1.0  0.31950  0.65913  0.70823  1.0000
  H   H876      1.0  0.29146  0.89336  0.64719  1.0000
  C   C1106     1.0  0.29205  0.63562  0.69372  1.0000
  C   C1107     1.0  0.25639  0.58418  0.68844  1.0000
  S   S149      1.0  0.23437  0.85119  0.53727  1.0000
  H   H877      1.0  0.14322  0.76042  0.69282  1.0000
  C   C1108     1.0  0.25506  0.61838  0.68702  1.0000
  C   C1109     1.0  0.24107  0.65502  0.65071  1.0000
  H   H878      1.0  0.28856  0.68856  0.52686  1.0000
  H   H879      1.0  0.13202  0.65841  0.52763  1.0000
  H   H880      1.0  0.13916  0.63556  0.55812  1.0000
  S   S150      1.0  0.22343  0.52691  0.72311  1.0000
  H   H881      1.0  0.31046  0.87392  0.67235  1.0000
  H   H882      1.0  0.32180  0.63658  0.64525  1.0000
  H   H883      1.0  0.17671  0.56257  0.67949  1.0000
  Fe  Fe69      1.0  0.25543  0.51820  0.72372  1.0000
  H   H884      1.0  0.26958  0.68476  0.65376  1.0000
  C   C1110     1.0  0.28928  0.80746  0.53354  1.0000
  C   C1111     1.0  0.30201  0.63989  0.53617  1.0000
  S   S151      1.0  0.13845  0.77135  0.51754  1.0000
  H   H885      1.0  0.15019  0.56015  0.66459  1.0000
  C   C1112     1.0  0.29125  0.64709  0.67484  1.0000
  C   C1113     1.0  0.28988  0.70515  0.54713  1.0000
  H   H886      1.0  0.11766  0.95839  0.61963  1.0000
  C   C1114     1.0  0.22530  0.68933  0.64308  1.0000
  H   H887      1.0  0.17596  0.93890  0.58825  1.0000
  H   H888      1.0  0.31855  0.59884  0.66193  1.0000
  H   H889      1.0  0.28119  0.62194  0.55254  1.0000
  C   C1115     1.0  0.31526  0.83842  0.64717  1.0000
  H   H890      1.0  0.19560  0.53274  0.69729  1.0000
  C   C1116     1.0  0.29800  0.69199  0.53449  1.0000
  C   C1117     1.0  0.29202  0.70875  0.61272  1.0000
  C   C1118     1.0  0.10760  0.76103  0.66932  1.0000
  C   C1119     1.0  0.09930  0.70895  0.52039  1.0000
  H   H891      1.0  0.29325  0.64033  0.58841  1.0000
  C   C1120     1.0  0.14825  0.75727  0.66294  1.0000
  C   C1121     1.0  0.13967  0.75674  0.64769  1.0000
  C   C1122     1.0  0.11928  0.75837  0.65109  1.0000
  P   P35       1.0  0.15494  0.75261  0.62445  1.0000
  C   C1123     1.0  0.16411  0.72657  0.62550  1.0000
  C   C1124     1.0  0.14029  0.76276  0.60578  1.0000
  C   C1125     1.0  0.13039  0.75091  0.60075  1.0000
  C   C1126     1.0  0.11876  0.75882  0.58663  1.0000
  C   C1127     1.0  0.11667  0.77864  0.57760  1.0000
  C   C1128     1.0  0.12611  0.79061  0.58276  1.0000
  C   C1129     1.0  0.13794  0.78274  0.59672  1.0000
  C   C1130     1.0  0.16377  0.71321  0.64353  1.0000
  C   C1131     1.0  0.17020  0.69302  0.64404  1.0000
  C   C1132     1.0  0.17718  0.68610  0.62661  1.0000
  C   C1133     1.0  0.17801  0.69936  0.60870  1.0000
  C   C1134     1.0  0.17132  0.71942  0.60812  1.0000
  C   C1135     1.0  0.17492  0.76530  0.61888  1.0000
  C   C1136     1.0  0.19392  0.75687  0.60995  1.0000
  C   C1137     1.0  0.20895  0.76732  0.60483  1.0000
  C   C1138     1.0  0.20526  0.78605  0.60887  1.0000
  C   C1139     1.0  0.18653  0.79439  0.61805  1.0000
  C   C1140     1.0  0.17142  0.78406  0.62310  1.0000
  H   H892      1.0  0.09186  0.76237  0.67182  1.0000
  H   H893      1.0  0.28931  0.60166  0.64933  1.0000
  H   H894      1.0  0.16401  0.75553  0.66078  1.0000
  H   H895      1.0  0.11234  0.75757  0.63974  1.0000
  H   H896      1.0  0.13151  0.73555  0.60770  1.0000
  H   H897      1.0  0.11135  0.74957  0.58263  1.0000
  H   H898      1.0  0.10776  0.78476  0.56655  1.0000
  H   H899      1.0  0.14517  0.79238  0.60022  1.0000
  H   H900      1.0  0.15832  0.71821  0.65720  1.0000
  H   H901      1.0  0.16962  0.68270  0.65793  1.0000
  H   H902      1.0  0.18184  0.67047  0.62685  1.0000
  H   H903      1.0  0.18359  0.69409  0.59516  1.0000
  H   H904      1.0  0.17146  0.72921  0.59403  1.0000
  H   H905      1.0  0.19728  0.74239  0.60662  1.0000
  H   H906      1.0  0.22340  0.76092  0.59752  1.0000
  H   H907      1.0  0.21685  0.79421  0.60485  1.0000
  H   H908      1.0  0.18375  0.80900  0.62099  1.0000
  H   H909      1.0  0.15692  0.79089  0.63000  1.0000
  C   C1141     1.0  0.17351  0.54838  0.68059  1.0000
  C   C1142     1.0  0.24641  0.66319  0.49717  1.0000
  H   H910      1.0  0.14456  0.93144  0.60893  1.0000
  H   H911      1.0  0.17296  0.74573  0.49405  1.0000
  H   H912      1.0  0.14285  0.52787  0.66727  1.0000
  C   C1143     1.0  0.28600  0.86844  0.49171  1.0000
  H   H913      1.0  0.26715  0.90762  0.54508  1.0000
  C   C1144     1.0  0.30164  0.70918  0.55768  1.0000
  C   C1145     1.0  0.27182  0.96197  0.52794  1.0000
  H   H914      1.0  0.31811  0.88894  0.49524  1.0000
  C   C1146     1.0  0.30214  0.64000  0.70571  1.0000
  H   H915      1.0  0.27163  0.64096  0.62074  1.0000
  C   C1147     1.0  0.25722  0.68010  0.65195  1.0000
  C   C1148     1.0  0.25454  0.78887  0.48889  1.0000
  H   H916      1.0  0.21278  0.66540  0.64278  1.0000
  H   H917      1.0  0.20268  0.94477  0.50446  1.0000
  H   H918      1.0  0.28507  0.58347  0.72711  1.0000
  C   C1149     1.0  0.14656  0.94646  0.60471  1.0000
  C   C1150     1.0  0.31406  0.51588  0.71850  1.0000
  H   H919      1.0  0.09107  0.71133  0.53471  1.0000
  Fe  Fe70      1.0  0.11543  0.79890  0.51970  1.0000
  H   H920      1.0  0.21727  0.63319  0.49612  1.0000
  C   C1151     1.0  0.11908  0.69938  0.51806  1.0000
  C   C1152     1.0  0.16686  0.96998  0.58747  1.0000
  C   C1153     1.0  0.21954  0.97883  0.55457  1.0000
  C   C1154     1.0  0.29496  0.63918  0.63548  1.0000
  C   C1155     1.0  0.26859  0.92273  0.54036  1.0000
  C   C1156     1.0  0.15172  0.98542  0.59324  1.0000
  C   C1157     1.0  0.12988  0.69616  0.49959  1.0000
  H   H921      1.0  0.23725  0.71026  0.51428  1.0000
  H   H922      1.0  0.19911  0.75903  0.50712  1.0000
  C   C1158     1.0  0.10126  0.71399  0.48562  1.0000
  H   H923      1.0  0.29712  0.67789  0.61342  1.0000
  H   H924      1.0  0.29532  0.71919  0.56762  1.0000
  S   S152      1.0  0.23427  0.50665  0.68442  1.0000
  H   H925      1.0  0.27264  0.92504  0.56815  1.0000
  C   C1159     1.0  0.04708  0.77596  0.48992  1.0000
  H   H926      1.0  0.19001  0.67086  0.51491  1.0000
  C   C1160     1.0  0.16427  0.95064  0.59311  1.0000
  H   H927      1.0  0.30297  0.78383  0.51821  1.0000
  C   C1161     1.0  0.31833  0.87263  0.58790  1.0000
  C   C1162     1.0  0.15711  0.49769  0.64607  1.0000
  H   H928      1.0  0.30454  0.59847  0.57169  1.0000
  C   C1163     1.0  0.24684  0.72000  0.51324  1.0000
  C   C1164     1.0  0.31373  0.50801  0.70283  1.0000
  H   H929      1.0  0.24843  0.63151  0.69296  1.0000
  C   C1165     1.0  0.16605  0.51145  0.68290  1.0000
  C   C1166     1.0  0.18069  0.51304  0.69169  1.0000
  C   C1167     1.0  0.18431  0.53147  0.69055  1.0000
  C   C1168     1.0  0.30124  0.66264  0.66808  1.0000
  H   H930      1.0  0.29300  0.72695  0.49216  1.0000
  C   C1169     1.0  0.15478  0.52860  0.67344  1.0000
  C   C1170     1.0  0.24133  0.69459  0.64638  1.0000
  H   H931      1.0  0.26948  0.96591  0.60731  1.0000
  H   H932      1.0  0.28118  0.75519  0.50786  1.0000
  H   H933      1.0  0.30648  0.58057  0.69510  1.0000
  C   C1171     1.0  0.27824  0.60164  0.66265  1.0000
  C   C1172     1.0  0.24817  0.60117  0.69600  1.0000
  H   H934      1.0  0.30249  0.63114  0.72029  1.0000
  H   H935      1.0  0.10713  0.76390  0.69844  1.0000
  C   C1173     1.0  0.18798  0.78609  0.48854  1.0000
  P   P36       1.0  0.15534  0.68318  0.49664  1.0000
  C   C1174     1.0  0.29796  0.87805  0.64703  1.0000
  C   C1175     1.0  0.22507  0.66954  0.64555  1.0000
  H   H936      1.0  0.27524  0.95994  0.55725  1.0000
  C   C1176     1.0  0.29213  0.82271  0.54040  1.0000
  Fe  Fe71      1.0  0.08714  0.78497  0.50288  1.0000
  H   H937      1.0  0.27465  0.80505  0.53568  1.0000
  Fe  Fe72      1.0  0.24607  0.87869  0.52749  1.0000
  C   C1177     1.0  0.28719  0.63991  0.61928  1.0000
  C   C1178     1.0  0.13394  0.98107  0.60496  1.0000
  C   C1179     1.0  0.29943  0.63961  0.60085  1.0000
  H   H938      1.0  0.16877  0.50556  0.64344  1.0000
  H   H939      1.0  0.24546  0.84147  0.49780  1.0000
  H   H940      1.0  0.26957  0.55738  0.72420  1.0000
  H   H941      1.0  0.20365  0.97540  0.53447  1.0000
  S   S153      1.0  0.32202  0.75235  0.63774  1.0000
  S   S154      1.0  0.10838  0.75665  0.49892  1.0000
  C   C1180     1.0  0.30453  0.84933  0.63289  1.0000
  H   H942      1.0  0.15083  0.72244  0.50425  1.0000
  S   S155      1.0  0.32491  0.75660  0.58996  1.0000
  Fe  Fe73      1.0  0.32441  0.77579  0.61033  1.0000
  H   H943      1.0  0.29129  0.65041  0.52856  1.0000
  C   C1181     1.0  0.23019  0.95394  0.49805  1.0000
  Fe  Fe74      1.0  0.32559  0.73252  0.61690  1.0000
  H   H944      1.0  0.18064  0.97292  0.57841  1.0000
  H   H945      1.0  0.27273  0.97726  0.52375  1.0000
  C   C1182     1.0  0.21490  0.94885  0.49312  1.0000
  S   S156      1.0  0.05574  0.79256  0.49821  1.0000
  H   H946      1.0  0.17530  0.84263  0.48728  1.0000
  Fe  Fe75      1.0  0.13111  0.77518  0.48808  1.0000
  C   C1183     1.0  0.30873  0.86708  0.66133  1.0000
  C   C1184     1.0  0.17130  0.70043  0.48927  1.0000
  C   C1185     1.0  0.31019  0.65985  0.48851  1.0000
  P   P37       1.0  0.26650  0.96455  0.49005  1.0000
  C   C1186     1.0  0.32140  0.69979  0.55592  1.0000
  H   H947      1.0  0.32122  0.85312  0.50380  1.0000
  C   C1187     1.0  0.17782  0.73165  0.48973  1.0000
  H   H948      1.0  0.32304  0.70196  0.48905  1.0000
  C   C1188     1.0  0.02679  0.77774  0.49208  1.0000
  H   H949      1.0  0.25608  0.77470  0.48568  1.0000
  H   H950      1.0  0.32590  0.83883  0.67236  1.0000
  H   H951      1.0  0.32547  0.87146  0.59979  1.0000
  C   C1189     1.0  0.11759  0.49508  0.73391  1.0000
  H   H952      1.0  0.29544  0.82082  0.48667  1.0000
  C   C1190     1.0  0.32746  0.63734  0.61455  1.0000
  H   H953      1.0  0.00406  0.76732  0.48548  1.0000
  C   C1191     1.0  0.27560  0.51928  0.92088  1.0000
  S   S157      1.0  0.26288  0.58749  0.84991  1.0000
  S   S158      1.0  0.30456  0.58580  0.75667  1.0000
  H   H954      1.0  0.26745  0.53779  0.81695  1.0000
  C   C1192     1.0  0.24011  0.53062  0.92744  1.0000
  C   C1193     1.0  0.17912  0.56624  0.86811  1.0000
  S   S159      1.0  0.19554  0.51316  0.91715  1.0000
  H   H955      1.0  0.02971  0.50710  0.86740  1.0000
  C   C1194     1.0  0.18656  0.54616  0.86924  1.0000
  Fe  Fe76      1.0  0.18180  0.49266  0.90861  1.0000
  H   H956      1.0  0.18503  0.55813  0.80971  1.0000
  C   C1195     1.0  0.25428  0.59540  0.78024  1.0000
  H   H957      1.0  0.20639  0.52372  0.85552  1.0000
  C   C1196     1.0  0.25317  0.59004  0.80043  1.0000
  C   C1197     1.0  0.23840  0.56911  0.78178  1.0000
  H   H958      1.0  0.09475  0.53268  0.79085  1.0000
  C   C1198     1.0  0.10202  0.52277  0.81939  1.0000
  H   H959      1.0  0.25918  0.59790  0.80766  1.0000
  H   H960      1.0  0.31699  0.50952  0.74854  1.0000
  H   H961      1.0  0.17994  0.59517  0.85056  1.0000
  H   H962      1.0  0.23321  0.56099  0.77414  1.0000
  C   C1199     1.0  0.01207  0.56318  0.89427  1.0000
  C   C1200     1.0  0.24462  0.57428  0.81134  1.0000
  C   C1201     1.0  0.24675  0.58505  0.77097  1.0000
  C   C1202     1.0  0.29504  0.54974  0.76770  1.0000
  C   C1203     1.0  0.20086  0.53933  0.85396  1.0000
  C   C1204     1.0  0.29457  0.56718  0.75378  1.0000
  C   C1205     1.0  0.06886  0.53475  0.81382  1.0000
  H   H963      1.0  0.16823  0.55139  0.78709  1.0000
  C   C1206     1.0  0.19972  0.57280  0.83598  1.0000
  H   H964      1.0  0.23712  0.51685  0.78962  1.0000
  C   C1207     1.0  0.09476  0.52794  0.88248  1.0000
  H   H965      1.0  0.28533  0.57592  0.87931  1.0000
  C   C1208     1.0  0.18571  0.57957  0.85148  1.0000
  C   C1209     1.0  0.16191  0.49882  0.80788  1.0000
  C   C1210     1.0  0.05793  0.49342  0.87538  1.0000
  C   C1211     1.0  0.20766  0.55260  0.83716  1.0000
  C   C1212     1.0  0.25917  0.56378  0.86172  1.0000
  C   C1213     1.0  0.27525  0.54799  0.86129  1.0000
  C   C1214     1.0  0.02946  0.52923  0.89703  1.0000
  C   C1215     1.0  0.25393  0.52528  0.87824  1.0000
  C   C1216     1.0  0.23773  0.54105  0.87920  1.0000
  C   C1217     1.0  0.24036  0.56036  0.87090  1.0000
  H   H966      1.0  0.26264  0.56906  0.91663  1.0000
  H   H967      1.0  0.11762  0.51879  0.81364  1.0000
  H   H968      1.0  0.22326  0.53833  0.88611  1.0000
  H   H969      1.0  0.22784  0.57252  0.87123  1.0000
  H   H970      1.0  0.22941  0.56180  0.92459  1.0000
  H   H971      1.0  0.07282  0.49051  0.91016  1.0000
  H   H972      1.0  0.12021  0.51050  0.91933  1.0000
  H   H973      1.0  0.15139  0.52458  0.82055  1.0000
  H   H974      1.0  0.24787  0.58902  0.75528  1.0000
  H   H975      1.0  0.22002  0.51064  0.76694  1.0000
  C   C1218     1.0  0.24228  0.54997  0.92388  1.0000
  C   C1219     1.0  0.23712  0.56371  0.80212  1.0000
  C   C1220     1.0  0.27261  0.52886  0.86935  1.0000
  H   H976      1.0  0.29068  0.50968  0.83122  1.0000
  H   H977      1.0  0.14886  0.51958  0.75572  1.0000
  H   H978      1.0  0.05415  0.55905  0.85973  1.0000
  S   S160      1.0  0.12279  0.49507  0.78092  1.0000
  C   C1221     1.0  0.29104  0.61817  0.88782  1.0000
  H   H979      1.0  0.28983  0.55039  0.85461  1.0000
  C   C1222     1.0  0.22188  0.52406  0.78967  1.0000
  H   H980      1.0  0.22313  0.50308  0.83466  1.0000
  C   C1223     1.0  0.02673  0.56870  0.87841  1.0000
  C   C1224     1.0  0.09480  0.51915  0.83958  1.0000
  H   H981      1.0  0.24835  0.51091  0.98144  1.0000
  C   C1225     1.0  0.26257  0.52430  0.82392  1.0000
  H   H982      1.0  0.26140  0.60728  0.77173  1.0000
  C   C1226     1.0  0.27595  0.50824  0.83183  1.0000
  S   S161      1.0  0.29722  0.55961  0.81282  1.0000
  H   H983      1.0  0.20424  0.58342  0.82308  1.0000
  Fe  Fe77      1.0  0.29232  0.58329  0.82941  1.0000
  H   H984      1.0  0.24395  0.57023  0.82698  1.0000
  C   C1227     1.0  0.01348  0.54346  0.90361  1.0000
  C   C1228     1.0  0.04273  0.55450  0.87181  1.0000
  C   C1229     1.0  0.28561  0.53556  0.76657  1.0000
  H   H985      1.0  0.17611  0.51460  0.84168  1.0000
  C   C1230     1.0  0.32254  0.49381  0.79722  1.0000
  C   C1231     1.0  0.15631  0.50443  0.75602  1.0000
  C   C1232     1.0  0.08908  0.53055  0.80651  1.0000
  H   H986      1.0  0.28020  0.51162  0.95808  1.0000
  C   C1233     1.0  0.26103  0.55403  0.91930  1.0000
  S   S162      1.0  0.32110  0.57241  0.83938  1.0000
  Fe  Fe78      1.0  0.31068  0.58026  0.78714  1.0000
  C   C1234     1.0  0.31160  0.53846  0.95211  1.0000
  P   P38       1.0  0.22526  0.54399  0.81663  1.0000
  H   H987      1.0  0.29191  0.54218  0.91497  1.0000
  H   H988      1.0  0.28561  0.52230  0.77778  1.0000
  C   C1235     1.0  0.23773  0.50476  0.83402  1.0000
  C   C1236     1.0  0.18316  0.54370  0.78792  1.0000
  C   C1237     1.0  0.21209  0.53740  0.80194  1.0000
  C   C1238     1.0  0.27649  0.53824  0.75089  1.0000
  H   H989      1.0  0.13966  0.50603  0.85885  1.0000
  C   C1239     1.0  0.17572  0.49992  0.74558  1.0000
  H   H990      1.0  0.28511  0.51671  0.86845  1.0000
  H   H991      1.0  0.18559  0.52734  0.76590  1.0000
  C   C1240     1.0  0.29130  0.58559  0.88439  1.0000
  H   H992      1.0  0.18124  0.53579  0.88199  1.0000
  C   C1241     1.0  0.16209  0.51092  0.82015  1.0000
  H   H993      1.0  0.31649  0.49861  0.78412  1.0000
  C   C1242     1.0  0.24319  0.52283  0.82533  1.0000
  P   P39       1.0  0.29697  0.49930  0.92028  1.0000
  C   C1243     1.0  0.19271  0.54736  0.80083  1.0000
  C   C1244     1.0  0.07453  0.52353  0.84707  1.0000
  C   C1245     1.0  0.25666  0.51534  0.92606  1.0000
  C   C1246     1.0  0.21227  0.52052  0.77675  1.0000
  C   C1247     1.0  0.19291  0.53018  0.77596  1.0000
  H   H994      1.0  0.16822  0.57141  0.88013  1.0000
  S   S163      1.0  0.18551  0.49967  0.97586  1.0000
  C   C1248     1.0  0.27761  0.53874  0.91803  1.0000
  H   H995      1.0  0.04586  0.53373  0.83941  1.0000
  H   H996      1.0  0.10501  0.51241  0.84924  1.0000
  H   H997      1.0  0.22556  0.52746  0.93094  1.0000
  C   C1249     1.0  0.28310  0.60568  0.88153  1.0000
  H   H998      1.0  0.09429  0.53928  0.86937  1.0000
  H   H999      1.0  0.05883  0.54024  0.80378  1.0000
  H   H1000     1.0  0.30273  0.54708  0.77936  1.0000
  C   C1250     1.0  0.17609  0.50538  0.83193  1.0000
  S   S164      1.0  0.26551  0.51956  0.75017  1.0000
  H   H1001     1.0  0.32740  0.60793  0.96954  1.0000
  H   H1002     1.0  0.27076  0.61153  0.87419  1.0000
  H   H1003     1.0  0.28486  0.63380  0.88532  1.0000
  C   C1251     1.0  0.04403  0.53463  0.88089  1.0000
  P   P40       1.0  0.06492  0.51636  0.87288  1.0000
  C   C1252     1.0  0.06158  0.53112  0.83402  1.0000
  H   H1004     1.0  0.22653  0.50338  0.96388  1.0000
  H   H1005     1.0  0.25453  0.50055  0.92867  1.0000
  C   C1253     1.0  0.14666  0.48934  0.76705  1.0000
  C   C1254     1.0  0.22107  0.50593  0.97860  1.0000
  H   H1006     1.0  0.02577  0.58401  0.87132  1.0000
  S   S165      1.0  0.25185  0.50083  0.88792  1.0000
  C   C1255     1.0  0.10829  0.52652  0.89391  1.0000
  S   S166      1.0  0.30345  0.60505  0.80311  1.0000
  H   H1007     1.0  0.03054  0.51404  0.90460  1.0000
  C   C1256     1.0  0.30714  0.61057  0.89700  1.0000
  H   H1008     1.0  0.00226  0.53921  0.91607  1.0000
  H   H1009     1.0  0.11854  0.53625  0.88937  1.0000
  H   H1010     1.0  0.32393  0.52298  0.79847  1.0000
  Fe  Fe79      1.0  0.22388  0.49339  0.90666  1.0000
  C   C1257     1.0  0.08229  0.51456  0.88777  1.0000
  H   H1011     1.0  0.31557  0.49041  0.88070  1.0000
  S   S167      1.0  0.15940  0.50466  0.88921  1.0000
  H   H1012     1.0  0.18317  0.51155  0.73718  1.0000
  H   H1013     1.0  0.30743  0.52692  0.88369  1.0000
  C   C1258     1.0  0.28802  0.49649  0.96086  1.0000
  H   H1014     1.0  0.15120  0.50318  0.79862  1.0000
  H   H1015     1.0  0.30162  0.56689  0.93534  1.0000
  C   C1259     1.0  0.28560  0.56990  0.73786  1.0000
  H   H1016     1.0  0.31321  0.62055  0.90151  1.0000
  C   C1260     1.0  0.14001  0.49178  0.86841  1.0000
  C   C1261     1.0  0.32009  0.52167  0.89054  1.0000
  Fe  Fe80      1.0  0.19547  0.49154  0.94589  1.0000
  H   H1017     1.0  0.32451  0.62866  0.74820  1.0000
  H   H1018     1.0  0.29692  0.53691  0.95992  1.0000
  C   C1262     1.0  0.31541  0.59037  0.89989  1.0000
  H   H1019     1.0  0.99973  0.57421  0.89943  1.0000
  C   C1263     1.0  0.03983  0.49344  0.87141  1.0000
  C   C1264     1.0  0.09640  0.49907  0.91663  1.0000
  H   H1020     1.0  0.10882  0.50710  0.74085  1.0000
  C   C1265     1.0  0.27011  0.49062  0.84128  1.0000
  C   C1266     1.0  0.08277  0.50052  0.90529  1.0000
  C   C1267     1.0  0.30744  0.57800  0.89337  1.0000
  C   C1268     1.0  0.31434  0.55543  0.93807  1.0000
  C   C1269     1.0  0.31766  0.50341  0.73610  1.0000
  C   C1270     1.0  0.31922  0.50829  0.90857  1.0000
  C   C1271     1.0  0.10922  0.51199  0.91089  1.0000
  H   H1021     1.0  0.31400  0.56252  0.89487  1.0000
  H   H1022     1.0  0.32339  0.58446  0.95206  1.0000
  H   H1023     1.0  0.32562  0.51056  0.96728  1.0000
  C   C1272     1.0  0.27664  0.55533  0.73633  1.0000
  Fe  Fe81      1.0  0.32680  0.55015  0.82070  1.0000
  C   C1273     1.0  0.32671  0.50762  0.80534  1.0000
  H   H1024     1.0  0.49711  0.20704  0.01992  1.0000
  S   S168      1.0  0.59076  0.22880  0.09153  1.0000
  C   C1274     1.0  0.62561  0.11242  0.16995  1.0000
  H   H1025     1.0  0.48145  0.34963  0.17524  1.0000
  Fe  Fe82      1.0  0.55737  0.18760  0.06851  1.0000
  S   S169      1.0  0.54740  0.16460  0.09412  1.0000
  S   S170      1.0  0.54765  0.19461  0.03940  1.0000
  Fe  Fe83      1.0  0.57586  0.20417  0.09307  1.0000
  S   S171      1.0  0.56729  0.18266  0.12051  1.0000
  Fe  Fe84      1.0  0.57694  0.16056  0.10119  1.0000
  S   S172      1.0  0.59602  0.13152  0.11193  1.0000
  Fe  Fe85      1.0  0.53846  0.18841  0.11139  1.0000
  S   S173      1.0  0.50986  0.19129  0.13336  1.0000
  S   S174      1.0  0.58796  0.18164  0.07406  1.0000
  S   S175      1.0  0.54601  0.21190  0.08544  1.0000
  P   P41       1.0  0.54799  0.30090  0.13695  1.0000
  H   H1026     1.0  0.58045  0.05640  0.05842  1.0000
  Fe  Fe86      1.0  0.56888  0.04829  0.19411  1.0000
  H   H1027     1.0  0.61379  0.33728  0.10449  1.0000
  S   S176      1.0  0.55401  0.06523  0.16902  1.0000
  H   H1028     1.0  0.53869  0.06484  0.12447  1.0000
  H   H1029     1.0  0.51912  0.30994  0.07917  1.0000
  S   S177      1.0  0.65954  0.25058  0.18493  1.0000
  H   H1030     1.0  0.52483  0.32058  0.10679  1.0000
  S   S178      1.0  0.60131  0.03682  0.19136  1.0000
  C   C1275     1.0  0.55422  0.15694  0.22863  1.0000
  Fe  Fe87      1.0  0.48184  0.27135  0.19672  1.0000
  S   S179      1.0  0.48854  0.29645  0.20485  1.0000
  S   S180      1.0  0.49868  0.26692  0.16687  1.0000
  H   H1031     1.0  0.61476  0.12532  0.17332  1.0000
  Fe  Fe88      1.0  0.63631  0.25735  0.21113  1.0000
  C   C1276     1.0  0.62143  0.22697  0.14065  1.0000
  C   C1277     1.0  0.62236  0.16423  0.21267  1.0000
  C   C1278     1.0  0.61977  0.09457  0.17380  1.0000
  H   H1032     1.0  0.50060  0.12093  0.22199  1.0000
  H   H1033     1.0  0.60421  0.40972  0.21659  1.0000
  S   S181      1.0  0.44942  0.28226  0.20437  1.0000
  H   H1034     1.0  0.64269  0.17695  0.16481  1.0000
  H   H1035     1.0  0.65939  0.19443  0.10596  1.0000
  C   C1279     1.0  0.49901  0.18296  0.00654  1.0000
  C   C1280     1.0  0.47579  0.17042  0.22516  1.0000
  C   C1281     1.0  0.37446  0.46035  0.17733  1.0000
  H   H1036     1.0  0.38165  0.44246  0.20444  1.0000
  C   C1282     1.0  0.64534  0.18995  0.23243  1.0000
  H   H1037     1.0  0.33411  0.46037  0.15354  1.0000
  S   S182      1.0  0.34738  0.41323  0.17793  1.0000
  C   C1283     1.0  0.38912  0.33047  0.20366  1.0000
  H   H1038     1.0  0.64170  0.38707  0.16744  1.0000
  C   C1284     1.0  0.50612  0.08976  0.23280  1.0000
  H   H1039     1.0  0.48144  0.23205  0.99512  1.0000
  C   C1285     1.0  0.63938  0.40147  0.15799  1.0000
  S   S183      1.0  0.61455  0.06821  0.22110  1.0000
  P   P42       1.0  0.53719  0.17974  0.22244  1.0000
  C   C1286     1.0  0.44229  0.16990  0.19291  1.0000
  S   S184      1.0  0.56454  0.06034  0.22102  1.0000
  Fe  Fe89      1.0  0.33750  0.38478  0.19147  1.0000
  C   C1287     1.0  0.50977  0.08664  0.19416  1.0000
  C   C1288     1.0  0.63524  0.13536  0.19845  1.0000
  P   P43       1.0  0.36476  0.48359  0.14238  1.0000
  H   H1040     1.0  0.53644  0.26286  0.20494  1.0000
  S   S185      1.0  0.44175  0.33776  0.20787  1.0000
  C   C1289     1.0  0.64541  0.11340  0.16241  1.0000
  H   H1041     1.0  0.55497  0.21004  0.22742  1.0000
  C   C1290     1.0  0.51110  0.99333  0.21027  1.0000
  H   H1042     1.0  0.50650  0.20051  0.19931  1.0000
  C   C1291     1.0  0.61156  0.18283  0.01026  1.0000
  C   C1292     1.0  0.48267  0.18594  0.21156  1.0000
  C   C1293     1.0  0.58427  0.11283  0.12699  1.0000
  C   C1294     1.0  0.59492  0.09722  0.13869  1.0000
  C   C1295     1.0  0.58573  0.08264  0.15174  1.0000
  C   C1296     1.0  0.56601  0.08316  0.15258  1.0000
  C   C1297     1.0  0.55563  0.09822  0.14014  1.0000
  C   C1298     1.0  0.56461  0.11324  0.12761  1.0000
  C   C1299     1.0  0.60201  0.22814  0.11081  1.0000
  H   H1043     1.0  0.59399  0.07089  0.16094  1.0000
  H   H1044     1.0  0.54054  0.09834  0.14046  1.0000
  H   H1045     1.0  0.55639  0.12500  0.11837  1.0000
  C   C1300     1.0  0.50723  0.21122  0.14423  1.0000
  C   C1301     1.0  0.52055  0.22357  0.13681  1.0000
  C   C1302     1.0  0.51773  0.24041  0.14419  1.0000
  C   C1303     1.0  0.50208  0.24470  0.15954  1.0000
  C   C1304     1.0  0.48924  0.23183  0.16779  1.0000
  C   C1305     1.0  0.49167  0.21516  0.15992  1.0000
  H   H1046     1.0  0.53276  0.22051  0.12497  1.0000
  H   H1047     1.0  0.52773  0.25022  0.13800  1.0000
  H   H1048     1.0  0.47723  0.23507  0.17978  1.0000
  H   H1049     1.0  0.48147  0.20547  0.16579  1.0000
  H   H1050     1.0  0.60474  0.25838  0.10139  1.0000
  C   C1306     1.0  0.56442  0.15371  0.99559  1.0000
  C   C1307     1.0  0.57481  0.14983  0.01063  1.0000
  C   C1308     1.0  0.56995  0.16217  0.02419  1.0000
  C   C1309     1.0  0.55493  0.17891  0.02241  1.0000
  C   C1310     1.0  0.54533  0.18344  0.00664  1.0000
  C   C1311     1.0  0.54970  0.17067  0.99354  1.0000
  H   H1051     1.0  0.58662  0.13716  0.01173  1.0000
  H   H1052     1.0  0.57796  0.15886  0.03583  1.0000
  H   H1053     1.0  0.53376  0.27594  0.07393  1.0000
  H   H1054     1.0  0.37049  0.44851  0.17350  1.0000
  H   H1055     1.0  0.50196  0.27719  0.11583  1.0000
  C   C1312     1.0  0.49303  0.25508  0.10694  1.0000
  C   C1313     1.0  0.54762  0.26754  0.09878  1.0000
  C   C1314     1.0  0.42746  0.30162  0.14620  1.0000
  C   C1315     1.0  0.53969  0.16475  0.16877  1.0000
  C   C1316     1.0  0.55802  0.15192  0.16655  1.0000
  C   C1317     1.0  0.55919  0.13172  0.17038  1.0000
  C   C1318     1.0  0.54203  0.12438  0.17578  1.0000
  C   C1319     1.0  0.52354  0.13719  0.17733  1.0000
  C   C1320     1.0  0.52249  0.15743  0.17429  1.0000
  P   P44       1.0  0.50212  0.12738  0.18009  1.0000
  C   C1321     1.0  0.57019  0.05718  0.11942  1.0000
  C   C1322     1.0  0.50173  0.12296  0.15665  1.0000
  H   H1056     1.0  0.44824  0.23483  0.15647  1.0000
  C   C1323     1.0  0.48903  0.10782  0.13735  1.0000
  C   C1324     1.0  0.49998  0.11702  0.12019  1.0000
  C   C1325     1.0  0.51141  0.12957  0.12115  1.0000
  C   C1326     1.0  0.51219  0.13268  0.13927  1.0000
  C   C1327     1.0  0.38418  0.27303  0.11217  1.0000
  H   H1057     1.0  0.60465  0.09363  0.18033  1.0000
  C   C1328     1.0  0.41778  0.26774  0.18326  1.0000
  C   C1329     1.0  0.45617  0.17465  0.17600  1.0000
  C   C1330     1.0  0.47437  0.16187  0.17243  1.0000
  C   C1331     1.0  0.47909  0.14436  0.18594  1.0000
  C   C1332     1.0  0.57438  0.06442  0.01162  1.0000
  C   C1333     1.0  0.59224  0.20578  0.98782  1.0000
  H   H1058     1.0  0.56967  0.22375  0.14920  1.0000
  H   H1059     1.0  0.57315  0.17056  0.19254  1.0000
  H   H1060     1.0  0.53871  0.18049  0.16548  1.0000
  H   H1061     1.0  0.57135  0.15760  0.16159  1.0000
  H   H1062     1.0  0.57337  0.12176  0.16846  1.0000
  H   H1063     1.0  0.54323  0.10870  0.17802  1.0000
  H   H1064     1.0  0.50858  0.16775  0.17541  1.0000
  H   H1065     1.0  0.63624  0.16265  0.99739  1.0000
  Fe  Fe90      1.0  0.59676  0.04726  0.21940  1.0000
  H   H1066     1.0  0.49951  0.11462  0.10611  1.0000
  H   H1067     1.0  0.51971  0.13690  0.10784  1.0000
  H   H1068     1.0  0.52103  0.14263  0.13958  1.0000
  C   C1334     1.0  0.54686  0.22408  0.17503  1.0000
  H   H1069     1.0  0.59465  0.33787  0.20370  1.0000
  C   C1335     1.0  0.53115  0.30567  0.10478  1.0000
  H   H1070     1.0  0.45284  0.18816  0.16548  1.0000
  H   H1071     1.0  0.48472  0.16556  0.15896  1.0000
  C   C1336     1.0  0.52798  0.29975  0.08904  1.0000
  C   C1337     1.0  0.48981  0.27091  0.11601  1.0000
  H   H1072     1.0  0.56995  0.24179  0.20155  1.0000
  C   C1338     1.0  0.39778  0.43266  0.12583  1.0000
  C   C1339     1.0  0.38649  0.42872  0.11473  1.0000
  C   C1340     1.0  0.36897  0.44177  0.11145  1.0000
  C   C1341     1.0  0.36255  0.45859  0.11953  1.0000
  C   C1342     1.0  0.37328  0.46213  0.13153  1.0000
  C   C1343     1.0  0.39133  0.44943  0.13402  1.0000
  C   C1344     1.0  0.61444  0.34124  0.17599  1.0000
  C   C1345     1.0  0.62405  0.17478  0.99469  1.0000
  H   H1073     1.0  0.63025  0.45291  0.12422  1.0000
  H   H1074     1.0  0.61026  0.09661  0.13783  1.0000
  H   H1075     1.0  0.56534  0.09285  0.99377  1.0000
  H   H1076     1.0  0.53987  0.23922  0.17024  1.0000
  C   C1346     1.0  0.49529  0.17737  0.99093  1.0000
  C   C1347     1.0  0.65710  0.16863  0.12877  1.0000
  H   H1077     1.0  0.39125  0.41554  0.10872  1.0000
  H   H1078     1.0  0.36002  0.43869  0.10305  1.0000
  H   H1079     1.0  0.34891  0.46850  0.11679  1.0000
  H   H1080     1.0  0.51234  0.30999  0.22129  1.0000
  C   C1348     1.0  0.54107  0.27857  0.17504  1.0000
  C   C1349     1.0  0.60765  0.24496  0.11209  1.0000
  H   H1081     1.0  0.37996  0.38036  0.19285  1.0000
  H   H1082     1.0  0.48087  0.10401  0.16866  1.0000
  C   C1350     1.0  0.62352  0.33871  0.20692  1.0000
  H   H1083     1.0  0.38921  0.46954  0.21467  1.0000
  C   C1351     1.0  0.64780  0.15264  0.13680  1.0000
  C   C1352     1.0  0.61567  0.21030  0.13934  1.0000
  C   C1353     1.0  0.56649  0.28347  0.22166  1.0000
  H   H1084     1.0  0.40279  0.28440  0.08543  1.0000
  H   H1085     1.0  0.44225  0.32782  0.17094  1.0000
  C   C1354     1.0  0.40095  0.27985  0.10119  1.0000
  H   H1086     1.0  0.41012  0.28295  0.18210  1.0000
  C   C1355     1.0  0.42950  0.26062  0.16670  1.0000
  C   C1356     1.0  0.43840  0.30604  0.15745  1.0000
  H   H1087     1.0  0.39387  0.26402  0.15769  1.0000
  C   C1357     1.0  0.47119  0.27784  0.12652  1.0000
  C   C1358     1.0  0.60109  0.33067  0.11062  1.0000
  C   C1359     1.0  0.56856  0.31289  0.12649  1.0000
  S   S186      1.0  0.61175  0.25515  0.19873  1.0000
  H   H1088     1.0  0.57578  0.05652  0.00024  1.0000
  H   H1089     1.0  0.57970  0.21762  0.98560  1.0000
  C   C1360     1.0  0.42588  0.23564  0.20372  1.0000
  H   H1090     1.0  0.58626  0.18931  0.16072  1.0000
  H   H1091     1.0  0.47707  0.32479  0.15946  1.0000
  H   H1092     1.0  0.58341  0.27031  0.14131  1.0000
  C   C1361     1.0  0.51875  0.01043  0.20407  1.0000
  C   C1362     1.0  0.62172  0.40874  0.15136  1.0000
  H   H1093     1.0  0.48031  0.23340  0.10194  1.0000
  C   C1363     1.0  0.59709  0.32234  0.13054  1.0000
  H   H1094     1.0  0.61061  0.39995  0.15565  1.0000
  C   C1364     1.0  0.37893  0.34980  0.19836  1.0000
  C   C1365     1.0  0.34157  0.47080  0.23296  1.0000
  C   C1366     1.0  0.48516  0.21692  0.99365  1.0000
  H   H1095     1.0  0.53915  0.32339  0.19694  1.0000
  C   C1367     1.0  0.41310  0.27498  0.13094  1.0000
  H   H1096     1.0  0.60156  0.19790  0.12381  1.0000
  H   H1097     1.0  0.44990  0.29487  0.16337  1.0000
  C   C1368     1.0  0.60943  0.33933  0.19632  1.0000
  H   H1098     1.0  0.46949  0.28971  0.13376  1.0000
  C   C1369     1.0  0.41612  0.25529  0.20170  1.0000
  C   C1370     1.0  0.51058  0.07125  0.22804  1.0000
  C   C1371     1.0  0.56541  0.18539  0.18787  1.0000
  C   C1372     1.0  0.56552  0.25257  0.18911  1.0000
  C   C1373     1.0  0.63423  0.14987  0.12732  1.0000
  C   C1374     1.0  0.50186  0.18801  0.20956  1.0000
  H   H1099     1.0  0.56045  0.26315  0.12367  1.0000
  C   C1375     1.0  0.65923  0.37852  0.22717  1.0000
  H   H1100     1.0  0.62174  0.25735  0.12782  1.0000
  C   C1376     1.0  0.41534  0.28089  0.11053  1.0000
  H   H1101     1.0  0.44720  0.24566  0.12016  1.0000
  H   H1102     1.0  0.42818  0.28639  0.10185  1.0000
  H   H1103     1.0  0.50621  0.17203  0.01734  1.0000
  H   H1104     1.0  0.40030  0.45230  0.14250  1.0000
  H   H1105     1.0  0.60364  0.34083  0.16811  1.0000
  S   S187      1.0  0.62984  0.28335  0.15830  1.0000
  H   H1106     1.0  0.53433  0.19682  0.00468  1.0000
  H   H1107     1.0  0.36867  0.26219  0.14106  1.0000
  H   H1108     1.0  0.57056  0.04761  0.13368  1.0000
  C   C1377     1.0  0.41208  0.31625  0.13942  1.0000
  H   H1109     1.0  0.55378  0.25269  0.09659  1.0000
  Fe  Fe91      1.0  0.63429  0.25103  0.17148  1.0000
  C   C1378     1.0  0.40775  0.33488  0.14394  1.0000
  C   C1379     1.0  0.63344  0.34294  0.16602  1.0000
  C   C1380     1.0  0.62616  0.14389  0.21469  1.0000
  P   P45       1.0  0.65318  0.13610  0.15919  1.0000
  Fe  Fe92      1.0  0.60941  0.28735  0.18694  1.0000
  C   C1381     1.0  0.53621  0.28066  0.08605  1.0000
  C   C1382     1.0  0.57863  0.05426  0.02986  1.0000
  C   C1383     1.0  0.43907  0.24076  0.16887  1.0000
  C   C1384     1.0  0.39613  0.26832  0.14190  1.0000
  C   C1385     1.0  0.58094  0.31346  0.13840  1.0000
  C   C1386     1.0  0.56376  0.21540  0.16325  1.0000
  H   H1110     1.0  0.50568  0.30413  0.14229  1.0000
  H   H1111     1.0  0.61871  0.19681  0.14976  1.0000
  C   C1387     1.0  0.56214  0.30039  0.20750  1.0000
  C   C1388     1.0  0.40809  0.32672  0.20737  1.0000
  C   C1389     1.0  0.50791  0.31561  0.14815  1.0000
  H   H1112     1.0  0.53168  0.03049  0.17950  1.0000
  H   H1113     1.0  0.38233  0.31836  0.20493  1.0000
  C   C1390     1.0  0.38501  0.47212  0.20070  1.0000
  H   H1114     1.0  0.62078  0.37660  0.21084  1.0000
  S   S188      1.0  0.58091  0.30961  0.18965  1.0000
  H   H1115     1.0  0.40298  0.31328  0.13117  1.0000
  H   H1116     1.0  0.47995  0.09830  0.13660  1.0000
  C   C1391     1.0  0.51430  0.17458  0.22132  1.0000
  C   C1392     1.0  0.37271  0.47910  0.16519  1.0000
  H   H1117     1.0  0.51240  0.08500  0.17917  1.0000
  H   H1118     1.0  0.46058  0.16948  0.22762  1.0000
  C   C1393     1.0  0.54790  0.19376  0.19942  1.0000
  C   C1394     1.0  0.59579  0.19842  0.00677  1.0000
  C   C1395     1.0  0.61725  0.24442  0.12705  1.0000
  C   C1396     1.0  0.64078  0.14718  0.18006  1.0000
  H   H1119     1.0  0.61579  0.17072  0.22533  1.0000
  H   H1120     1.0  0.42819  0.17982  0.19573  1.0000
  C   C1397     1.0  0.41877  0.33909  0.15512  1.0000
  H   H1121     1.0  0.47295  0.19683  0.20308  1.0000
  Fe  Fe93      1.0  0.59339  0.00889  0.21053  1.0000
  C   C1398     1.0  0.52518  0.01763  0.18415  1.0000
  C   C1399     1.0  0.55122  0.27353  0.11428  1.0000
  C   C1400     1.0  0.49161  0.32722  0.15802  1.0000
  S   S189      1.0  0.33666  0.43869  0.22329  1.0000
  C   C1401     1.0  0.38083  0.45684  0.19489  1.0000
  H   H1122     1.0  0.51500  0.35402  0.17337  1.0000
  C   C1402     1.0  0.54258  0.31009  0.20760  1.0000
  C   C1403     1.0  0.46482  0.13943  0.20264  1.0000
  C   C1404     1.0  0.56843  0.08486  0.00798  1.0000
  C   C1405     1.0  0.63281  0.43853  0.13365  1.0000
  C   C1406     1.0  0.64343  0.21017  0.22996  1.0000
  C   C1407     1.0  0.57693  0.06452  0.04448  1.0000
  C   C1408     1.0  0.57079  0.08505  0.04094  1.0000
  C   C1409     1.0  0.56664  0.09513  0.02256  1.0000
  P   P46       1.0  0.56903  0.09885  0.05920  1.0000
  C   C1410     1.0  0.54585  0.11645  0.05973  1.0000
  C   C1411     1.0  0.56927  0.08274  0.08292  1.0000
  C   C1412     1.0  0.58729  0.07298  0.08838  1.0000
  C   C1413     1.0  0.58771  0.06032  0.10659  1.0000
  C   C1414     1.0  0.38175  0.26732  0.13252  1.0000
  Fe  Fe94      1.0  0.45618  0.30574  0.21511  1.0000
  C   C1415     1.0  0.55171  0.07965  0.09600  1.0000
  C   C1416     1.0  0.54414  0.13573  0.06165  1.0000
  C   C1417     1.0  0.52628  0.14928  0.06126  1.0000
  C   C1418     1.0  0.50995  0.14369  0.05904  1.0000
  C   C1419     1.0  0.51146  0.12450  0.05720  1.0000
  C   C1420     1.0  0.52931  0.11093  0.05753  1.0000
  C   C1421     1.0  0.59003  0.11022  0.05306  1.0000
  C   C1422     1.0  0.59286  0.12036  0.06601  1.0000
  C   C1423     1.0  0.60903  0.12923  0.06129  1.0000
  C   C1424     1.0  0.62273  0.12769  0.04388  1.0000
  C   C1425     1.0  0.62041  0.11706  0.03123  1.0000
  C   C1426     1.0  0.60426  0.10818  0.03588  1.0000
  H   H1123     1.0  0.52010  0.01794  0.21473  1.0000
  H   H1124     1.0  0.41504  0.35331  0.15915  1.0000
  H   H1125     1.0  0.56218  0.11100  0.01938  1.0000
  H   H1126     1.0  0.60104  0.07518  0.07863  1.0000
  H   H1127     1.0  0.60161  0.05312  0.11091  1.0000
  C   C1427     1.0  0.63756  0.16755  0.17839  1.0000
  H   H1128     1.0  0.40766  0.26100  0.21455  1.0000
  H   H1129     1.0  0.53763  0.08711  0.09235  1.0000
  H   H1130     1.0  0.55657  0.14061  0.06301  1.0000
  H   H1131     1.0  0.52525  0.16428  0.06229  1.0000
  H   H1132     1.0  0.49624  0.15432  0.05848  1.0000
  H   H1133     1.0  0.49890  0.12021  0.05515  1.0000
  H   H1134     1.0  0.53028  0.09619  0.05580  1.0000
  H   H1135     1.0  0.58260  0.12140  0.07978  1.0000
  H   H1136     1.0  0.61102  0.13722  0.07122  1.0000
  H   H1137     1.0  0.63521  0.13459  0.04030  1.0000
  H   H1138     1.0  0.63105  0.11577  0.01774  1.0000
  H   H1139     1.0  0.60283  0.10013  0.02574  1.0000
  P   P47       1.0  0.43160  0.27670  0.14286  1.0000
  S   S190      1.0  0.63243  0.28984  0.20131  1.0000
  C   C1428     1.0  0.45550  0.26903  0.12801  1.0000
  C   C1429     1.0  0.43414  0.32471  0.16176  1.0000
  C   C1430     1.0  0.64734  0.34308  0.17635  1.0000
  C   C1431     1.0  0.45888  0.25309  0.11883  1.0000
  H   H1140     1.0  0.56342  0.32123  0.09683  1.0000
  H   H1141     1.0  0.52895  0.01338  0.15485  1.0000
  C   C1432     1.0  0.61846  0.42724  0.13915  1.0000
  C   C1433     1.0  0.47758  0.24613  0.10840  1.0000
  C   C1434     1.0  0.43721  0.22835  0.18731  1.0000
  C   C1435     1.0  0.57310  0.19609  0.16976  1.0000
  C   C1436     1.0  0.55221  0.06690  0.11418  1.0000
  S   S191      1.0  0.63440  0.22502  0.15908  1.0000
  H   H1142     1.0  0.41570  0.31179  0.21164  1.0000
  H   H1143     1.0  0.50768  0.24926  0.09944  1.0000
  C   C1437     1.0  0.60584  0.21090  0.12464  1.0000
  H   H1144     1.0  0.39547  0.34593  0.13930  1.0000
  H   H1145     1.0  0.44487  0.21317  0.18896  1.0000
  C   C1438     1.0  0.52694  0.31807  0.14686  1.0000
  H   H1146     1.0  0.37301  0.27227  0.10494  1.0000
  C   C1439     1.0  0.51542  0.99135  0.17626  1.0000
  H   H1147     1.0  0.60659  0.32250  0.13995  1.0000
  H   H1148     1.0  0.51702  0.05543  0.20482  1.0000
  C   C1440     1.0  0.48969  0.11097  0.15550  1.0000
  C   C1441     1.0  0.54278  0.29258  0.11757  1.0000
  H   H1149     1.0  0.57820  0.30683  0.15376  1.0000
  C   C1442     1.0  0.44655  0.15220  0.20613  1.0000
  H   H1150     1.0  0.58599  0.20454  0.01888  1.0000
  C   C1443     1.0  0.65305  0.07875  0.16137  1.0000
  C   C1444     1.0  0.49413  0.34118  0.16697  1.0000
  H   H1151     1.0  0.59198  0.33660  0.08311  1.0000
  C   C1445     1.0  0.51302  0.34361  0.16593  1.0000
  C   C1446     1.0  0.52939  0.33203  0.15602  1.0000
  C   C1447     1.0  0.58881  0.33026  0.09860  1.0000
  C   C1448     1.0  0.57258  0.32146  0.10648  1.0000
  H   H1152     1.0  0.42487  0.22614  0.21807  1.0000
  C   C1449     1.0  0.40694  0.36162  0.20015  1.0000
  H   H1153     1.0  0.61394  0.17693  0.02506  1.0000
  C   C1450     1.0  0.55703  0.14186  0.21851  1.0000
  S   S192      1.0  0.56132  0.01971  0.21112  1.0000
  H   H1154     1.0  0.54392  0.33349  0.15618  1.0000
  C   C1451     1.0  0.65400  0.41261  0.15233  1.0000
  H   H1155     1.0  0.65281  0.42095  0.19345  1.0000
  H   H1156     1.0  0.41143  0.42261  0.12829  1.0000
  C   C1452     1.0  0.51260  0.06972  0.20870  1.0000
  C   C1453     1.0  0.54670  0.26446  0.19103  1.0000
  H   H1157     1.0  0.52592  0.22061  0.20198  1.0000
  C   C1454     1.0  0.55424  0.28095  0.15694  1.0000
  H   H1158     1.0  0.58334  0.03842  0.03261  1.0000
  C   C1455     1.0  0.62806  0.17607  0.19456  1.0000
  H   H1159     1.0  0.52649  0.28769  0.17704  1.0000
  C   C1456     1.0  0.57296  0.26864  0.15504  1.0000
  C   C1457     1.0  0.32885  0.47767  0.20342  1.0000
  C   C1458     1.0  0.52362  0.00802  0.17025  1.0000
  C   C1459     1.0  0.49391  0.20273  0.00792  1.0000
  C   C1460     1.0  0.63348  0.07774  0.16957  1.0000
  C   C1461     1.0  0.41721  0.34226  0.20526  1.0000
  H   H1160     1.0  0.64656  0.21890  0.21542  1.0000
  C   C1462     1.0  0.50469  0.10529  0.19888  1.0000
  H   H1161     1.0  0.49934  0.16207  0.98965  1.0000
  H   H1162     1.0  0.58155  0.27652  0.22231  1.0000
  H   H1163     1.0  0.61934  0.16091  0.10307  1.0000
  C   C1463     1.0  0.64247  0.34091  0.19670  1.0000
  H   H1164     1.0  0.59306  0.24515  0.16953  1.0000
  C   C1464     1.0  0.60914  0.37816  0.22359  1.0000
  C   C1465     1.0  0.63918  0.17889  0.10240  1.0000
  C   C1466     1.0  0.38776  0.36541  0.19685  1.0000
  H   H1165     1.0  0.63831  0.11952  0.20043  1.0000
  H   H1166     1.0  0.62674  0.13776  0.13306  1.0000
  C   C1467     1.0  0.63000  0.16295  0.11018  1.0000
  H   H1167     1.0  0.62894  0.06388  0.17282  1.0000
  S   S193      1.0  0.35547  0.35391  0.19315  1.0000
  C   C1468     1.0  0.53899  0.21342  0.19307  1.0000
  H   H1168     1.0  0.54795  0.14327  0.20817  1.0000
  C   C1469     1.0  0.57854  0.25450  0.17105  1.0000
  H   H1169     1.0  0.60480  0.43283  0.13393  1.0000
  H   H1170     1.0  0.62569  0.19183  0.19313  1.0000
  H   H1171     1.0  0.63537  0.18936  0.08947  1.0000
  C   C1470     1.0  0.50347  0.10671  0.21823  1.0000
  C   C1471     1.0  0.65255  0.39829  0.21935  1.0000
  H   H1172     1.0  0.63757  0.34365  0.15038  1.0000
  C   C1472     1.0  0.59986  0.39699  0.22687  1.0000
  H   H1173     1.0  0.46750  0.12569  0.21293  1.0000
  H   H1174     1.0  0.64456  0.40825  0.22905  1.0000
  H   H1175     1.0  0.65363  0.34065  0.20432  1.0000
  C   C1473     1.0  0.52739  0.30235  0.22121  1.0000
  H   H1176     1.0  0.41388  0.37371  0.19861  1.0000
  H   H1177     1.0  0.57423  0.11359  0.21328  1.0000
  C   C1474     1.0  0.65051  0.43130  0.14026  1.0000
  S   S194      1.0  0.48419  0.25099  0.22570  1.0000
  C   C1475     1.0  0.33517  0.46416  0.21955  1.0000
  C   C1476     1.0  0.57190  0.12511  0.22132  1.0000
  Fe  Fe95      1.0  0.65334  0.28324  0.17385  1.0000
  H   H1178     1.0  0.46378  0.00175  0.22966  1.0000
  H   H1179     1.0  0.65020  0.18320  0.21977  1.0000
  H   H1180     1.0  0.60015  0.20625  0.22744  1.0000
  C   C1477     1.0  0.65904  0.09652  0.15777  1.0000
  P   P48       1.0  0.61647  0.33727  0.23306  1.0000
  H   H1181     1.0  0.63090  0.09459  0.23242  1.0000
  C   C1478     1.0  0.65271  0.18174  0.11171  1.0000
  H   H1182     1.0  0.62255  0.13473  0.22900  1.0000
  H   H1183     1.0  0.65306  0.30712  0.22848  1.0000
  H   H1184     1.0  0.43576  0.14845  0.21923  1.0000
  C   C1479     1.0  0.65746  0.40544  0.19923  1.0000
  Fe  Fe96      1.0  0.48858  0.27713  0.23448  1.0000
  H   H1185     1.0  0.57317  0.98902  0.18918  1.0000
  Fe  Fe97      1.0  0.45207  0.26425  0.23429  1.0000
  C   C1480     1.0  0.50749  0.15852  0.23442  1.0000
  H   H1186     1.0  0.33378  0.06791  0.43381  1.0000
  S   S195      1.0  0.62364  0.11448  0.29428  1.0000
  Fe  Fe98      1.0  0.62232  0.12126  0.32323  1.0000
  S   S196      1.0  0.59245  0.12666  0.34286  1.0000
  C   C1481     1.0  0.63776  0.21894  0.24625  1.0000
  Fe  Fe99      1.0  0.46568  0.13935  0.33467  1.0000
  S   S197      1.0  0.47432  0.16073  0.30703  1.0000
  S   S198      1.0  0.45492  0.14826  0.36397  1.0000
  Fe  Fe100     1.0  0.47881  0.10450  0.31434  1.0000
  S   S199      1.0  0.48864  0.12274  0.28510  1.0000
  S   S200      1.0  0.47844  0.07247  0.32004  1.0000
  Fe  Fe101     1.0  0.50129  0.13722  0.30168  1.0000
  S   S201      1.0  0.53061  0.14527  0.28855  1.0000
  Fe  Fe102     1.0  0.46097  0.14438  0.29305  1.0000
  S   S202      1.0  0.44070  0.15774  0.27207  1.0000
  S   S203      1.0  0.49383  0.11704  0.33039  1.0000
  S   S204      1.0  0.44991  0.12501  0.32111  1.0000
  Fe  Fe103     1.0  0.35285  0.15714  0.42920  1.0000
  C   C1482     1.0  0.42784  0.06780  0.37746  1.0000
  S   S205      1.0  0.36352  0.15824  0.39687  1.0000
  H   H1187     1.0  0.58944  0.13583  0.25597  1.0000
  C   C1483     1.0  0.57655  0.29223  0.25971  1.0000
  H   H1188     1.0  0.49474  0.20674  0.27902  1.0000
  C   C1484     1.0  0.37054  0.05022  0.47249  1.0000
  S   S206      1.0  0.35284  0.12894  0.45159  1.0000
  S   S207      1.0  0.36035  0.17366  0.44787  1.0000
  C   C1485     1.0  0.60645  0.17568  0.33687  1.0000
  C   C1486     1.0  0.61714  0.05715  0.33709  1.0000
  C   C1487     1.0  0.38895  0.15535  0.38815  1.0000
  C   C1488     1.0  0.40116  0.15808  0.39903  1.0000
  C   C1489     1.0  0.42135  0.15644  0.39125  1.0000
  C   C1490     1.0  0.42941  0.15158  0.37283  1.0000
  C   C1491     1.0  0.41707  0.14920  0.36188  1.0000
  C   C1492     1.0  0.39690  0.15109  0.36952  1.0000
  H   H1189     1.0  0.39507  0.16158  0.41335  1.0000
  H   H1190     1.0  0.43080  0.15859  0.39966  1.0000
  H   H1191     1.0  0.42299  0.14605  0.34748  1.0000
  H   H1192     1.0  0.38744  0.14920  0.36099  1.0000
  C   C1493     1.0  0.43740  0.18331  0.26621  1.0000
  C   C1494     1.0  0.45297  0.19258  0.26372  1.0000
  Fe  Fe104     1.0  0.56045  0.03043  0.23785  1.0000
  H   H1193     1.0  0.53271  0.06159  0.26393  1.0000
  C   C1495     1.0  0.41581  0.21499  0.25899  1.0000
  C   C1496     1.0  0.41889  0.19453  0.26369  1.0000
  H   H1194     1.0  0.46734  0.18390  0.26555  1.0000
  S   S208      1.0  0.53842  0.01987  0.26402  1.0000
  C   C1497     1.0  0.33402  0.09865  0.42430  1.0000
  H   H1195     1.0  0.40685  0.18739  0.26570  1.0000
  C   C1498     1.0  0.57455  0.13256  0.32848  1.0000
  C   C1499     1.0  0.55608  0.12782  0.33632  1.0000
  C   C1500     1.0  0.54237  0.13157  0.32426  1.0000
  C   C1501     1.0  0.54711  0.14017  0.30440  1.0000
  C   C1502     1.0  0.56536  0.14531  0.29686  1.0000
  C   C1503     1.0  0.57897  0.14165  0.30884  1.0000
  H   H1196     1.0  0.55250  0.12097  0.35159  1.0000
  H   H1197     1.0  0.52823  0.12786  0.33039  1.0000
  H   H1198     1.0  0.56895  0.15232  0.28174  1.0000
  H   H1199     1.0  0.59286  0.14609  0.30288  1.0000
  H   H1200     1.0  0.39059  0.10835  0.37569  1.0000
  H   H1201     1.0  0.50349  0.01228  0.25971  1.0000
  H   H1202     1.0  0.55473  0.26263  0.24609  1.0000
  H   H1203     1.0  0.34173  0.26138  0.36566  1.0000
  H   H1204     1.0  0.63903  0.29885  0.29457  1.0000
  C   C1504     1.0  0.52218  0.03528  0.27900  1.0000
  C   C1505     1.0  0.50883  0.02702  0.29463  1.0000
  C   C1506     1.0  0.49551  0.03862  0.30708  1.0000
  C   C1507     1.0  0.49538  0.05859  0.30395  1.0000
  C   C1508     1.0  0.50872  0.06693  0.28832  1.0000
  C   C1509     1.0  0.52225  0.05523  0.27587  1.0000
  H   H1205     1.0  0.50883  0.01157  0.29714  1.0000
  H   H1206     1.0  0.48529  0.03210  0.31918  1.0000
  H   H1207     1.0  0.50864  0.08232  0.28591  1.0000
  C   C1510     1.0  0.63899  0.08023  0.26015  1.0000
  C   C1511     1.0  0.62462  0.04890  0.25676  1.0000
  C   C1512     1.0  0.61230  0.03919  0.33871  1.0000
  S   S209      1.0  0.51282  0.27389  0.25041  1.0000
  C   C1513     1.0  0.62904  0.27387  0.29263  1.0000
  H   H1208     1.0  0.52610  0.09561  0.37690  1.0000
  H   H1209     1.0  0.58327  0.05094  0.28801  1.0000
  C   C1514     1.0  0.65521  0.33521  0.26693  1.0000
  H   H1210     1.0  0.55355  0.02438  0.35917  1.0000
  C   C1515     1.0  0.56849  0.31168  0.25206  1.0000
  H   H1211     1.0  0.55024  0.00001  0.30195  1.0000
  C   C1516     1.0  0.50793  0.20736  0.26781  1.0000
  H   H1212     1.0  0.48266  0.14469  0.24697  1.0000
  C   C1517     1.0  0.53119  0.19464  0.24072  1.0000
  C   C1518     1.0  0.64004  0.06313  0.27467  1.0000
  H   H1213     1.0  0.40141  0.22362  0.25727  1.0000
  H   H1214     1.0  0.36969  0.05727  0.42496  1.0000
  H   H1215     1.0  0.57662  0.08808  0.32275  1.0000
  C   C1519     1.0  0.43559  0.06961  0.35743  1.0000
  C   C1520     1.0  0.40286  0.09715  0.37084  1.0000
  C   C1521     1.0  0.42034  0.03226  0.45181  1.0000
  H   H1216     1.0  0.59095  0.02465  0.33631  1.0000
  H   H1217     1.0  0.53184  0.11066  0.27460  1.0000
  H   H1218     1.0  0.58168  0.06807  0.25405  1.0000
  H   H1219     1.0  0.34909  0.16228  0.33800  1.0000
  C   C1522     1.0  0.57168  0.06374  0.28528  1.0000
  C   C1523     1.0  0.54191  0.20899  0.23873  1.0000
  C   C1524     1.0  0.63518  0.18721  0.26751  1.0000
  H   H1220     1.0  0.44856  0.05923  0.35217  1.0000
  H   H1221     1.0  0.34637  0.46050  0.24548  1.0000
  C   C1525     1.0  0.53994  0.07848  0.35471  1.0000
  C   C1526     1.0  0.63125  0.08148  0.24378  1.0000
  H   H1222     1.0  0.56847  0.38480  0.26983  1.0000
  H   H1223     1.0  0.62652  0.35150  0.26340  1.0000
  C   C1527     1.0  0.45005  0.21314  0.25824  1.0000
  C   C1528     1.0  0.43138  0.22431  0.25603  1.0000
  C   C1529     1.0  0.58512  0.39939  0.24346  1.0000
  C   C1530     1.0  0.55621  0.09004  0.26219  1.0000
  H   H1224     1.0  0.50503  0.09096  0.24772  1.0000
  C   C1531     1.0  0.54310  0.08740  0.29693  1.0000
  C   C1532     1.0  0.41053  0.11535  0.44177  1.0000
  H   H1225     1.0  0.48813  0.06926  0.35919  1.0000
  C   C1533     1.0  0.40911  0.05484  0.42356  1.0000
  C   C1534     1.0  0.36609  0.10673  0.41181  1.0000
  H   H1226     1.0  0.50627  0.18228  0.25824  1.0000
  H   H1227     1.0  0.40299  0.12100  0.45490  1.0000
  H   H1228     1.0  0.58508  0.35148  0.26445  1.0000
  H   H1229     1.0  0.63163  0.17843  0.28196  1.0000
  C   C1535     1.0  0.65335  0.31503  0.23929  1.0000
  C   C1536     1.0  0.61712  0.20646  0.32374  1.0000
  C   C1537     1.0  0.43782  0.11342  0.41419  1.0000
  H   H1230     1.0  0.35582  0.24129  0.27019  1.0000
  H   H1231     1.0  0.56719  0.28167  0.26575  1.0000
  C   C1538     1.0  0.59678  0.28620  0.25862  1.0000
  C   C1539     1.0  0.50266  0.07153  0.35825  1.0000
  H   H1232     1.0  0.45125  0.11790  0.40568  1.0000
  H   H1233     1.0  0.63316  0.18099  0.34069  1.0000
  S   S210      1.0  0.64340  0.15328  0.25330  1.0000
  H   H1234     1.0  0.51655  0.14827  0.24411  1.0000
  H   H1235     1.0  0.53230  0.09318  0.30866  1.0000
  C   C1540     1.0  0.63286  0.04745  0.27294  1.0000
  C   C1541     1.0  0.53730  0.06700  0.34286  1.0000
  H   H1236     1.0  0.55527  0.09722  0.24728  1.0000
  H   H1237     1.0  0.43431  0.13024  0.43609  1.0000
  C   C1542     1.0  0.51453  0.19351  0.25585  1.0000
  H   H1238     1.0  0.37333  0.04593  0.45858  1.0000
  H   H1239     1.0  0.51301  0.05806  0.23920  1.0000
  C   C1543     1.0  0.58909  0.36407  0.25367  1.0000
  H   H1240     1.0  0.35384  0.20171  0.39717  1.0000
  H   H1241     1.0  0.37491  0.11777  0.40627  1.0000
  C   C1544     1.0  0.36330  0.07277  0.42257  1.0000
  S   S211      1.0  0.64645  0.09556  0.33110  1.0000
  H   H1242     1.0  0.40264  0.04112  0.40319  1.0000
  H   H1243     1.0  0.51262  0.23330  0.27392  1.0000
  C   C1545     1.0  0.41114  0.08135  0.38433  1.0000
  C   C1546     1.0  0.54272  0.09736  0.27762  1.0000
  C   C1547     1.0  0.41907  0.01638  0.44477  1.0000
  H   H1244     1.0  0.33671  0.23648  0.39648  1.0000
  C   C1548     1.0  0.55057  0.99993  0.34905  1.0000
  H   H1245     1.0  0.60892  0.16058  0.34484  1.0000
  C   C1549     1.0  0.42967  0.10132  0.40758  1.0000
  H   H1246     1.0  0.40470  0.11153  0.34053  1.0000
  C   C1550     1.0  0.41188  0.09604  0.41812  1.0000
  H   H1247     1.0  0.43352  0.08679  0.32860  1.0000
  C   C1551     1.0  0.37514  0.08680  0.41512  1.0000
  C   C1552     1.0  0.60409  0.07467  0.33158  1.0000
  C   C1553     1.0  0.47548  0.03196  0.26110  1.0000
  H   H1248     1.0  0.43725  0.09636  0.39416  1.0000
  H   H1249     1.0  0.62278  0.02568  0.34227  1.0000
  H   H1250     1.0  0.55420  0.03361  0.29751  1.0000
  H   H1251     1.0  0.44662  0.04983  0.25969  1.0000
  H   H1252     1.0  0.54924  0.99052  0.36345  1.0000
  C   C1554     1.0  0.41274  0.01965  0.42722  1.0000
  H   H1253     1.0  0.59212  0.23859  0.23688  1.0000
  C   C1555     1.0  0.48828  0.15651  0.23628  1.0000
  H   H1254     1.0  0.43522  0.05609  0.38751  1.0000
  Fe  Fe105     1.0  0.64921  0.09059  0.30091  1.0000
  H   H1255     1.0  0.55291  0.31605  0.25194  1.0000
  C   C1556     1.0  0.35593  0.21264  0.38375  1.0000
  C   C1557     1.0  0.36837  0.20704  0.36688  1.0000
  C   C1558     1.0  0.37124  0.22089  0.34937  1.0000
  C   C1559     1.0  0.36162  0.24060  0.34910  1.0000
  P   P49       1.0  0.38738  0.21330  0.32765  1.0000
  C   C1560     1.0  0.38384  0.19008  0.32546  1.0000
  C   C1561     1.0  0.38171  0.23161  0.30636  1.0000
  C   C1562     1.0  0.36920  0.22924  0.29543  1.0000
  C   C1563     1.0  0.36504  0.24341  0.27888  1.0000
  C   C1564     1.0  0.37337  0.25999  0.27311  1.0000
  C   C1565     1.0  0.38557  0.26259  0.28407  1.0000
  C   C1566     1.0  0.38966  0.24854  0.30068  1.0000
  C   C1567     1.0  0.39919  0.17749  0.31541  1.0000
  C   C1568     1.0  0.39647  0.15960  0.31355  1.0000
  C   C1569     1.0  0.37842  0.15412  0.32163  1.0000
  C   C1570     1.0  0.36302  0.16661  0.33153  1.0000
  C   C1571     1.0  0.36566  0.18457  0.33335  1.0000
  C   C1572     1.0  0.41284  0.21007  0.32885  1.0000
  C   C1573     1.0  0.41900  0.20261  0.34677  1.0000
  C   C1574     1.0  0.43889  0.19899  0.34743  1.0000
  C   C1575     1.0  0.45279  0.20265  0.33024  1.0000
  C   C1576     1.0  0.44682  0.20991  0.31232  1.0000
  C   C1577     1.0  0.42697  0.21346  0.31160  1.0000
  Fe  Fe106     1.0  0.35796  0.14628  0.47094  1.0000
  H   H1256     1.0  0.34383  0.28514  0.40111  1.0000
  C   C1578     1.0  0.34627  0.23221  0.38332  1.0000
  H   H1257     1.0  0.37571  0.19184  0.36747  1.0000
  H   H1258     1.0  0.36367  0.25172  0.33593  1.0000
  H   H1259     1.0  0.36291  0.21634  0.29944  1.0000
  H   H1260     1.0  0.33880  0.12813  0.41364  1.0000
  H   H1261     1.0  0.37081  0.27062  0.25987  1.0000
  H   H1262     1.0  0.39254  0.27513  0.27920  1.0000
  H   H1263     1.0  0.39939  0.25069  0.30882  1.0000
  H   H1264     1.0  0.41332  0.18137  0.30896  1.0000
  H   H1265     1.0  0.40846  0.14999  0.30582  1.0000
  H   H1266     1.0  0.37642  0.14019  0.32027  1.0000
  H   H1267     1.0  0.62455  0.29453  0.24963  1.0000
  H   H1268     1.0  0.35354  0.19403  0.34104  1.0000
  H   H1269     1.0  0.40867  0.19900  0.36022  1.0000
  H   H1270     1.0  0.44360  0.19270  0.36125  1.0000
  H   H1271     1.0  0.46823  0.19938  0.33077  1.0000
  H   H1272     1.0  0.45758  0.21239  0.29890  1.0000
  H   H1273     1.0  0.42280  0.21840  0.29747  1.0000
  C   C1579     1.0  0.58937  0.19099  0.25654  1.0000
  C   C1580     1.0  0.60089  0.31953  0.24339  1.0000
  C   C1581     1.0  0.58851  0.22585  0.24761  1.0000
  C   C1582     1.0  0.58008  0.22757  0.26696  1.0000
  C   C1583     1.0  0.57552  0.21108  0.28107  1.0000
  C   C1584     1.0  0.58083  0.19274  0.27582  1.0000
  P   P50       1.0  0.56566  0.21259  0.30634  1.0000
  C   C1585     1.0  0.58643  0.20290  0.31818  1.0000
  C   C1586     1.0  0.55411  0.23764  0.30827  1.0000
  C   C1587     1.0  0.54163  0.24893  0.29550  1.0000
  C   C1588     1.0  0.53249  0.26832  0.29685  1.0000
  C   C1589     1.0  0.53544  0.27649  0.31119  1.0000
  C   C1590     1.0  0.54743  0.26520  0.32429  1.0000
  C   C1591     1.0  0.55665  0.24578  0.32294  1.0000
  C   C1592     1.0  0.60036  0.21427  0.31555  1.0000
  C   C1593     1.0  0.58625  0.07429  0.32760  1.0000
  C   C1594     1.0  0.55724  0.07014  0.30081  1.0000
  C   C1595     1.0  0.40243  0.10312  0.43529  1.0000
  C   C1596     1.0  0.58981  0.18338  0.32855  1.0000
  C   C1597     1.0  0.54652  0.19887  0.31738  1.0000
  C   C1598     1.0  0.54063  0.19448  0.33784  1.0000
  C   C1599     1.0  0.52553  0.18425  0.34660  1.0000
  C   C1600     1.0  0.51590  0.17873  0.33500  1.0000
  C   C1601     1.0  0.52135  0.18348  0.31465  1.0000
  C   C1602     1.0  0.53670  0.19335  0.30584  1.0000
  H   H1274     1.0  0.59368  0.17660  0.25292  1.0000
  Fe  Fe107     1.0  0.64512  0.13407  0.28283  1.0000
  H   H1275     1.0  0.62367  0.24704  0.28916  1.0000
  H   H1276     1.0  0.57752  0.24169  0.27081  1.0000
  H   H1277     1.0  0.57869  0.17976  0.28681  1.0000
  H   H1278     1.0  0.53898  0.24279  0.28443  1.0000
  H   H1279     1.0  0.52298  0.27693  0.28683  1.0000
  H   H1280     1.0  0.52820  0.29148  0.31229  1.0000
  H   H1281     1.0  0.54941  0.27143  0.33564  1.0000
  H   H1282     1.0  0.56551  0.23711  0.33347  1.0000
  H   H1283     1.0  0.59838  0.22904  0.30690  1.0000
  H   H1284     1.0  0.56406  0.16626  0.24995  1.0000
  H   H1285     1.0  0.46209  0.22034  0.25605  1.0000
  C   C1603     1.0  0.64121  0.17844  0.25114  1.0000
  H   H1286     1.0  0.57988  0.17387  0.32998  1.0000
  H   H1287     1.0  0.54787  0.19878  0.34703  1.0000
  H   H1288     1.0  0.52136  0.18047  0.36239  1.0000
  H   H1289     1.0  0.50435  0.17057  0.34174  1.0000
  H   H1290     1.0  0.51398  0.17904  0.30567  1.0000
  H   H1291     1.0  0.54091  0.19644  0.29008  1.0000
  H   H1292     1.0  0.47894  0.04066  0.26952  1.0000
  H   H1293     1.0  0.65609  0.34319  0.27743  1.0000
  C   C1604     1.0  0.62399  0.06588  0.24205  1.0000
  C   C1605     1.0  0.48937  0.01569  0.25563  1.0000
  C   C1606     1.0  0.34562  0.11262  0.41608  1.0000
  S   S212      1.0  0.64204  0.14299  0.31124  1.0000
  C   C1607     1.0  0.51809  0.22221  0.26503  1.0000
  H   H1294     1.0  0.41173  0.00734  0.42177  1.0000
  C   C1608     1.0  0.45732  0.03715  0.25550  1.0000
  P   P51       1.0  0.40168  0.07959  0.41030  1.0000
  H   H1295     1.0  0.62790  0.21523  0.32162  1.0000
  H   H1296     1.0  0.62898  0.21429  0.27765  1.0000
  C   C1609     1.0  0.41083  0.09904  0.35082  1.0000
  S   S213      1.0  0.45661  0.28857  0.24570  1.0000
  H   H1297     1.0  0.36418  0.08127  0.46040  1.0000
  C   C1610     1.0  0.57092  0.07346  0.26601  1.0000
  C   C1611     1.0  0.58085  0.05633  0.33007  1.0000
  H   H1298     1.0  0.64456  0.09235  0.26133  1.0000
  C   C1612     1.0  0.64333  0.28390  0.29228  1.0000
  H   H1299     1.0  0.60316  0.27088  0.26354  1.0000
  C   C1613     1.0  0.63359  0.20750  0.26505  1.0000
  C   C1614     1.0  0.53528  0.22278  0.25076  1.0000
  C   C1615     1.0  0.50541  0.08291  0.36996  1.0000
  H   H1300     1.0  0.34233  0.26535  0.43490  1.0000
  C   C1616     1.0  0.55360  0.02439  0.31194  1.0000
  C   C1617     1.0  0.41535  0.05142  0.44129  1.0000
  H   H1301     1.0  0.63362  0.03421  0.28415  1.0000
  C   C1618     1.0  0.33042  0.26751  0.42742  1.0000
  H   H1302     1.0  0.49300  0.08947  0.38004  1.0000
  C   C1619     1.0  0.40770  0.03879  0.41668  1.0000
  C   C1620     1.0  0.42709  0.08518  0.34410  1.0000
  H   H1303     1.0  0.38885  0.09916  0.44374  1.0000
  H   H1304     1.0  0.61366  0.28105  0.29508  1.0000
  C   C1621     1.0  0.62012  0.18718  0.33447  1.0000
  C   C1622     1.0  0.55119  0.00521  0.31444  1.0000
  C   C1623     1.0  0.42823  0.12047  0.43124  1.0000
  H   H1305     1.0  0.55412  0.08145  0.35374  1.0000
  H   H1306     1.0  0.51598  0.05534  0.33538  1.0000
  H   H1307     1.0  0.41632  0.06345  0.44717  1.0000
  C   C1624     1.0  0.55479  0.03142  0.32796  1.0000
  H   H1308     1.0  0.63129  0.05753  0.33943  1.0000
  C   C1625     1.0  0.52402  0.08645  0.36812  1.0000
  C   C1626     1.0  0.36552  0.07007  0.47350  1.0000
  P   P52       1.0  0.55745  0.05628  0.32539  1.0000
  C   C1627     1.0  0.55303  0.01909  0.34658  1.0000
  C   C1628     1.0  0.63463  0.25466  0.28954  1.0000
  C   C1629     1.0  0.59419  0.03873  0.33528  1.0000
  C   C1630     1.0  0.58053  0.13770  0.24530  1.0000
  H   H1309     1.0  0.42515  0.02977  0.46547  1.0000
  C   C1631     1.0  0.51848  0.06376  0.34464  1.0000
  C   C1632     1.0  0.57977  0.38294  0.25687  1.0000
  H   H1310     1.0  0.61911  0.03678  0.25549  1.0000
  H   H1311     1.0  0.60786  0.08860  0.33012  1.0000
  C   C1633     1.0  0.63847  0.33992  0.25880  1.0000
  C   C1634     1.0  0.59307  0.20759  0.24234  1.0000
  H   H1312     1.0  0.54311  0.23432  0.24862  1.0000
  C   C1635     1.0  0.34912  0.24619  0.36600  1.0000
  S   S214      1.0  0.42666  0.24994  0.24996  1.0000
  H   H1313     1.0  0.42299  0.00154  0.45293  1.0000
  C   C1636     1.0  0.33126  0.27857  0.40838  1.0000
  S   S215      1.0  0.65086  0.06104  0.29465  1.0000
  C   C1637     1.0  0.56610  0.15480  0.24199  1.0000
  C   C1638     1.0  0.34285  0.07871  0.42743  1.0000
  C   C1639     1.0  0.60892  0.29976  0.25056  1.0000
  C   C1640     1.0  0.65446  0.24542  0.28621  1.0000
  S   S216      1.0  0.59231  0.01813  0.23843  1.0000
  H   H1314     1.0  0.43913  0.03034  0.23970  1.0000
  C   C1641     1.0  0.45310  0.02615  0.24428  1.0000
  C   C1642     1.0  0.48515  0.00436  0.24464  1.0000
  C   C1643     1.0  0.58060  0.32525  0.24380  1.0000
  H   H1315     1.0  0.57794  0.41399  0.24600  1.0000
  S   S217      1.0  0.63608  0.24415  0.24293  1.0000
  C   C1644     1.0  0.63756  0.33016  0.24458  1.0000
  C   C1645     1.0  0.60364  0.36155  0.23685  1.0000
  H   H1316     1.0  0.65848  0.23060  0.28366  1.0000
  Fe  Fe108     1.0  0.32775  0.18189  0.45853  1.0000
  H   H1317     1.0  0.59464  0.10967  0.23747  1.0000
  H   H1318     1.0  0.57410  0.34012  0.23748  1.0000
  C   C1646     1.0  0.54969  0.99298  0.33297  1.0000
  C   C1647     1.0  0.46703  0.00990  0.23872  1.0000
  H   H1319     1.0  0.65655  0.37337  0.24286  1.0000
  C   C1648     1.0  0.53170  0.28489  0.23475  1.0000
  C   C1649     1.0  0.55129  0.27578  0.23532  1.0000
  C   C1650     1.0  0.58352  0.12294  0.23486  1.0000
  Fe  Fe109     1.0  0.58307  0.16137  0.73176  1.0000
  S   S218      1.0  0.60444  0.18760  0.68024  1.0000
  C   C1651     1.0  0.51958  0.23667  0.71698  1.0000
  C   C1652     1.0  0.37874  0.39744  0.70712  1.0000
  S   S219      1.0  0.58673  0.14891  0.70540  1.0000
  C   C1653     1.0  0.37975  0.38683  0.67759  1.0000
  Fe  Fe110     1.0  0.61600  0.15750  0.69638  1.0000
  C   C1654     1.0  0.56233  0.30607  0.71699  1.0000
  Fe  Fe111     1.0  0.57485  0.17978  0.69124  1.0000
  S   S220      1.0  0.55618  0.18660  0.66859  1.0000
  H   H1320     1.0  0.38169  0.40760  0.71424  1.0000
  C   C1655     1.0  0.59033  0.10017  0.69126  1.0000
  S   S221      1.0  0.46400  0.21846  0.68518  1.0000
  S   S222      1.0  0.36744  0.12729  0.65258  1.0000
  H   H1321     1.0  0.35322  0.05674  0.57489  1.0000
  S   S223      1.0  0.36036  0.12730  0.59965  1.0000
  C   C1656     1.0  0.38109  0.06762  0.53630  1.0000
  H   H1322     1.0  0.60074  0.25842  0.72735  1.0000
  C   C1657     1.0  0.37199  0.03583  0.48949  1.0000
  C   C1658     1.0  0.36111  0.16595  0.54169  1.0000
  C   C1659     1.0  0.37162  0.14652  0.54430  1.0000
  C   C1660     1.0  0.37767  0.13667  0.52865  1.0000
  C   C1661     1.0  0.37253  0.14591  0.51055  1.0000
  C   C1662     1.0  0.36215  0.16543  0.50787  1.0000
  C   C1663     1.0  0.35701  0.29679  0.69970  1.0000
  H   H1323     1.0  0.37524  0.13909  0.55832  1.0000
  H   H1324     1.0  0.38582  0.12170  0.53082  1.0000
  C   C1664     1.0  0.50802  0.06742  0.71841  1.0000
  H   H1325     1.0  0.50584  0.23264  0.71788  1.0000
  Fe  Fe112     1.0  0.44366  0.19908  0.70454  1.0000
  H   H1326     1.0  0.44813  0.12274  0.69439  1.0000
  H   H1327     1.0  0.47460  0.12318  0.63497  1.0000
  H   H1328     1.0  0.48559  0.14899  0.56325  1.0000
  C   C1665     1.0  0.36803  0.04127  0.50757  1.0000
  C   C1666     1.0  0.61238  0.22728  0.73065  1.0000
  C   C1667     1.0  0.37994  0.17548  0.67594  1.0000
  C   C1668     1.0  0.37081  0.18051  0.65981  1.0000
  C   C1669     1.0  0.36673  0.16593  0.65261  1.0000
  C   C1670     1.0  0.37181  0.14616  0.66147  1.0000
  C   C1671     1.0  0.38066  0.14119  0.67781  1.0000
  H   H1329     1.0  0.36713  0.19569  0.65269  1.0000
  H   H1330     1.0  0.35982  0.16999  0.64013  1.0000
  C   C1672     1.0  0.33012  0.20735  0.69929  1.0000
  H   H1331     1.0  0.37599  0.02044  0.48870  1.0000
  C   C1673     1.0  0.36982  0.25254  0.66734  1.0000
  H   H1332     1.0  0.38425  0.24312  0.66782  1.0000
  C   C1674     1.0  0.38495  0.15575  0.68489  1.0000
  C   C1675     1.0  0.55388  0.28955  0.72394  1.0000
  C   C1676     1.0  0.34500  0.22666  0.61645  1.0000
  H   H1333     1.0  0.38414  0.12600  0.68510  1.0000
  H   H1334     1.0  0.35829  0.45217  0.65535  1.0000
  C   C1677     1.0  0.51261  0.08596  0.71091  1.0000
  C   C1678     1.0  0.33405  0.21069  0.71601  1.0000
  C   C1679     1.0  0.53045  0.19453  0.67431  1.0000
  C   C1680     1.0  0.52053  0.20230  0.65879  1.0000
  C   C1681     1.0  0.50018  0.20943  0.66238  1.0000
  C   C1682     1.0  0.48940  0.20832  0.68155  1.0000
  C   C1683     1.0  0.49919  0.20018  0.69724  1.0000
  C   C1684     1.0  0.51978  0.19353  0.69360  1.0000
  H   H1335     1.0  0.52867  0.20317  0.64388  1.0000
  H   H1336     1.0  0.49276  0.21582  0.65023  1.0000
  C   C1685     1.0  0.39072  0.05179  0.54878  1.0000
  C   C1686     1.0  0.55215  0.24032  0.69906  1.0000
  H   H1337     1.0  0.54107  0.15212  0.71214  1.0000
  C   C1687     1.0  0.33613  0.32277  0.71583  1.0000
  H   H1338     1.0  0.38396  0.03948  0.55648  1.0000
  C   C1688     1.0  0.34961  0.44426  0.66791  1.0000
  H   H1339     1.0  0.41666  0.09454  0.52000  1.0000
  C   C1689     1.0  0.36475  0.36956  0.70914  1.0000
  P   P53       1.0  0.34980  0.35230  0.72335  1.0000
  C   C1690     1.0  0.65353  0.22729  0.64873  1.0000
  H   H1340     1.0  0.45284  0.22238  0.64594  1.0000
  S   S224      1.0  0.37869  0.13284  0.49157  1.0000
  C   C1691     1.0  0.33127  0.04263  0.54566  1.0000
  C   C1692     1.0  0.64351  0.21915  0.66704  1.0000
  H   H1341     1.0  0.64909  0.28599  0.60153  1.0000
  C   C1693     1.0  0.57311  0.31059  0.72820  1.0000
  C   C1694     1.0  0.41869  0.06715  0.54110  1.0000
  S   S225      1.0  0.43815  0.17502  0.69359  1.0000
  C   C1695     1.0  0.37293  0.30577  0.69609  1.0000
  P   P54       1.0  0.65331  0.17838  0.58516  1.0000
  H   H1342     1.0  0.35803  0.09105  0.49204  1.0000
  C   C1696     1.0  0.52553  0.09197  0.71876  1.0000
  H   H1343     1.0  0.33388  0.17194  0.69373  1.0000
  S   S226      1.0  0.56871  0.19175  0.71838  1.0000
  C   C1697     1.0  0.36900  0.38256  0.71823  1.0000
  C   C1698     1.0  0.62233  0.18554  0.61653  1.0000
  H   H1344     1.0  0.49094  0.19943  0.71211  1.0000
  H   H1345     1.0  0.47236  0.17760  0.61184  1.0000
  H   H1346     1.0  0.50534  0.09579  0.69963  1.0000
  C   C1699     1.0  0.34128  0.09187  0.53157  1.0000
  H   H1347     1.0  0.36579  0.36287  0.68124  1.0000
  C   C1700     1.0  0.39084  0.08270  0.52561  1.0000
  C   C1701     1.0  0.33192  0.12426  0.53952  1.0000
  H   H1348     1.0  0.63321  0.18699  0.62376  1.0000
  H   H1349     1.0  0.64554  0.20371  0.69634  1.0000
  H   H1350     1.0  0.39191  0.15169  0.69740  1.0000
  H   H1351     1.0  0.52737  0.18784  0.70564  1.0000
  C   C1702     1.0  0.57101  0.10013  0.70147  1.0000
  C   C1703     1.0  0.33271  0.44062  0.70196  1.0000
  S   S227      1.0  0.41162  0.21188  0.71354  1.0000
  H   H1352     1.0  0.38355  0.38878  0.66179  1.0000
  C   C1704     1.0  0.33334  0.03705  0.58492  1.0000
  H   H1353     1.0  0.56035  0.31546  0.70300  1.0000
  H   H1354     1.0  0.42259  0.20966  0.66191  1.0000
  C   C1705     1.0  0.52738  0.12839  0.73017  1.0000
  H   H1355     1.0  0.49713  0.15003  0.71432  1.0000
  C   C1706     1.0  0.34498  0.45001  0.68594  1.0000
  C   C1707     1.0  0.33403  0.22626  0.65118  1.0000
  H   H1356     1.0  0.60951  0.11602  0.66834  1.0000
  P   P55       1.0  0.53067  0.11639  0.71005  1.0000
  H   H1357     1.0  0.35428  0.23135  0.60252  1.0000
  H   H1358     1.0  0.50457  0.10896  0.61354  1.0000
  H   H1359     1.0  0.64734  0.15079  0.62350  1.0000
  H   H1360     1.0  0.47756  0.20633  0.62082  1.0000
  C   C1708     1.0  0.36169  0.07557  0.49156  1.0000
  H   H1361     1.0  0.63641  0.21893  0.59027  1.0000
  H   H1362     1.0  0.56898  0.25065  0.71343  1.0000
  H   H1363     1.0  0.51021  0.12172  0.57766  1.0000
  C   C1709     1.0  0.59445  0.11568  0.67577  1.0000
  H   H1364     1.0  0.57947  0.32350  0.72300  1.0000
  S   S228      1.0  0.38432  0.19431  0.68481  1.0000
  H   H1365     1.0  0.61721  0.17607  0.57432  1.0000
  C   C1710     1.0  0.52254  0.24320  0.73248  1.0000
  C   C1711     1.0  0.60274  0.18744  0.62642  1.0000
  C   C1712     1.0  0.58851  0.18528  0.61759  1.0000
  C   C1713     1.0  0.59384  0.18124  0.59878  1.0000
  C   C1714     1.0  0.61343  0.17930  0.58881  1.0000
  H   H1366     1.0  0.49757  0.06314  0.71272  1.0000
  C   C1715     1.0  0.33201  0.21481  0.61767  1.0000
  H   H1367     1.0  0.35835  0.17277  0.49386  1.0000
  H   H1368     1.0  0.60219  0.08841  0.69570  1.0000
  C   C1716     1.0  0.62785  0.18140  0.59763  1.0000
  C   C1717     1.0  0.36689  0.26786  0.65133  1.0000
  C   C1718     1.0  0.55514  0.24681  0.71453  1.0000
  Fe  Fe113     1.0  0.34878  0.13469  0.62955  1.0000
  H   H1369     1.0  0.33485  0.23111  0.66383  1.0000
  H   H1370     1.0  0.38392  0.09465  0.51540  1.0000
  H   H1371     1.0  0.59847  0.19045  0.64106  1.0000
  H   H1372     1.0  0.57336  0.18666  0.62544  1.0000
  H   H1373     1.0  0.58277  0.17955  0.59198  1.0000
  C   C1719     1.0  0.35687  0.17557  0.52330  1.0000
  H   H1374     1.0  0.56381  0.23884  0.68630  1.0000
  C   C1720     1.0  0.57924  0.13121  0.67050  1.0000
  H   H1375     1.0  0.36921  0.02998  0.52066  1.0000
  H   H1376     1.0  0.33777  0.31196  0.66744  1.0000
  H   H1377     1.0  0.35666  0.23736  0.69518  1.0000
  H   H1378     1.0  0.56834  0.08815  0.71358  1.0000
  C   C1721     1.0  0.51451  0.13146  0.69393  1.0000
  H   H1379     1.0  0.42819  0.09845  0.69754  1.0000
  H   H1380     1.0  0.33457  0.13496  0.54617  1.0000
  H   H1381     1.0  0.54515  0.28661  0.71526  1.0000
  H   H1382     1.0  0.37913  0.27048  0.63937  1.0000
  C   C1722     1.0  0.33218  0.27626  0.66604  1.0000
  P   P56       1.0  0.35734  0.06795  0.53220  1.0000
  C   C1723     1.0  0.49996  0.14727  0.69970  1.0000
  C   C1724     1.0  0.48883  0.15993  0.68650  1.0000
  C   C1725     1.0  0.49169  0.15674  0.66761  1.0000
  C   C1726     1.0  0.50581  0.14074  0.66186  1.0000
  C   C1727     1.0  0.51726  0.12818  0.67494  1.0000
  C   C1728     1.0  0.55562  0.11571  0.69635  1.0000
  C   C1729     1.0  0.55997  0.13137  0.68088  1.0000
  H   H1383     1.0  0.35049  0.46214  0.68720  1.0000
  C   C1730     1.0  0.40937  0.05171  0.55134  1.0000
  S   S229      1.0  0.64241  0.13612  0.68381  1.0000
  H   H1384     1.0  0.35624  0.24135  0.63233  1.0000
  H   H1385     1.0  0.45334  0.14741  0.66403  1.0000
  H   H1386     1.0  0.33113  0.21039  0.60468  1.0000
  H   H1387     1.0  0.43306  0.06717  0.54318  1.0000
  C   C1731     1.0  0.36225  0.06116  0.50879  1.0000
  H   H1388     1.0  0.47808  0.17235  0.69102  1.0000
  H   H1389     1.0  0.48297  0.16675  0.65753  1.0000
  H   H1390     1.0  0.50806  0.13825  0.64721  1.0000
  H   H1391     1.0  0.52847  0.11607  0.67022  1.0000
  H   H1392     1.0  0.58246  0.14365  0.65902  1.0000
  H   H1393     1.0  0.54864  0.14409  0.67713  1.0000
  H   H1394     1.0  0.53220  0.22994  0.68837  1.0000
  S   S230      1.0  0.61337  0.16736  0.72425  1.0000
  H   H1395     1.0  0.39144  0.41129  0.67816  1.0000
  C   C1732     1.0  0.38417  0.39955  0.68680  1.0000
  H   H1396     1.0  0.64397  0.17609  0.66363  1.0000
  C   C1733     1.0  0.33863  0.30527  0.70957  1.0000
  H   H1397     1.0  0.45547  0.16350  0.58450  1.0000
  S   S231      1.0  0.60561  0.22580  0.70936  1.0000
  C   C1734     1.0  0.40949  0.08256  0.52811  1.0000
  H   H1398     1.0  0.41765  0.18022  0.65401  1.0000
  H   H1399     1.0  0.62783  0.22006  0.66959  1.0000
  H   H1400     1.0  0.33880  0.34681  0.66155  1.0000
  Fe  Fe114     1.0  0.59944  0.19685  0.70882  1.0000
  C   C1735     1.0  0.53440  0.23521  0.70029  1.0000
  H   H1401     1.0  0.35635  0.10226  0.54811  1.0000
  Fe  Fe115     1.0  0.40628  0.18630  0.70471  1.0000
  H   H1402     1.0  0.41656  0.03967  0.56130  1.0000
  H   H1403     1.0  0.34899  0.20646  0.71845  1.0000
  C   C1736     1.0  0.38996  0.18130  0.60600  1.0000
  C   C1737     1.0  0.38871  0.16795  0.59558  1.0000
  C   C1738     1.0  0.40326  0.15095  0.59436  1.0000
  C   C1739     1.0  0.41908  0.14722  0.60363  1.0000
  C   C1740     1.0  0.42048  0.16056  0.61418  1.0000
  C   C1741     1.0  0.40571  0.17762  0.61534  1.0000
  P   P57       1.0  0.44065  0.15502  0.62676  1.0000
  C   C1742     1.0  0.44431  0.17693  0.63197  1.0000
  C   C1743     1.0  0.43590  0.13759  0.64944  1.0000
  C   C1744     1.0  0.42466  0.12371  0.65131  1.0000
  C   C1745     1.0  0.42213  0.10948  0.66849  1.0000
  C   C1746     1.0  0.43051  0.10919  0.68405  1.0000
  C   C1747     1.0  0.44167  0.12295  0.68231  1.0000
  C   C1748     1.0  0.44445  0.13705  0.66508  1.0000
  C   C1749     1.0  0.46126  0.18446  0.62267  1.0000
  C   C1750     1.0  0.46428  0.20084  0.62765  1.0000
  C   C1751     1.0  0.45032  0.20998  0.64172  1.0000
  C   C1752     1.0  0.43330  0.20280  0.65075  1.0000
  C   C1753     1.0  0.43049  0.18614  0.64619  1.0000
  C   C1754     1.0  0.46268  0.14429  0.61129  1.0000
  C   C1755     1.0  0.46606  0.15155  0.59099  1.0000
  C   C1756     1.0  0.48314  0.14341  0.57892  1.0000
  C   C1757     1.0  0.49701  0.12806  0.58704  1.0000
  C   C1758     1.0  0.49383  0.12088  0.60725  1.0000
  C   C1759     1.0  0.47676  0.12897  0.61936  1.0000
  H   H1404     1.0  0.37842  0.19426  0.60721  1.0000
  H   H1405     1.0  0.37633  0.17068  0.58865  1.0000
  H   H1406     1.0  0.40206  0.14053  0.58646  1.0000
  H   H1407     1.0  0.43003  0.13376  0.60282  1.0000
  H   H1408     1.0  0.40602  0.18803  0.62360  1.0000
  H   H1409     1.0  0.41754  0.12387  0.63975  1.0000
  H   H1410     1.0  0.41310  0.09909  0.66993  1.0000
  Fe  Fe116     1.0  0.43875  0.15773  0.72408  1.0000
  C   C1760     1.0  0.35412  0.24922  0.68281  1.0000
  Fe  Fe117     1.0  0.34277  0.15704  0.58905  1.0000
  S   S232      1.0  0.35258  0.17804  0.56150  1.0000
  H   H1411     1.0  0.38726  0.29895  0.68879  1.0000
  C   C1761     1.0  0.65561  0.18008  0.55923  1.0000
  H   H1412     1.0  0.34909  0.19073  0.52110  1.0000
  Fe  Fe118     1.0  0.33223  0.11712  0.60412  1.0000
  C   C1762     1.0  0.34241  0.42880  0.66591  1.0000
  C   C1763     1.0  0.34397  0.05149  0.55071  1.0000
  C   C1764     1.0  0.34444  0.10574  0.54037  1.0000
  C   C1765     1.0  0.65200  0.21596  0.59003  1.0000
  C   C1766     1.0  0.36988  0.37201  0.68868  1.0000
  C   C1767     1.0  0.34605  0.23233  0.63322  1.0000
  C   C1768     1.0  0.34468  0.04888  0.57048  1.0000
  C   C1769     1.0  0.37055  0.32313  0.70255  1.0000
  H   H1413     1.0  0.33933  0.13658  0.69681  1.0000
  H   H1414     1.0  0.34220  0.20097  0.68886  1.0000
  H   H1415     1.0  0.34612  0.29154  0.63815  1.0000
  S   S233      1.0  0.45874  0.12792  0.72696  1.0000
  S   S234      1.0  0.33321  0.16529  0.61852  1.0000
  H   H1416     1.0  0.36434  0.38145  0.73388  1.0000
  S   S235      1.0  0.33139  0.09164  0.59174  1.0000
  C   C1770     1.0  0.35208  0.33186  0.71228  1.0000
  H   H1417     1.0  0.32950  0.04532  0.53068  1.0000
  C   C1771     1.0  0.34817  0.27970  0.65068  1.0000
  H   H1418     1.0  0.64568  0.23414  0.63694  1.0000
  C   C1772     1.0  0.53371  0.14604  0.72661  1.0000
  C   C1773     1.0  0.65362  0.20983  0.68222  1.0000
  H   H1419     1.0  0.34536  0.42482  0.65180  1.0000
  S   S236      1.0  0.44666  0.18103  0.73420  1.0000
  C   C1774     1.0  0.33532  0.26095  0.68222  1.0000
  C   C1775     1.0  0.54043  0.24822  0.73139  1.0000
  H   H1420     1.0  0.35900  0.28309  0.69511  1.0000
  H   H1421     1.0  0.33340  0.03574  0.60020  1.0000
  H   H1422     1.0  0.65721  0.22069  0.72435  1.0000
  H   H1423     1.0  0.65286  0.15013  0.56245  1.0000
  C   C1776     1.0  0.65499  0.16373  0.55234  1.0000
  H   H1424     1.0  0.38324  0.32939  0.70048  1.0000
  H   H1425     1.0  0.65110  0.24524  0.59288  1.0000
  H   H1426     1.0  0.36048  0.46023  0.72895  1.0000
  H   H1427     1.0  0.65751  0.13910  0.71724  1.0000
  C   C1777     1.0  0.65776  0.16667  0.65892  1.0000
  C   C1778     1.0  0.66022  0.14431  0.61395  1.0000
  H   H1428     1.0  0.65793  0.15180  0.52694  1.0000
  C   C1779     1.0  0.65772  0.16463  0.53226  1.0000
  C   C1780     1.0  0.65822  0.19757  0.54573  1.0000
  C   C1781     1.0  0.33099  0.41876  0.68206  1.0000
  H   H1429     1.0  0.65862  0.21046  0.55054  1.0000
  C   C1782     1.0  0.66030  0.23098  0.59135  1.0000
  C   C1783     1.0  0.66068  0.18194  0.51893  1.0000
  C   C1784     1.0  0.66077  0.19844  0.52567  1.0000
  C   C1785     1.0  0.51626  0.05470  0.73378  1.0000
  S   S237      1.0  0.40611  0.16663  0.73451  1.0000
  C   C1786     1.0  0.53384  0.07897  0.73409  1.0000
  Fe  Fe119     1.0  0.59809  0.26612  0.84021  1.0000
  S   S238      1.0  0.58888  0.29846  0.82877  1.0000
  S   S239      1.0  0.59058  0.25403  0.87269  1.0000
  Fe  Fe120     1.0  0.61642  0.25730  0.79959  1.0000
  S   S240      1.0  0.60875  0.28885  0.78477  1.0000
  H   H1430     1.0  0.53571  0.16946  0.73898  1.0000
  Fe  Fe121     1.0  0.61877  0.29525  0.80920  1.0000
  C   C1787     1.0  0.35170  0.21359  0.81015  1.0000
  Fe  Fe122     1.0  0.57964  0.28923  0.80566  1.0000
  S   S241      1.0  0.55030  0.30117  0.79677  1.0000
  C   C1788     1.0  0.51513  0.13073  0.76431  1.0000
  S   S242      1.0  0.58649  0.25715  0.81848  1.0000
  H   H1431     1.0  0.54175  0.17395  0.98186  1.0000
  H   H1432     1.0  0.34607  0.34977  0.84606  1.0000
  C   C1789     1.0  0.34665  0.26388  0.86924  1.0000
  C   C1790     1.0  0.44504  0.00654  0.86771  1.0000
  S   S243      1.0  0.40002  0.20068  0.77119  1.0000
  H   H1433     1.0  0.51087  0.24426  0.74525  1.0000
  H   H1434     1.0  0.42728  0.22461  0.91721  1.0000
  C   C1791     1.0  0.37509  0.43578  0.74786  1.0000
  H   H1435     1.0  0.49097  0.00024  0.81200  1.0000
  C   C1792     1.0  0.58138  0.00094  0.75305  1.0000
  H   H1436     1.0  0.38520  0.34619  0.73981  1.0000
  Fe  Fe123     1.0  0.44634  0.24717  0.82718  1.0000
  S   S244      1.0  0.41932  0.24082  0.84861  1.0000
  S   S245      1.0  0.45157  0.24606  0.79525  1.0000
  Fe  Fe124     1.0  0.46235  0.25761  0.85725  1.0000
  S   S246      1.0  0.43648  0.25198  0.88123  1.0000
  S   S247      1.0  0.48576  0.26759  0.86542  1.0000
  Fe  Fe125     1.0  0.43950  0.22539  0.86928  1.0000
  S   S248      1.0  0.43235  0.19724  0.88813  1.0000
  Fe  Fe126     1.0  0.41841  0.26787  0.85869  1.0000
  S   S249      1.0  0.38923  0.28754  0.86763  1.0000
  S   S250      1.0  0.46699  0.22942  0.84703  1.0000
  S   S251      1.0  0.44400  0.27575  0.83560  1.0000
  Fe  Fe127     1.0  0.52945  0.05634  0.80554  1.0000
  S   S252      1.0  0.50493  0.07747  0.82038  1.0000
  S   S253      1.0  0.55370  0.06327  0.77982  1.0000
  S   S254      1.0  0.48809  0.03818  0.84604  1.0000
  Fe  Fe128     1.0  0.48558  0.05908  0.81749  1.0000
  S   S255      1.0  0.45560  0.07439  0.81145  1.0000
  Fe  Fe129     1.0  0.50896  0.05550  0.84821  1.0000
  S   S256      1.0  0.50064  0.06629  0.87671  1.0000
  S   S257      1.0  0.50958  0.03977  0.80009  1.0000
  S   S258      1.0  0.53543  0.03590  0.83366  1.0000
  Fe  Fe130     1.0  0.55136  0.15775  0.91344  1.0000
  S   S259      1.0  0.56415  0.17434  0.88424  1.0000
  Fe  Fe131     1.0  0.54808  0.11521  0.92925  1.0000
  S   S260      1.0  0.55780  0.08630  0.91922  1.0000
  Fe  Fe132     1.0  0.51548  0.14791  0.94276  1.0000
  H   H1437     1.0  0.63602  0.29694  0.84227  1.0000
  S   S261      1.0  0.52931  0.14092  0.91320  1.0000
  S   S262      1.0  0.57120  0.13153  0.92746  1.0000
  C   C1793     1.0  0.61117  0.15717  0.91439  1.0000
  H   H1438     1.0  0.61981  0.43498  0.84167  1.0000
  H   H1439     1.0  0.42436  0.04918  0.82804  1.0000
  C   C1794     1.0  0.44834  0.02514  0.83427  1.0000
  C   C1795     1.0  0.48641  0.19149  0.97678  1.0000
  S   S263      1.0  0.63766  0.31778  0.80179  1.0000
  C   C1796     1.0  0.51711  0.07221  0.88754  1.0000
  C   C1797     1.0  0.50951  0.08473  0.90094  1.0000
  C   C1798     1.0  0.52198  0.08961  0.91024  1.0000
  C   C1799     1.0  0.54210  0.08145  0.90666  1.0000
  C   C1800     1.0  0.54972  0.06883  0.89331  1.0000
  C   C1801     1.0  0.53729  0.06444  0.88352  1.0000
  H   H1440     1.0  0.49389  0.09069  0.90416  1.0000
  H   H1441     1.0  0.51597  0.09925  0.92058  1.0000
  H   H1442     1.0  0.56528  0.06251  0.89049  1.0000
  H   H1443     1.0  0.54326  0.05476  0.87322  1.0000
  C   C1802     1.0  0.38243  0.30873  0.85032  1.0000
  H   H1444     1.0  0.45702  0.02803  0.81958  1.0000
  H   H1445     1.0  0.35614  0.31960  0.86999  1.0000
  C   C1803     1.0  0.37499  0.41679  0.75892  1.0000
  C   C1804     1.0  0.44751  0.18499  0.90501  1.0000
  C   C1805     1.0  0.46457  0.19102  0.90480  1.0000
  C   C1806     1.0  0.47586  0.18128  0.91914  1.0000
  H   H1446     1.0  0.36965  0.19374  0.86303  1.0000
  H   H1447     1.0  0.46898  0.20321  0.89371  1.0000
  H   H1448     1.0  0.48887  0.18599  0.91922  1.0000
  H   H1449     1.0  0.35915  0.26936  0.78704  1.0000
  H   H1450     1.0  0.39481  0.42857  0.80966  1.0000
  H   H1451     1.0  0.39193  0.18265  0.88684  1.0000
  C   C1807     1.0  0.45784  0.11396  0.75084  1.0000
  C   C1808     1.0  0.44134  0.11739  0.76570  1.0000
  C   C1809     1.0  0.44068  0.10518  0.78438  1.0000
  C   C1810     1.0  0.45672  0.08993  0.78831  1.0000
  C   C1811     1.0  0.47344  0.08699  0.77363  1.0000
  C   C1812     1.0  0.47383  0.09880  0.75488  1.0000
  H   H1452     1.0  0.42895  0.12913  0.76269  1.0000
  H   H1453     1.0  0.42779  0.10757  0.79578  1.0000
  H   H1454     1.0  0.48589  0.07531  0.77656  1.0000
  H   H1455     1.0  0.33475  0.27647  0.86738  1.0000
  C   C1813     1.0  0.41474  0.21288  0.77778  1.0000
  C   C1814     1.0  0.42890  0.22168  0.76368  1.0000
  C   C1815     1.0  0.44023  0.23175  0.76920  1.0000
  C   C1816     1.0  0.43761  0.23284  0.78884  1.0000
  C   C1817     1.0  0.42374  0.22367  0.80292  1.0000
  C   C1818     1.0  0.41220  0.21392  0.79738  1.0000
  C   C1819     1.0  0.64320  0.23948  0.93102  1.0000
  H   H1456     1.0  0.45100  0.23872  0.75821  1.0000
  H   H1457     1.0  0.42185  0.22400  0.81809  1.0000
  H   H1458     1.0  0.40146  0.20698  0.80833  1.0000
  C   C1820     1.0  0.63831  0.25270  0.91421  1.0000
  C   C1821     1.0  0.38762  0.27203  0.81706  1.0000
  H   H1459     1.0  0.65262  0.29892  0.86776  1.0000
  H   H1460     1.0  0.37097  0.23314  0.80512  1.0000
  H   H1461     1.0  0.61496  0.47153  0.88186  1.0000
  C   C1822     1.0  0.51351  0.25041  0.78245  1.0000
  H   H1462     1.0  0.57778  0.24793  0.94661  1.0000
  H   H1463     1.0  0.51232  0.04055  0.73993  1.0000
  H   H1464     1.0  0.58894  0.19126  0.76464  1.0000
  C   C1823     1.0  0.58405  0.23129  0.87685  1.0000
  C   C1824     1.0  0.57349  0.22338  0.89510  1.0000
  C   C1825     1.0  0.56801  0.20534  0.89796  1.0000
  C   C1826     1.0  0.57230  0.19577  0.88230  1.0000
  C   C1827     1.0  0.58307  0.20359  0.86428  1.0000
  C   C1828     1.0  0.58931  0.22102  0.86171  1.0000
  H   H1465     1.0  0.56933  0.23127  0.90690  1.0000
  H   H1466     1.0  0.56026  0.19902  0.91211  1.0000
  H   H1467     1.0  0.58668  0.19621  0.85220  1.0000
  H   H1468     1.0  0.59825  0.22646  0.84795  1.0000
  C   C1829     1.0  0.53211  0.29223  0.81582  1.0000
  C   C1830     1.0  0.53583  0.28472  0.83470  1.0000
  C   C1831     1.0  0.52136  0.27756  0.84987  1.0000
  C   C1832     1.0  0.50321  0.27749  0.84621  1.0000
  C   C1833     1.0  0.49942  0.28498  0.82735  1.0000
  C   C1834     1.0  0.51381  0.29251  0.81221  1.0000
  H   H1469     1.0  0.54985  0.28451  0.83769  1.0000
  H   H1470     1.0  0.52442  0.27178  0.86440  1.0000
  H   H1471     1.0  0.48539  0.28509  0.82452  1.0000
  H   H1472     1.0  0.51092  0.29838  0.79767  1.0000
  C   C1835     1.0  0.57424  0.11272  0.75372  1.0000
  C   C1836     1.0  0.57066  0.09372  0.75780  1.0000
  C   C1837     1.0  0.55845  0.08686  0.77537  1.0000
  C   C1838     1.0  0.55015  0.09890  0.78904  1.0000
  C   C1839     1.0  0.55393  0.11780  0.78509  1.0000
  H   H1473     1.0  0.61305  0.20518  0.90562  1.0000
  H   H1474     1.0  0.54090  0.09365  0.80271  1.0000
  H   H1475     1.0  0.54715  0.12706  0.79564  1.0000
  H   H1476     1.0  0.62511  0.46274  0.81375  1.0000
  C   C1840     1.0  0.62806  0.21230  0.75853  1.0000
  C   C1841     1.0  0.62375  0.23047  0.76410  1.0000
  H   H1477     1.0  0.38870  0.27573  0.76222  1.0000
  C   C1842     1.0  0.60582  0.15354  0.93479  1.0000
  C   C1843     1.0  0.36016  0.40741  0.75931  1.0000
  C   C1844     1.0  0.34606  0.32267  0.77990  1.0000
  S   S264      1.0  0.53561  0.16758  0.94160  1.0000
  C   C1845     1.0  0.56586  0.12482  0.76736  1.0000
  H   H1478     1.0  0.51173  0.33716  0.77894  1.0000
  H   H1479     1.0  0.51955  0.15576  0.77245  1.0000
  C   C1846     1.0  0.34532  0.41707  0.74879  1.0000
  S   S265      1.0  0.56986  0.14881  0.76255  1.0000
  Fe  Fe133     1.0  0.55392  0.13984  0.95588  1.0000
  H   H1480     1.0  0.48903  0.24553  0.80601  1.0000
  C   C1847     1.0  0.60568  0.18737  0.93458  1.0000
  S   S266      1.0  0.63247  0.23225  0.78413  1.0000
  C   C1848     1.0  0.36509  0.32226  0.85545  1.0000
  C   C1849     1.0  0.35676  0.23006  0.81275  1.0000
  C   C1850     1.0  0.39410  0.31240  0.83163  1.0000
  H   H1481     1.0  0.56914  0.27315  0.76744  1.0000
  H   H1482     1.0  0.53036  0.20570  0.95601  1.0000
  C   C1851     1.0  0.33364  0.46773  0.82315  1.0000
  C   C1852     1.0  0.52150  0.26405  0.76683  1.0000
  H   H1483     1.0  0.34436  0.47677  0.84410  1.0000
  C   C1853     1.0  0.37818  0.33069  0.76941  1.0000
  H   H1484     1.0  0.57730  0.08434  0.74730  1.0000
  C   C1854     1.0  0.54766  0.24699  0.94956  1.0000
  P   P58       1.0  0.60020  0.20720  0.94752  1.0000
  H   H1485     1.0  0.61747  0.17878  0.88820  1.0000
  H   H1486     1.0  0.39218  0.33020  0.77263  1.0000
  H   H1487     1.0  0.36179  0.20462  0.80027  1.0000
  C   C1855     1.0  0.43119  0.21977  0.93145  1.0000
  H   H1488     1.0  0.51625  0.29388  0.75019  1.0000
  C   C1856     1.0  0.35556  0.34117  0.74710  1.0000
  H   H1489     1.0  0.65474  0.47952  0.95200  1.0000
  H   H1490     1.0  0.56548  0.19080  0.95314  1.0000
  C   C1857     1.0  0.61395  0.17578  0.90406  1.0000
  H   H1491     1.0  0.48608  0.26022  0.96496  1.0000
  C   C1858     1.0  0.44582  0.22676  0.93547  1.0000
  C   C1859     1.0  0.61721  0.45163  0.86345  1.0000
  C   C1860     1.0  0.53045  0.15609  0.74172  1.0000
  C   C1861     1.0  0.57441  0.21828  0.94922  1.0000
  S   S267      1.0  0.36329  0.36351  0.80555  1.0000
  H   H1492     1.0  0.41689  0.27736  0.80734  1.0000
  H   H1493     1.0  0.65025  0.48050  0.87466  1.0000
  H   H1494     1.0  0.61043  0.26113  0.75706  1.0000
  H   H1495     1.0  0.54262  0.26269  0.94840  1.0000
  C   C1862     1.0  0.34375  0.24202  0.82524  1.0000
  H   H1496     1.0  0.42085  0.18774  0.97433  1.0000
  C   C1863     1.0  0.61133  0.19081  0.91408  1.0000
  H   H1497     1.0  0.59776  0.16565  0.96056  1.0000
  C   C1864     1.0  0.42754  0.19893  0.96366  1.0000
  C   C1865     1.0  0.34183  0.33199  0.76153  1.0000
  H   H1498     1.0  0.58333  0.30234  0.75533  1.0000
  H   H1499     1.0  0.45596  0.02019  0.90310  1.0000
  C   C1866     1.0  0.53424  0.23517  0.95220  1.0000
  H   H1500     1.0  0.41352  0.27986  0.98266  1.0000
  C   C1867     1.0  0.61984  0.44913  0.84431  1.0000
  H   H1501     1.0  0.37990  0.23013  0.84530  1.0000
  C   C1868     1.0  0.40464  0.27708  0.78318  1.0000
  C   C1869     1.0  0.37151  0.26899  0.81157  1.0000
  C   C1870     1.0  0.33818  0.48154  0.83106  1.0000
  C   C1871     1.0  0.60464  0.19771  0.97210  1.0000
  C   C1872     1.0  0.50560  0.01414  0.89139  1.0000
  C   C1873     1.0  0.65763  0.14942  0.74272  1.0000
  H   H1502     1.0  0.58364  0.11789  0.74015  1.0000
  C   C1874     1.0  0.61041  0.23840  0.91773  1.0000
  H   H1503     1.0  0.38623  0.40940  0.76739  1.0000
  C   C1875     1.0  0.61741  0.46980  0.86691  1.0000
  C   C1876     1.0  0.48606  0.02183  0.89913  1.0000
  H   H1504     1.0  0.61509  0.43942  0.87561  1.0000
  S   S268      1.0  0.62887  0.26353  0.82246  1.0000
  H   H1505     1.0  0.63582  0.21558  0.95412  1.0000
  C   C1877     1.0  0.37166  0.27116  0.79163  1.0000
  C   C1878     1.0  0.57056  0.01230  0.76682  1.0000
  H   H1506     1.0  0.33638  0.45234  0.83004  1.0000
  H   H1507     1.0  0.49557  0.19457  0.81959  1.0000
  H   H1508     1.0  0.41783  0.27923  0.77238  1.0000
  H   H1509     1.0  0.44562  0.20077  0.98221  1.0000
  C   C1879     1.0  0.43885  0.31181  0.78153  1.0000
  C   C1880     1.0  0.43436  0.32376  0.76403  1.0000
  C   C1881     1.0  0.43191  0.34412  0.76117  1.0000
  C   C1882     1.0  0.43391  0.35252  0.77585  1.0000
  C   C1883     1.0  0.43802  0.34060  0.79366  1.0000
  C   C1884     1.0  0.44087  0.32020  0.79619  1.0000
  P   P59       1.0  0.44178  0.35114  0.81227  1.0000
  C   C1885     1.0  0.42739  0.37598  0.81063  1.0000
  C   C1886     1.0  0.43366  0.33686  0.83627  1.0000
  C   C1887     1.0  0.41442  0.34186  0.84689  1.0000
  C   C1888     1.0  0.40844  0.33082  0.86545  1.0000
  C   C1889     1.0  0.42151  0.31464  0.87357  1.0000
  C   C1890     1.0  0.44068  0.30964  0.86325  1.0000
  C   C1891     1.0  0.44673  0.32057  0.84465  1.0000
  C   C1892     1.0  0.43507  0.39123  0.81261  1.0000
  C   C1893     1.0  0.42339  0.41017  0.81209  1.0000
  C   C1894     1.0  0.52919  0.06048  0.74158  1.0000
  C   C1895     1.0  0.39631  0.39892  0.80756  1.0000
  C   C1896     1.0  0.40800  0.38007  0.80786  1.0000
  C   C1897     1.0  0.46774  0.35000  0.80935  1.0000
  C   C1898     1.0  0.48112  0.34488  0.79259  1.0000
  C   C1899     1.0  0.50134  0.34181  0.79152  1.0000
  C   C1900     1.0  0.50835  0.34381  0.80710  1.0000
  C   C1901     1.0  0.49516  0.34921  0.82367  1.0000
  C   C1902     1.0  0.47493  0.35235  0.82479  1.0000
  H   H1510     1.0  0.44096  0.29600  0.78369  1.0000
  Fe  Fe134     1.0  0.33572  0.38365  0.81770  1.0000
  H   H1511     1.0  0.56950  0.21816  0.74441  1.0000
  H   H1512     1.0  0.43234  0.36827  0.77323  1.0000
  H   H1513     1.0  0.44476  0.31084  0.80946  1.0000
  H   H1514     1.0  0.40374  0.35398  0.84094  1.0000
  H   H1515     1.0  0.39342  0.33441  0.87329  1.0000
  H   H1516     1.0  0.41663  0.30572  0.88767  1.0000
  H   H1517     1.0  0.45077  0.29702  0.86954  1.0000
  H   H1518     1.0  0.46160  0.31610  0.83685  1.0000
  H   H1519     1.0  0.44995  0.38856  0.81472  1.0000
  H   H1520     1.0  0.42928  0.42186  0.81384  1.0000
  H   H1521     1.0  0.57237  0.02716  0.76513  1.0000
  H   H1522     1.0  0.59141  0.19443  0.79721  1.0000
  H   H1523     1.0  0.40171  0.36852  0.80645  1.0000
  H   H1524     1.0  0.47611  0.34268  0.78057  1.0000
  H   H1525     1.0  0.61812  0.26221  0.89442  1.0000
  H   H1526     1.0  0.52405  0.34067  0.80651  1.0000
  H   H1527     1.0  0.50068  0.35037  0.83587  1.0000
  H   H1528     1.0  0.46493  0.35591  0.83801  1.0000
  C   C1903     1.0  0.57167  0.22265  0.79615  1.0000
  H   H1529     1.0  0.63586  0.19945  0.76712  1.0000
  C   C1904     1.0  0.46034  0.17407  0.78845  1.0000
  C   C1905     1.0  0.46781  0.15908  0.77787  1.0000
  C   C1906     1.0  0.46811  0.13959  0.78744  1.0000
  C   C1907     1.0  0.46151  0.13494  0.80767  1.0000
  C   C1908     1.0  0.45408  0.14991  0.81852  1.0000
  C   C1909     1.0  0.45336  0.16955  0.80866  1.0000
  P   P60       1.0  0.44466  0.14415  0.84462  1.0000
  C   C1910     1.0  0.42114  0.16037  0.85014  1.0000
  C   C1911     1.0  0.44119  0.11914  0.85132  1.0000
  C   C1912     1.0  0.42266  0.11511  0.85314  1.0000
  C   C1913     1.0  0.42024  0.09570  0.85769  1.0000
  C   C1914     1.0  0.43625  0.08021  0.86058  1.0000
  C   C1915     1.0  0.45466  0.08412  0.85878  1.0000
  C   C1916     1.0  0.45725  0.10342  0.85384  1.0000
  C   C1917     1.0  0.40857  0.16671  0.83670  1.0000
  C   C1918     1.0  0.39002  0.17863  0.84140  1.0000
  C   C1919     1.0  0.38395  0.18440  0.85945  1.0000
  C   C1920     1.0  0.39642  0.17814  0.87287  1.0000
  C   C1921     1.0  0.41491  0.16614  0.86827  1.0000
  C   C1922     1.0  0.46098  0.14786  0.85816  1.0000
  C   C1923     1.0  0.46515  0.13444  0.87530  1.0000
  C   C1924     1.0  0.47734  0.13774  0.88589  1.0000
  C   C1925     1.0  0.48493  0.15472  0.87989  1.0000
  C   C1926     1.0  0.48017  0.16855  0.86341  1.0000
  C   C1927     1.0  0.46835  0.16512  0.85254  1.0000
  H   H1530     1.0  0.45955  0.18924  0.78092  1.0000
  H   H1531     1.0  0.47310  0.16251  0.76220  1.0000
  H   H1532     1.0  0.47333  0.12802  0.77912  1.0000
  H   H1533     1.0  0.46189  0.11966  0.81453  1.0000
  H   H1534     1.0  0.44691  0.18146  0.81643  1.0000
  H   H1535     1.0  0.41010  0.12682  0.85077  1.0000
  H   H1536     1.0  0.40606  0.09266  0.85866  1.0000
  H   H1537     1.0  0.43461  0.06515  0.86375  1.0000
  H   H1538     1.0  0.46705  0.07214  0.86087  1.0000
  H   H1539     1.0  0.47185  0.10597  0.85193  1.0000
  H   H1540     1.0  0.41300  0.16234  0.82265  1.0000
  H   H1541     1.0  0.38043  0.18343  0.83095  1.0000
  H   H1542     1.0  0.42435  0.16150  0.87889  1.0000
  H   H1543     1.0  0.45883  0.12157  0.88085  1.0000
  H   H1544     1.0  0.48061  0.12734  0.89903  1.0000
  H   H1545     1.0  0.49397  0.15740  0.88844  1.0000
  H   H1546     1.0  0.48520  0.18219  0.85934  1.0000
  H   H1547     1.0  0.46461  0.17626  0.84013  1.0000
  C   C1928     1.0  0.59132  0.14571  0.80718  1.0000
  C   C1929     1.0  0.60183  0.15125  0.81792  1.0000
  C   C1930     1.0  0.59206  0.16410  0.83058  1.0000
  C   C1931     1.0  0.57188  0.17179  0.83215  1.0000
  C   C1932     1.0  0.56127  0.16640  0.82123  1.0000
  C   C1933     1.0  0.57110  0.15296  0.80918  1.0000
  P   P61       1.0  0.53484  0.17374  0.82501  1.0000
  C   C1934     1.0  0.52617  0.15111  0.83474  1.0000
  C   C1935     1.0  0.52654  0.19043  0.84165  1.0000
  C   C1936     1.0  0.52243  0.18361  0.86197  1.0000
  C   C1937     1.0  0.51540  0.19692  0.87448  1.0000
  C   C1938     1.0  0.51270  0.21707  0.86681  1.0000
  C   C1939     1.0  0.51775  0.22392  0.84668  1.0000
  C   C1940     1.0  0.52475  0.21068  0.83414  1.0000
  C   C1941     1.0  0.51324  0.14617  0.82598  1.0000
  C   C1942     1.0  0.50803  0.12789  0.83252  1.0000
  C   C1943     1.0  0.51569  0.11438  0.84776  1.0000
  C   C1944     1.0  0.52863  0.11907  0.85648  1.0000
  C   C1945     1.0  0.53400  0.13727  0.84990  1.0000
  C   C1946     1.0  0.52517  0.18641  0.80328  1.0000
  C   C1947     1.0  0.53709  0.18743  0.78456  1.0000
  C   C1948     1.0  0.52890  0.19641  0.76801  1.0000
  C   C1949     1.0  0.50876  0.20432  0.77005  1.0000
  C   C1950     1.0  0.49687  0.20383  0.78867  1.0000
  C   C1951     1.0  0.50503  0.19503  0.80523  1.0000
  H   H1548     1.0  0.59864  0.13543  0.79760  1.0000
  H   H1549     1.0  0.61743  0.14530  0.81676  1.0000
  H   H1550     1.0  0.60007  0.16788  0.83943  1.0000
  H   H1551     1.0  0.56460  0.18148  0.84227  1.0000
  H   H1552     1.0  0.56295  0.14774  0.80170  1.0000
  H   H1553     1.0  0.52471  0.16811  0.86827  1.0000
  H   H1554     1.0  0.51233  0.19155  0.89012  1.0000
  H   H1555     1.0  0.50682  0.22742  0.87642  1.0000
  H   H1556     1.0  0.51620  0.23951  0.84080  1.0000
  H   H1557     1.0  0.52876  0.21628  0.81859  1.0000
  H   H1558     1.0  0.50743  0.15603  0.81381  1.0000
  H   H1559     1.0  0.49828  0.12403  0.82557  1.0000
  H   H1560     1.0  0.51184  0.10016  0.85260  1.0000
  H   H1561     1.0  0.53479  0.10844  0.86813  1.0000
  H   H1562     1.0  0.54461  0.14031  0.85641  1.0000
  H   H1563     1.0  0.55262  0.18112  0.78263  1.0000
  H   H1564     1.0  0.53821  0.19695  0.75361  1.0000
  H   H1565     1.0  0.50234  0.21082  0.75723  1.0000
  H   H1566     1.0  0.48129  0.21020  0.79029  1.0000
  H   H1567     1.0  0.41153  0.19977  0.94185  1.0000
  C   C1952     1.0  0.40399  0.41399  0.80968  1.0000
  C   C1953     1.0  0.52124  0.14841  0.76059  1.0000
  C   C1954     1.0  0.62286  0.46477  0.82859  1.0000
  C   C1955     1.0  0.55743  0.00445  0.78291  1.0000
  C   C1956     1.0  0.35208  0.25741  0.88748  1.0000
  H   H1568     1.0  0.40765  0.30223  0.82773  1.0000
  P   P62       1.0  0.54472  0.25637  0.75137  1.0000
  C   C1957     1.0  0.47557  0.99710  0.88908  1.0000
  H   H1569     1.0  0.57254  0.22382  0.81057  1.0000
  H   H1570     1.0  0.47047  0.00117  0.84482  1.0000
  H   H1571     1.0  0.50373  0.27018  0.90056  1.0000
  C   C1958     1.0  0.40417  0.27590  0.80291  1.0000
  C   C1959     1.0  0.47023  0.26432  0.96884  1.0000
  H   H1572     1.0  0.52942  0.24201  0.89086  1.0000
  C   C1960     1.0  0.51049  0.28321  0.76234  1.0000
  H   H1573     1.0  0.33527  0.31590  0.79101  1.0000
  H   H1574     1.0  0.37201  0.23653  0.90443  1.0000
  C   C1961     1.0  0.36026  0.44548  0.73734  1.0000
  C   C1962     1.0  0.46984  0.16585  0.93382  1.0000
  H   H1575     1.0  0.55226  0.25074  0.79089  1.0000
  S   S269      1.0  0.33682  0.40632  0.83344  1.0000
  Fe  Fe135     1.0  0.51403  0.02052  0.82904  1.0000
  P   P63       1.0  0.35063  0.26260  0.82979  1.0000
  C   C1963     1.0  0.44184  0.16929  0.91943  1.0000
  C   C1964     1.0  0.51793  0.23968  0.90374  1.0000
  C   C1965     1.0  0.50356  0.25555  0.90936  1.0000
  H   H1576     1.0  0.38646  0.44314  0.74776  1.0000
  C   C1966     1.0  0.58092  0.20431  0.77028  1.0000
  H   H1577     1.0  0.50170  0.20265  0.93823  1.0000
  C   C1967     1.0  0.56032  0.23792  0.78485  1.0000
  C   C1968     1.0  0.58214  0.20597  0.78875  1.0000
  H   H1578     1.0  0.54332  0.08340  0.74087  1.0000
  H   H1579     1.0  0.50877  0.12431  0.77910  1.0000
  C   C1969     1.0  0.45280  0.15995  0.93396  1.0000
  H   H1580     1.0  0.42871  0.16458  0.91961  1.0000
  C   C1970     1.0  0.35935  0.33932  0.84189  1.0000
  C   C1971     1.0  0.36738  0.24116  0.89050  1.0000
  S   S270      1.0  0.48273  0.15436  0.95276  1.0000
  S   S271      1.0  0.53259  0.12076  0.95917  1.0000
  H   H1581     1.0  0.64669  0.45140  0.94394  1.0000
  C   C1972     1.0  0.61369  0.24705  0.75294  1.0000
  H   H1582     1.0  0.39732  0.33217  0.80360  1.0000
  C   C1973     1.0  0.56076  0.20651  0.95209  1.0000
  C   C1974     1.0  0.36416  0.32217  0.78393  1.0000
  C   C1975     1.0  0.51691  0.22066  0.91411  1.0000
  H   H1583     1.0  0.34479  0.26533  0.89912  1.0000
  H   H1584     1.0  0.52738  0.20826  0.90908  1.0000
  C   C1976     1.0  0.37708  0.23118  0.87538  1.0000
  H   H1585     1.0  0.43094  0.22095  0.74849  1.0000
  H   H1586     1.0  0.38929  0.21889  0.87764  1.0000
  C   C1977     1.0  0.38828  0.32939  0.81802  1.0000
  H   H1587     1.0  0.44813  0.14805  0.94529  1.0000
  C   C1978     1.0  0.48863  0.25247  0.92583  1.0000
  H   H1588     1.0  0.47733  0.26494  0.92946  1.0000
  C   C1979     1.0  0.63171  0.22568  0.94119  1.0000
  H   H1589     1.0  0.64715  0.26344  0.90633  1.0000
  C   C1980     1.0  0.55952  0.23666  0.76594  1.0000
  C   C1981     1.0  0.62333  0.48289  0.83198  1.0000
  P   P64       1.0  0.46983  0.22929  0.95919  1.0000
  C   C1982     1.0  0.37182  0.23770  0.85705  1.0000
  C   C1983     1.0  0.35678  0.25431  0.85374  1.0000
  H   H1590     1.0  0.63056  0.17596  0.96373  1.0000
  C   C1984     1.0  0.48832  0.23346  0.93715  1.0000
  C   C1985     1.0  0.50217  0.21754  0.93067  1.0000
  C   C1986     1.0  0.56978  0.21963  0.75885  1.0000
  C   C1987     1.0  0.64895  0.31898  0.82034  1.0000
  H   H1591     1.0  0.52137  0.23535  0.78573  1.0000
  C   C1988     1.0  0.45853  0.25204  0.96756  1.0000
  C   C1989     1.0  0.42222  0.20573  0.94542  1.0000
  H   H1592     1.0  0.51880  0.24166  0.95303  1.0000
  C   C1990     1.0  0.37078  0.34277  0.82306  1.0000
  C   C1991     1.0  0.56766  0.23857  0.94832  1.0000
  C   C1992     1.0  0.45135  0.21989  0.95373  1.0000
  C   C1993     1.0  0.57544  0.29860  0.74634  1.0000
  C   C1994     1.0  0.61508  0.22513  0.93470  1.0000
  H   H1593     1.0  0.38757  0.27123  0.83226  1.0000
  C   C1995     1.0  0.45590  0.00996  0.84854  1.0000
  H   H1594     1.0  0.59781  0.23821  0.91229  1.0000
  C   C1996     1.0  0.49508  0.25607  0.79387  1.0000
  H   H1595     1.0  0.65592  0.23994  0.93617  1.0000
  H   H1596     1.0  0.61265  0.14570  0.90657  1.0000
  C   C1997     1.0  0.42990  0.03711  0.83908  1.0000
  C   C1998     1.0  0.51774  0.12097  0.74912  1.0000
  H   H1597     1.0  0.36733  0.31514  0.79828  1.0000
  H   H1598     1.0  0.45293  0.23731  0.92424  1.0000
  H   H1599     1.0  0.65170  0.26863  0.76656  1.0000
  C   C1999     1.0  0.64578  0.30701  0.83896  1.0000
  H   H1600     1.0  0.60328  0.13921  0.94285  1.0000
  H   H1601     1.0  0.48657  0.09619  0.74348  1.0000
  C   C2000     1.0  0.48420  0.27515  0.78935  1.0000
  C   C2001     1.0  0.49183  0.28872  0.77357  1.0000
  H   H1602     1.0  0.46982  0.27929  0.79808  1.0000
  H   H1603     1.0  0.48339  0.30352  0.77019  1.0000
  C   C2002     1.0  0.62219  0.21064  0.74198  1.0000
  C   C2003     1.0  0.65521  0.30813  0.85337  1.0000
  H   H1604     1.0  0.38116  0.40171  0.80605  1.0000
  H   H1605     1.0  0.54918  0.01317  0.79372  1.0000
  C   C2004     1.0  0.60286  0.16859  0.94483  1.0000
  H   H1606     1.0  0.35991  0.39280  0.76816  1.0000
  H   H1607     1.0  0.34821  0.30091  0.83753  1.0000
  C   C2005     1.0  0.56723  0.28196  0.75323  1.0000
  Fe  Fe136     1.0  0.41404  0.19147  0.74240  1.0000
  H   H1608     1.0  0.42856  0.35341  0.74755  1.0000
  H   H1609     1.0  0.65058  0.13817  0.75288  1.0000
  C   C2006     1.0  0.54076  0.21493  0.95369  1.0000
  C   C2007     1.0  0.33389  0.20854  0.82041  1.0000
  C   C2008     1.0  0.42660  0.01879  0.87256  1.0000
  H   H1610     1.0  0.48330  0.18684  0.96503  1.0000
  H   H1611     1.0  0.41823  0.01700  0.88739  1.0000
  H   H1612     1.0  0.51231  0.10764  0.75241  1.0000
  H   H1613     1.0  0.62558  0.19658  0.73783  1.0000
  C   C2009     1.0  0.62067  0.48553  0.85118  1.0000
  H   H1614     1.0  0.59156  0.00708  0.74059  1.0000
  H   H1615     1.0  0.43290  0.31721  0.75267  1.0000
  H   H1616     1.0  0.48255  0.03476  0.90545  1.0000
  H   H1617     1.0  0.51709  0.02114  0.89177  1.0000
  H   H1618     1.0  0.33011  0.19566  0.81846  1.0000
  C   C2010     1.0  0.38830  0.27492  0.77751  1.0000
  C   C2011     1.0  0.44184  0.20616  0.96793  1.0000
  C   C2012     1.0  0.62194  0.25210  0.90754  1.0000
  H   H1619     1.0  0.53527  0.05085  0.75380  1.0000
  S   S272      1.0  0.57045  0.13694  0.97979  1.0000
  C   C2013     1.0  0.48135  0.21140  0.97787  1.0000
  C   C2014     1.0  0.62071  0.18229  0.97566  1.0000
  C   C2015     1.0  0.37403  0.33998  0.75094  1.0000
  C   C2016     1.0  0.47107  0.01351  0.89778  1.0000
  H   H1620     1.0  0.43440  0.30146  0.98469  1.0000
  H   H1621     1.0  0.40485  0.04344  0.86194  1.0000
  C   C2017     1.0  0.60828  0.24550  0.73608  1.0000
  C   C2018     1.0  0.46155  0.28205  0.97503  1.0000
  H   H1622     1.0  0.65765  0.24764  0.73927  1.0000
  C   C2019     1.0  0.41900  0.03391  0.85820  1.0000
  C   C2020     1.0  0.55646  0.27719  0.74205  1.0000
  H   H1623     1.0  0.33380  0.40970  0.74940  1.0000
  H   H1624     1.0  0.42859  0.24859  0.97188  1.0000
  C   C2021     1.0  0.43800  0.25773  0.97271  1.0000
  H   H1625     1.0  0.65964  0.16306  0.76522  1.0000
  H   H1626     1.0  0.65788  0.30083  0.76688  1.0000
  C   C2022     1.0  0.33481  0.30143  0.83298  1.0000
  C   C2023     1.0  0.33184  0.28483  0.82825  1.0000
  H   H1627     1.0  0.47068  0.29150  0.97586  1.0000
  C   C2024     1.0  0.44112  0.28765  0.98001  1.0000
  C   C2025     1.0  0.42937  0.27549  0.97888  1.0000
  C   C2026     1.0  0.51017  0.99806  0.88238  1.0000
  C   C2027     1.0  0.34507  0.43630  0.73802  1.0000
  H   H1628     1.0  0.32783  0.33206  0.75851  1.0000
  H   H1629     1.0  0.52523  0.99262  0.87560  1.0000
  C   C2028     1.0  0.49523  0.98960  0.88115  1.0000
  H   H1630     1.0  0.66073  0.44250  0.83816  1.0000
  H   H1631     1.0  0.62819  0.55118  0.22767  1.0000
  Fe  Fe137     1.0  0.57077  0.85305  0.21803  1.0000
  S   S273      1.0  0.56973  0.87037  0.18730  1.0000
  S   S274      1.0  0.59698  0.82896  0.22411  1.0000
  H   H1632     1.0  0.52816  0.70383  0.99892  1.0000
  S   S275      1.0  0.52450  0.88924  0.20539  1.0000
  C   C2029     1.0  0.63842  0.55250  0.14448  1.0000
  Fe  Fe138     1.0  0.54030  0.86246  0.19300  1.0000
  S   S276      1.0  0.52587  0.85397  0.17271  1.0000
  Fe  Fe139     1.0  0.55407  0.89580  0.20223  1.0000
  S   S277      1.0  0.55333  0.92846  0.19162  1.0000
  C   C2030     1.0  0.37628  0.49453  0.17144  1.0000
  C   C2031     1.0  0.50045  0.86547  0.01631  1.0000
  Fe  Fe140     1.0  0.62616  0.61325  0.23132  1.0000
  Fe  Fe141     1.0  0.61479  0.65260  0.20590  1.0000
  S   S278      1.0  0.60686  0.62356  0.20923  1.0000
  S   S279      1.0  0.62409  0.67113  0.17629  1.0000
  H   H1633     1.0  0.49920  0.54722  0.23334  1.0000
  H   H1634     1.0  0.59615  0.71972  0.21799  1.0000
  H   H1635     1.0  0.36286  0.54123  0.08778  1.0000
  H   H1636     1.0  0.37376  0.50939  0.16300  1.0000
  H   H1637     1.0  0.50964  0.91502  0.23427  1.0000
  Fe  Fe142     1.0  0.47054  0.64922  0.19128  1.0000
  S   S280      1.0  0.45703  0.67906  0.19785  1.0000
  C   C2032     1.0  0.50426  0.67394  0.23199  1.0000
  Fe  Fe143     1.0  0.43162  0.63682  0.20111  1.0000
  S   S281      1.0  0.41458  0.66572  0.20872  1.0000
  S   S282      1.0  0.41888  0.61017  0.20507  1.0000
  Fe  Fe144     1.0  0.43436  0.67890  0.18183  1.0000
  S   S283      1.0  0.42249  0.70620  0.16142  1.0000
  C   C2033     1.0  0.55307  0.71660  0.99537  1.0000
  C   C2034     1.0  0.56610  0.53450  0.19300  1.0000
  S   S284      1.0  0.44937  0.65020  0.17283  1.0000
  C   C2035     1.0  0.64875  0.61348  0.16716  1.0000
  H   H1638     1.0  0.64410  0.74751  0.14440  1.0000
  C   C2036     1.0  0.66003  0.51577  0.20536  1.0000
  Fe  Fe145     1.0  0.54810  0.76950  0.11576  1.0000
  S   S285      1.0  0.56354  0.74799  0.09603  1.0000
  S   S286      1.0  0.56620  0.78550  0.12540  1.0000
  Fe  Fe146     1.0  0.50843  0.75981  0.11986  1.0000
  S   S287      1.0  0.52037  0.73733  0.10106  1.0000
  S   S288      1.0  0.47612  0.76936  0.13185  1.0000
  Fe  Fe147     1.0  0.54540  0.72769  0.11705  1.0000
  S   S289      1.0  0.55672  0.69539  0.12760  1.0000
  Fe  Fe148     1.0  0.53745  0.75930  0.08149  1.0000
  S   S290      1.0  0.54148  0.76517  0.04854  1.0000
  S   S291      1.0  0.53173  0.74813  0.13784  1.0000
  S   S292      1.0  0.52378  0.78283  0.09910  1.0000
  C   C2037     1.0  0.52671  0.55662  0.22155  1.0000
  H   H1639     1.0  0.65153  0.69162  0.18406  1.0000
  S   S293      1.0  0.36717  0.60965  0.14612  1.0000
  H   H1640     1.0  0.49632  0.60276  0.19316  1.0000
  H   H1641     1.0  0.63362  0.64148  0.15332  1.0000
  H   H1642     1.0  0.39591  0.54579  0.08768  1.0000
  C   C2038     1.0  0.53698  0.70850  0.00626  1.0000
  C   C2039     1.0  0.48806  0.85418  0.01446  1.0000
  C   C2040     1.0  0.58250  0.61314  0.15091  1.0000
  H   H1643     1.0  0.59230  0.75690  0.18649  1.0000
  C   C2041     1.0  0.65169  0.54556  0.18139  1.0000
  H   H1644     1.0  0.48100  0.70448  0.01372  1.0000
  C   C2042     1.0  0.64885  0.71852  0.16247  1.0000
  H   H1645     1.0  0.49145  0.62762  0.00607  1.0000
  C   C2043     1.0  0.47424  0.88481  0.22126  1.0000
  C   C2044     1.0  0.61240  0.54478  0.12571  1.0000
  H   H1646     1.0  0.36843  0.61007  0.07873  1.0000
  C   C2045     1.0  0.49720  0.75165  0.02065  1.0000
  C   C2046     1.0  0.51362  0.75871  0.00903  1.0000
  C   C2047     1.0  0.59775  0.73863  0.00664  1.0000
  C   C2048     1.0  0.52406  0.76012  0.03815  1.0000
  C   C2049     1.0  0.50747  0.75333  0.04979  1.0000
  C   C2050     1.0  0.49407  0.74920  0.04103  1.0000
  C   C2051     1.0  0.47856  0.89534  0.00400  1.0000
  C   C2052     1.0  0.34119  0.60098  0.09278  1.0000
  H   H1647     1.0  0.50487  0.75133  0.06550  1.0000
  H   H1648     1.0  0.48129  0.74399  0.05004  1.0000
  C   C2053     1.0  0.40527  0.60989  0.18807  1.0000
  C   C2054     1.0  0.40243  0.62561  0.17233  1.0000
  C   C2055     1.0  0.39105  0.62514  0.15932  1.0000
  C   C2056     1.0  0.38201  0.60931  0.16226  1.0000
  C   C2057     1.0  0.38491  0.59356  0.17795  1.0000
  C   C2058     1.0  0.39678  0.59372  0.19063  1.0000
  H   H1649     1.0  0.40894  0.63812  0.17023  1.0000
  H   H1650     1.0  0.38883  0.63727  0.14719  1.0000
  H   H1651     1.0  0.37817  0.58118  0.18020  1.0000
  H   H1652     1.0  0.39904  0.58148  0.20272  1.0000
  C   C2059     1.0  0.46192  0.75120  0.13963  1.0000
  C   C2060     1.0  0.44147  0.75718  0.14244  1.0000
  C   C2061     1.0  0.42957  0.74326  0.14872  1.0000
  C   C2062     1.0  0.43798  0.72323  0.15286  1.0000
  C   C2063     1.0  0.45846  0.71715  0.14997  1.0000
  C   C2064     1.0  0.47048  0.73111  0.14307  1.0000
  H   H1653     1.0  0.43477  0.77265  0.13967  1.0000
  H   H1654     1.0  0.41378  0.74805  0.15080  1.0000
  H   H1655     1.0  0.46499  0.70168  0.15294  1.0000
  H   H1656     1.0  0.48629  0.72637  0.14075  1.0000
  C   C2065     1.0  0.50647  0.55855  0.22369  1.0000
  C   C2066     1.0  0.34256  0.49051  0.22990  1.0000
  H   H1657     1.0  0.35346  0.63759  0.05475  1.0000
  C   C2067     1.0  0.52418  0.72987  0.22424  1.0000
  C   C2068     1.0  0.52693  0.76301  0.01775  1.0000
  C   C2069     1.0  0.60574  0.67776  0.16233  1.0000
  C   C2070     1.0  0.60721  0.69193  0.14490  1.0000
  C   C2071     1.0  0.59186  0.69807  0.13446  1.0000
  C   C2072     1.0  0.57554  0.68930  0.14094  1.0000
  C   C2073     1.0  0.57456  0.67465  0.15793  1.0000
  C   C2074     1.0  0.58932  0.66926  0.16887  1.0000
  H   H1658     1.0  0.61992  0.69855  0.13975  1.0000
  H   H1659     1.0  0.59281  0.70928  0.12123  1.0000
  H   H1660     1.0  0.56214  0.66774  0.16284  1.0000
  H   H1661     1.0  0.58800  0.65851  0.18237  1.0000
  C   C2075     1.0  0.62535  0.72999  0.02299  1.0000
  H   H1662     1.0  0.59046  0.76716  0.04002  1.0000
  C   C2076     1.0  0.53525  0.64259  0.19248  1.0000
  C   C2077     1.0  0.54643  0.63939  0.20676  1.0000
  H   H1663     1.0  0.54087  0.64857  0.17740  1.0000
  H   H1664     1.0  0.56057  0.64340  0.20282  1.0000
  C   C2078     1.0  0.53784  0.83570  0.15875  1.0000
  C   C2079     1.0  0.52730  0.83065  0.14753  1.0000
  C   C2080     1.0  0.53568  0.81509  0.13751  1.0000
  C   C2081     1.0  0.55504  0.80503  0.13791  1.0000
  C   C2082     1.0  0.56595  0.81077  0.14828  1.0000
  C   C2083     1.0  0.55730  0.82583  0.15894  1.0000
  H   H1665     1.0  0.51243  0.83858  0.14687  1.0000
  H   H1666     1.0  0.52723  0.81101  0.12934  1.0000
  H   H1667     1.0  0.58104  0.80326  0.14841  1.0000
  H   H1668     1.0  0.56569  0.82979  0.16726  1.0000
  C   C2084     1.0  0.32870  0.50957  0.14911  1.0000
  C   C2085     1.0  0.51729  0.58554  0.99083  1.0000
  C   C2086     1.0  0.52108  0.62538  0.23099  1.0000
  H   H1669     1.0  0.60049  0.49185  0.19309  1.0000
  C   C2087     1.0  0.64770  0.52473  0.22036  1.0000
  H   H1670     1.0  0.59624  0.78127  0.23364  1.0000
  H   H1671     1.0  0.63946  0.72083  0.02527  1.0000
  H   H1672     1.0  0.53970  0.76822  0.00866  1.0000
  H   H1673     1.0  0.45725  0.73239  0.22825  1.0000
  C   C2088     1.0  0.56978  0.78172  0.19296  1.0000
  H   H1674     1.0  0.44626  0.70381  0.22494  1.0000
  H   H1675     1.0  0.60236  0.54180  0.11846  1.0000
  C   C2089     1.0  0.40133  0.52065  0.11086  1.0000
  H   H1676     1.0  0.63578  0.70780  0.21202  1.0000
  H   H1677     1.0  0.50298  0.67165  0.01441  1.0000
  H   H1678     1.0  0.60751  0.86654  0.21759  1.0000
  H   H1679     1.0  0.63191  0.59208  0.13163  1.0000
  C   C2090     1.0  0.59340  0.96389  0.20125  1.0000
  C   C2091     1.0  0.57687  0.97321  0.19312  1.0000
  C   C2092     1.0  0.56503  0.96206  0.18998  1.0000
  C   C2093     1.0  0.56959  0.94150  0.19481  1.0000
  C   C2094     1.0  0.58665  0.93208  0.20208  1.0000
  C   C2095     1.0  0.59850  0.94328  0.20533  1.0000
  C   C2096     1.0  0.48556  0.81813  0.00455  1.0000
  H   H1680     1.0  0.55221  0.96944  0.18382  1.0000
  H   H1681     1.0  0.59059  0.91622  0.20536  1.0000
  C   C2097     1.0  0.35401  0.65336  0.20970  1.0000
  C   C2098     1.0  0.36409  0.51564  0.11098  1.0000
  C   C2099     1.0  0.39374  0.50526  0.12419  1.0000
  H   H1682     1.0  0.51611  0.76074  0.99335  1.0000
  C   C2100     1.0  0.59792  0.75625  0.03115  1.0000
  C   C2101     1.0  0.61616  0.72695  0.00942  1.0000
  C   C2102     1.0  0.54925  0.81399  0.03290  1.0000
  C   C2103     1.0  0.52898  0.82028  0.03420  1.0000
  C   C2104     1.0  0.52023  0.81910  0.01932  1.0000
  H   H1683     1.0  0.61650  0.54715  0.17088  1.0000
  P   P65       1.0  0.49399  0.82767  0.02109  1.0000
  H   H1684     1.0  0.47494  0.91122  0.99992  1.0000
  C   C2105     1.0  0.48164  0.81973  0.04598  1.0000
  C   C2106     1.0  0.49005  0.80227  0.05751  1.0000
  C   C2107     1.0  0.48096  0.79625  0.07691  1.0000
  C   C2108     1.0  0.46325  0.80751  0.08497  1.0000
  C   C2109     1.0  0.45452  0.82476  0.07351  1.0000
  C   C2110     1.0  0.46366  0.83087  0.05406  1.0000
  H   H1685     1.0  0.65285  0.80256  0.20544  1.0000
  C   C2111     1.0  0.47497  0.80307  0.01160  1.0000
  C   C2112     1.0  0.49952  0.61783  0.99620  1.0000
  H   H1686     1.0  0.62309  0.62767  0.13064  1.0000
  C   C2113     1.0  0.64219  0.73890  0.15919  1.0000
  H   H1687     1.0  0.38476  0.50307  0.19407  1.0000
  P   P66       1.0  0.58469  0.73425  0.99041  1.0000
  C   C2114     1.0  0.57566  0.60302  0.18620  1.0000
  C   C2115     1.0  0.34684  0.64829  0.19569  1.0000
  H   H1688     1.0  0.59752  0.57627  0.21405  1.0000
  C   C2116     1.0  0.54321  0.71306  0.03599  1.0000
  H   H1689     1.0  0.55578  0.81441  0.04472  1.0000
  H   H1690     1.0  0.52010  0.82578  0.04700  1.0000
  C   C2117     1.0  0.45461  0.80036  0.20588  1.0000
  H   H1691     1.0  0.50381  0.79338  0.05164  1.0000
  H   H1692     1.0  0.48778  0.78289  0.08576  1.0000
  H   H1693     1.0  0.45640  0.80281  0.10013  1.0000
  H   H1694     1.0  0.44076  0.83346  0.07977  1.0000
  H   H1695     1.0  0.56648  0.80597  0.22878  1.0000
  C   C2118     1.0  0.59692  0.76769  0.20989  1.0000
  C   C2119     1.0  0.56099  0.80655  0.01670  1.0000
  H   H1696     1.0  0.38064  0.68604  0.17904  1.0000
  S   S294      1.0  0.48033  0.74584  0.01019  1.0000
  H   H1697     1.0  0.47250  0.79609  0.02694  1.0000
  C   C2120     1.0  0.53615  0.57139  0.20917  1.0000
  C   C2121     1.0  0.58692  0.76768  0.19559  1.0000
  C   C2122     1.0  0.63992  0.89507  0.21308  1.0000
  C   C2123     1.0  0.49570  0.88596  0.01109  1.0000
  H   H1698     1.0  0.53499  0.54370  0.22964  1.0000
  C   C2124     1.0  0.46751  0.79673  0.99875  1.0000
  C   C2125     1.0  0.60770  0.54363  0.14593  1.0000
  C   C2126     1.0  0.47078  0.86375  0.00744  1.0000
  C   C2127     1.0  0.59735  0.71995  0.23253  1.0000
  H   H1699     1.0  0.51380  0.85861  0.02175  1.0000
  P   P67       1.0  0.52690  0.73636  0.19787  1.0000
  C   C2128     1.0  0.55280  0.73238  0.18739  1.0000
  C   C2129     1.0  0.51602  0.72072  0.18968  1.0000
  C   C2130     1.0  0.52781  0.70617  0.17946  1.0000
  C   C2131     1.0  0.51917  0.69475  0.17254  1.0000
  C   C2132     1.0  0.49882  0.69776  0.17564  1.0000
  C   C2133     1.0  0.48697  0.71224  0.18569  1.0000
  C   C2134     1.0  0.49550  0.72357  0.19281  1.0000
  C   C2135     1.0  0.56029  0.74529  0.17066  1.0000
  C   C2136     1.0  0.58026  0.74147  0.16217  1.0000
  C   C2137     1.0  0.59293  0.72516  0.17067  1.0000
  C   C2138     1.0  0.58560  0.71242  0.18744  1.0000
  C   C2139     1.0  0.56559  0.71579  0.19560  1.0000
  C   C2140     1.0  0.51587  0.76194  0.19023  1.0000
  C   C2141     1.0  0.52078  0.77632  0.19691  1.0000
  C   C2142     1.0  0.51310  0.79622  0.19043  1.0000
  C   C2143     1.0  0.50051  0.80188  0.17722  1.0000
  C   C2144     1.0  0.49620  0.78774  0.16985  1.0000
  C   C2145     1.0  0.50373  0.76787  0.17638  1.0000
  H   H1700     1.0  0.34702  0.65205  0.16505  1.0000
  C   C2146     1.0  0.63722  0.71665  0.19734  1.0000
  H   H1701     1.0  0.55034  0.73927  0.22467  1.0000
  H   H1702     1.0  0.54364  0.70379  0.17632  1.0000
  H   H1703     1.0  0.52825  0.68380  0.16438  1.0000
  H   H1704     1.0  0.49234  0.68895  0.16999  1.0000
  H   H1705     1.0  0.47114  0.71501  0.18765  1.0000
  H   H1706     1.0  0.48606  0.73494  0.20027  1.0000
  H   H1707     1.0  0.55079  0.75815  0.16392  1.0000
  H   H1708     1.0  0.58590  0.75119  0.14896  1.0000
  H   H1709     1.0  0.60835  0.72212  0.16405  1.0000
  H   H1710     1.0  0.59541  0.69965  0.19386  1.0000
  H   H1711     1.0  0.56009  0.70529  0.20815  1.0000
  H   H1712     1.0  0.53080  0.77214  0.20685  1.0000
  H   H1713     1.0  0.51710  0.80737  0.19532  1.0000
  H   H1714     1.0  0.49446  0.81727  0.17232  1.0000
  H   H1715     1.0  0.48716  0.79211  0.15891  1.0000
  H   H1716     1.0  0.50031  0.75741  0.17007  1.0000
  S   S295      1.0  0.35304  0.55721  0.15343  1.0000
  C   C2147     1.0  0.58886  0.75348  0.01738  1.0000
  C   C2148     1.0  0.65005  0.74855  0.23015  1.0000
  C   C2149     1.0  0.59190  0.53449  0.20893  1.0000
  C   C2150     1.0  0.37097  0.67568  0.18370  1.0000
  C   C2151     1.0  0.64798  0.58518  0.15508  1.0000
  H   H1717     1.0  0.57826  0.59365  0.13495  1.0000
  H   H1718     1.0  0.42026  0.82530  0.23062  1.0000
  H   H1719     1.0  0.55254  0.54158  0.18792  1.0000
  S   S296      1.0  0.58930  0.66323  0.22896  1.0000
  P   P68       1.0  0.65447  0.55893  0.15626  1.0000
  C   C2152     1.0  0.58908  0.78131  0.22212  1.0000
  C   C2153     1.0  0.64646  0.70744  0.18155  1.0000
  C   C2154     1.0  0.53944  0.63053  0.22601  1.0000
  H   H1720     1.0  0.56231  0.78189  0.18162  1.0000
  C   C2155     1.0  0.50484  0.58981  0.20101  1.0000
  S   S297      1.0  0.60767  0.97764  0.20676  1.0000
  C   C2156     1.0  0.61469  0.87613  0.22138  1.0000
  H   H1721     1.0  0.41574  0.52261  0.11083  1.0000
  C   C2157     1.0  0.57782  0.59608  0.14927  1.0000
  H   H1722     1.0  0.58649  0.62398  0.13795  1.0000
  H   H1723     1.0  0.33703  0.52080  0.14659  1.0000
  C   C2158     1.0  0.48155  0.87475  0.20587  1.0000
  C   C2159     1.0  0.63893  0.55431  0.19654  1.0000
  C   C2160     1.0  0.64289  0.55396  0.12411  1.0000
  C   C2161     1.0  0.46609  0.88424  0.00219  1.0000
  S   S298      1.0  0.54232  0.84358  0.22264  1.0000
  C   C2162     1.0  0.47751  0.85635  0.20778  1.0000
  C   C2163     1.0  0.63760  0.62581  0.15381  1.0000
  C   C2164     1.0  0.45614  0.81922  0.20664  1.0000
  P   P69       1.0  0.56235  0.56868  0.20640  1.0000
  P   P70       1.0  0.46213  0.82343  0.22805  1.0000
  H   H1724     1.0  0.51913  0.70128  0.03489  1.0000
  C   C2165     1.0  0.56244  0.79572  0.20474  1.0000
  C   C2166     1.0  0.63803  0.77911  0.20913  1.0000
  H   H1725     1.0  0.49529  0.62576  0.22097  1.0000
  H   H1726     1.0  0.45692  0.78807  0.21780  1.0000
  C   C2167     1.0  0.44973  0.79708  0.18960  1.0000
  C   C2168     1.0  0.44619  0.81257  0.17392  1.0000
  C   C2169     1.0  0.44698  0.83149  0.17475  1.0000
  C   C2170     1.0  0.45163  0.83488  0.19112  1.0000
  C   C2171     1.0  0.55923  0.72125  0.02517  1.0000
  H   H1727     1.0  0.36837  0.67642  0.15444  1.0000
  H   H1728     1.0  0.49098  0.88085  0.19265  1.0000
  C   C2172     1.0  0.50910  0.98404  0.19619  1.0000
  S   S299      1.0  0.55759  0.87910  0.23240  1.0000
  C   C2173     1.0  0.63067  0.88268  0.20822  1.0000
  H   H1729     1.0  0.48435  0.84829  0.19614  1.0000
  C   C2174     1.0  0.55244  0.80538  0.00182  1.0000
  H   H1730     1.0  0.46089  0.85538  0.00602  1.0000
  C   C2175     1.0  0.37483  0.50299  0.12470  1.0000
  C   C2176     1.0  0.63287  0.74816  0.17496  1.0000
  H   H1731     1.0  0.63074  0.56927  0.19352  1.0000
  H   H1732     1.0  0.62795  0.78801  0.19982  1.0000
  H   H1733     1.0  0.40254  0.49529  0.13423  1.0000
  H   H1734     1.0  0.44283  0.80985  0.16115  1.0000
  H   H1735     1.0  0.50290  0.97109  0.20038  1.0000
  H   H1736     1.0  0.57428  0.60642  0.20030  1.0000
  C   C2177     1.0  0.63656  0.75975  0.21848  1.0000
  C   C2178     1.0  0.51664  0.63811  0.19765  1.0000
  H   H1737     1.0  0.62305  0.74656  0.04480  1.0000
  C   C2179     1.0  0.56407  0.72349  0.00468  1.0000
  H   H1738     1.0  0.57664  0.80132  0.01591  1.0000
  C   C2180     1.0  0.60136  0.51579  0.20537  1.0000
  C   C2181     1.0  0.35286  0.61286  0.07893  1.0000
  H   H1739     1.0  0.53179  0.59977  0.18941  1.0000
  C   C2182     1.0  0.35191  0.65668  0.17585  1.0000
  C   C2183     1.0  0.39020  0.53366  0.09777  1.0000
  S   S300      1.0  0.45410  0.63362  0.21901  1.0000
  C   C2184     1.0  0.50948  0.62962  0.21695  1.0000
  C   C2185     1.0  0.33718  0.50390  0.21339  1.0000
  C   C2186     1.0  0.57097  0.58580  0.18473  1.0000
  C   C2187     1.0  0.57200  0.58250  0.16611  1.0000
  H   H1740     1.0  0.36617  0.60959  0.21529  1.0000
  C   C2188     1.0  0.59316  0.50637  0.19576  1.0000
  H   H1741     1.0  0.54949  0.80699  0.20229  1.0000
  H   H1742     1.0  0.63579  0.87821  0.19422  1.0000
  C   C2189     1.0  0.37165  0.53107  0.09776  1.0000
  H   H1743     1.0  0.45145  0.84978  0.19157  1.0000
  C   C2190     1.0  0.57198  0.79529  0.21950  1.0000
  S   S301      1.0  0.50302  0.64206  0.17961  1.0000
  Fe  Fe149     1.0  0.33420  0.55178  0.18354  1.0000
  H   H1744     1.0  0.54604  0.98169  0.22243  1.0000
  C   C2191     1.0  0.53195  0.70691  0.02653  1.0000
  H   H1745     1.0  0.59400  0.53982  0.15433  1.0000
  C   C2192     1.0  0.62057  0.54765  0.15528  1.0000
  C   C2193     1.0  0.65400  0.59326  0.16775  1.0000
  Fe  Fe150     1.0  0.34654  0.58865  0.15660  1.0000
  H   H1746     1.0  0.62336  0.71541  0.00135  1.0000
  C   C2194     1.0  0.42723  0.66225  0.10168  1.0000
  C   C2195     1.0  0.41383  0.66970  0.11715  1.0000
  C   C2196     1.0  0.41644  0.68579  0.12287  1.0000
  C   C2197     1.0  0.43240  0.69451  0.11310  1.0000
  C   C2198     1.0  0.44594  0.68715  0.09754  1.0000
  C   C2199     1.0  0.44328  0.67090  0.09191  1.0000
  P   P71       1.0  0.46702  0.69800  0.08593  1.0000
  C   C2200     1.0  0.45810  0.72424  0.08299  1.0000
  C   C2201     1.0  0.48507  0.69000  0.10122  1.0000
  C   C2202     1.0  0.50385  0.69423  0.09373  1.0000
  C   C2203     1.0  0.51791  0.68829  0.10551  1.0000
  C   C2204     1.0  0.51329  0.67820  0.12480  1.0000
  C   C2205     1.0  0.49465  0.67397  0.13226  1.0000
  C   C2206     1.0  0.48057  0.67980  0.12058  1.0000
  C   C2207     1.0  0.46513  0.73528  0.09213  1.0000
  C   C2208     1.0  0.45752  0.75542  0.09048  1.0000
  C   C2209     1.0  0.44294  0.76477  0.07963  1.0000
  C   C2210     1.0  0.43556  0.75385  0.07083  1.0000
  C   C2211     1.0  0.44284  0.73360  0.07281  1.0000
  C   C2212     1.0  0.47859  0.69014  0.06301  1.0000
  C   C2213     1.0  0.47509  0.70197  0.04497  1.0000
  C   C2214     1.0  0.48374  0.69518  0.02759  1.0000
  C   C2215     1.0  0.49617  0.67669  0.02798  1.0000
  C   C2216     1.0  0.49998  0.66491  0.04581  1.0000
  C   C2217     1.0  0.49121  0.67157  0.06325  1.0000
  H   H1747     1.0  0.42525  0.64965  0.09741  1.0000
  H   H1748     1.0  0.40153  0.66291  0.12480  1.0000
  H   H1749     1.0  0.40632  0.69136  0.13513  1.0000
  H   H1750     1.0  0.43438  0.70676  0.11801  1.0000
  H   H1751     1.0  0.45353  0.66480  0.08009  1.0000
  H   H1752     1.0  0.50748  0.70242  0.07893  1.0000
  H   H1753     1.0  0.53231  0.69182  0.09990  1.0000
  H   H1754     1.0  0.52409  0.67382  0.13403  1.0000
  H   H1755     1.0  0.49094  0.66635  0.14722  1.0000
  H   H1756     1.0  0.46621  0.67648  0.12693  1.0000
  H   H1757     1.0  0.47625  0.72850  0.10085  1.0000
  H   H1758     1.0  0.46280  0.76366  0.09789  1.0000
  H   H1759     1.0  0.43724  0.78042  0.07827  1.0000
  H   H1760     1.0  0.42410  0.76104  0.06259  1.0000
  H   H1761     1.0  0.43658  0.72525  0.06637  1.0000
  H   H1762     1.0  0.46594  0.71651  0.04404  1.0000
  C   C2218     1.0  0.62984  0.73703  0.19409  1.0000
  H   H1763     1.0  0.44899  0.78239  0.18902  1.0000
  H   H1764     1.0  0.50974  0.65063  0.04613  1.0000
  H   H1765     1.0  0.49419  0.66218  0.07697  1.0000
  H   H1766     1.0  0.50546  0.59280  0.01930  1.0000
  H   H1767     1.0  0.44398  0.84357  0.16267  1.0000
  H   H1768     1.0  0.45672  0.84429  0.04548  1.0000
  C   C2219     1.0  0.52505  0.58801  0.19891  1.0000
  C   C2220     1.0  0.57422  0.54408  0.20270  1.0000
  C   C2221     1.0  0.61617  0.74453  0.03395  1.0000
  H   H1769     1.0  0.57450  0.76238  0.01570  1.0000
  C   C2222     1.0  0.56790  0.57272  0.22801  1.0000
  C   C2223     1.0  0.65225  0.78740  0.21218  1.0000
  C   C2224     1.0  0.35347  0.60568  0.22586  1.0000
  C   C2225     1.0  0.50735  0.59822  0.00363  1.0000
  H   H1770     1.0  0.33769  0.63756  0.19991  1.0000
  H   H1771     1.0  0.61509  0.50860  0.21011  1.0000
  H   H1772     1.0  0.56733  0.72618  0.03301  1.0000
  C   C2226     1.0  0.53818  0.73261  0.23326  1.0000
  C   C2227     1.0  0.58156  0.61652  0.16936  1.0000
  H   H1773     1.0  0.53915  0.71216  0.05167  1.0000
  S   S302      1.0  0.33069  0.58248  0.18764  1.0000
  C   C2228     1.0  0.49554  0.57516  0.21343  1.0000
  C   C2229     1.0  0.48437  0.80672  0.23399  1.0000
  H   H1774     1.0  0.45928  0.78516  0.00425  1.0000
  P   P72       1.0  0.61830  0.74909  0.21441  1.0000
  S   S303      1.0  0.34054  0.52808  0.20973  1.0000
  S   S304      1.0  0.63632  0.64125  0.22606  1.0000
  C   C2230     1.0  0.32993  0.49757  0.20031  1.0000
  H   H1775     1.0  0.34769  0.58892  0.10326  1.0000
  H   H1776     1.0  0.63352  0.55113  0.09908  1.0000
  C   C2231     1.0  0.34438  0.62837  0.06547  1.0000
  C   C2232     1.0  0.57548  0.51569  0.18965  1.0000
  C   C2233     1.0  0.58660  0.57558  0.22749  1.0000
  H   H1777     1.0  0.62787  0.76398  0.17222  1.0000
  H   H1778     1.0  0.50536  0.89457  0.01253  1.0000
  H   H1779     1.0  0.59852  0.54134  0.21648  1.0000
  H   H1780     1.0  0.56780  0.56973  0.16456  1.0000
  H   H1781     1.0  0.50409  0.67871  0.21652  1.0000
  H   H1782     1.0  0.58492  0.62987  0.17064  1.0000
  H   H1783     1.0  0.56906  0.50837  0.18226  1.0000
  Fe  Fe151     1.0  0.43862  0.66384  0.22416  1.0000
  C   C2234     1.0  0.63167  0.61797  0.14102  1.0000
  H   H1784     1.0  0.52591  0.81009  0.99157  1.0000
  H   H1785     1.0  0.47802  0.89873  0.22003  1.0000
  H   H1786     1.0  0.50100  0.82915  0.23018  1.0000
  H   H1787     1.0  0.52302  0.57024  0.99659  1.0000
  H   H1788     1.0  0.61151  0.93598  0.21122  1.0000
  H   H1789     1.0  0.45280  0.89150  0.99669  1.0000
  C   C2235     1.0  0.46543  0.84815  0.22486  1.0000
  C   C2236     1.0  0.36404  0.67031  0.16985  1.0000
  H   H1790     1.0  0.47982  0.57681  0.21511  1.0000
  C   C2237     1.0  0.63714  0.54398  0.21595  1.0000
  C   C2238     1.0  0.63677  0.59774  0.14165  1.0000
  C   C2239     1.0  0.53216  0.81162  0.00307  1.0000
  H   H1791     1.0  0.34967  0.51392  0.11071  1.0000
  H   H1792     1.0  0.59800  0.69168  0.99939  1.0000
  C   C2240     1.0  0.50093  0.81366  0.23393  1.0000
  C   C2241     1.0  0.62997  0.54999  0.11480  1.0000
  C   C2242     1.0  0.38259  0.49099  0.18905  1.0000
  H   H1793     1.0  0.53252  0.68035  0.22900  1.0000
  H   H1794     1.0  0.65331  0.61966  0.17706  1.0000
  H   H1795     1.0  0.52044  0.94650  0.22463  1.0000
  H   H1796     1.0  0.37143  0.67170  0.21400  1.0000
  H   H1797     1.0  0.49688  0.71994  0.22988  1.0000
  H   H1798     1.0  0.51441  0.98376  0.16550  1.0000
  C   C2243     1.0  0.36586  0.66736  0.20355  1.0000
  C   C2244     1.0  0.63316  0.90097  0.23108  1.0000
  C   C2245     1.0  0.34870  0.58773  0.22719  1.0000
  H   H1799     1.0  0.65572  0.71124  0.15026  1.0000
  H   H1800     1.0  0.65625  0.55840  0.11539  1.0000
  H   H1801     1.0  0.35781  0.57782  0.21779  1.0000
  H   H1802     1.0  0.65220  0.90030  0.20278  1.0000
  Fe  Fe152     1.0  0.52898  0.87082  0.23453  1.0000
  C   C2246     1.0  0.33830  0.49007  0.14844  1.0000
  C   C2247     1.0  0.50634  0.94558  0.23437  1.0000
  H   H1803     1.0  0.56146  0.79918  0.98952  1.0000
  H   H1804     1.0  0.64042  0.91074  0.23443  1.0000
  Fe  Fe153     1.0  0.58315  0.63320  0.23392  1.0000
  H   H1805     1.0  0.59088  0.76566  0.27872  1.0000
  S   S305      1.0  0.61079  0.65710  0.27721  1.0000
  Fe  Fe154     1.0  0.63334  0.77086  0.31436  1.0000
  S   S306      1.0  0.63071  0.75716  0.34624  1.0000
  C   C2248     1.0  0.52065  0.66838  0.25898  1.0000
  H   H1806     1.0  0.64684  0.51693  0.23543  1.0000
  H   H1807     1.0  0.44991  0.85192  0.25412  1.0000
  C   C2249     1.0  0.54268  0.82867  0.29153  1.0000
  Fe  Fe155     1.0  0.61709  0.73590  0.33916  1.0000
  S   S307      1.0  0.58825  0.73111  0.35891  1.0000
  H   H1808     1.0  0.65306  0.72786  0.39828  1.0000
  S   S308      1.0  0.61819  0.75065  0.30769  1.0000
  C   C2250     1.0  0.59418  0.79648  0.41125  1.0000
  Fe  Fe156     1.0  0.46997  0.77449  0.31363  1.0000
  S   S309      1.0  0.49108  0.76043  0.29024  1.0000
  Fe  Fe157     1.0  0.45637  0.73683  0.33490  1.0000
  S   S310      1.0  0.47655  0.71943  0.31309  1.0000
  S   S311      1.0  0.43782  0.72235  0.36224  1.0000
  Fe  Fe158     1.0  0.49888  0.73537  0.31456  1.0000
  S   S312      1.0  0.53033  0.71906  0.31235  1.0000
  Fe  Fe159     1.0  0.46712  0.74567  0.29048  1.0000
  C   C2251     1.0  0.38418  0.62192  0.24540  1.0000
  S   S313      1.0  0.47961  0.75057  0.33823  1.0000
  S   S314      1.0  0.44515  0.76191  0.31203  1.0000
  C   C2252     1.0  0.41119  0.81180  0.28016  1.0000
  Fe  Fe160     1.0  0.34391  0.75406  0.46565  1.0000
  H   H1809     1.0  0.40038  0.81068  0.36122  1.0000
  H   H1810     1.0  0.34641  0.74454  0.37866  1.0000
  C   C2253     1.0  0.65940  0.73863  0.40122  1.0000
  C   C2254     1.0  0.62484  0.86463  0.28396  1.0000
  H   H1811     1.0  0.38321  0.61013  0.23924  1.0000
  H   H1812     1.0  0.62364  0.91615  0.47578  1.0000
  H   H1813     1.0  0.50554  0.97213  0.27754  1.0000
  C   C2255     1.0  0.56955  0.77954  0.30061  1.0000
  H   H1814     1.0  0.57669  0.62288  0.29961  1.0000
  H   H1815     1.0  0.59508  0.83754  0.29013  1.0000
  H   H1816     1.0  0.47206  0.78078  0.24161  1.0000
  H   H1817     1.0  0.57522  0.89964  0.30259  1.0000
  C   C2256     1.0  0.41492  0.73703  0.37022  1.0000
  C   C2257     1.0  0.40373  0.73116  0.38879  1.0000
  C   C2258     1.0  0.38543  0.74290  0.39527  1.0000
  C   C2259     1.0  0.37835  0.76043  0.38308  1.0000
  C   C2260     1.0  0.38920  0.76587  0.36432  1.0000
  C   C2261     1.0  0.40753  0.75435  0.35802  1.0000
  H   H1818     1.0  0.40930  0.71765  0.39821  1.0000
  H   H1819     1.0  0.37677  0.73842  0.40958  1.0000
  H   H1820     1.0  0.38362  0.77931  0.35477  1.0000
  H   H1821     1.0  0.41580  0.75896  0.34370  1.0000
  C   C2262     1.0  0.61344  0.88796  0.30546  1.0000
  H   H1822     1.0  0.35768  0.70191  0.32498  1.0000
  C   C2263     1.0  0.46913  0.84337  0.30287  1.0000
  P   P73       1.0  0.50641  0.65023  0.29751  1.0000
  H   H1823     1.0  0.43428  0.68500  0.28731  1.0000
  H   H1824     1.0  0.44644  0.71317  0.29060  1.0000
  C   C2264     1.0  0.57193  0.72852  0.34580  1.0000
  C   C2265     1.0  0.55158  0.73446  0.35205  1.0000
  C   C2266     1.0  0.53852  0.73209  0.34166  1.0000
  C   C2267     1.0  0.54585  0.72326  0.32540  1.0000
  C   C2268     1.0  0.56612  0.71695  0.31956  1.0000
  C   C2269     1.0  0.57917  0.71993  0.32941  1.0000
  H   H1825     1.0  0.54601  0.74091  0.36485  1.0000
  H   H1826     1.0  0.52284  0.73664  0.34639  1.0000
  H   H1827     1.0  0.57175  0.70960  0.30745  1.0000
  H   H1828     1.0  0.59483  0.71500  0.32470  1.0000
  C   C2270     1.0  0.38478  0.72168  0.34425  1.0000
  C   C2271     1.0  0.39869  0.72102  0.31009  1.0000
  H   H1829     1.0  0.47764  0.65232  0.27400  1.0000
  H   H1830     1.0  0.51292  0.58727  0.27901  1.0000
  C   C2272     1.0  0.62580  0.67284  0.27662  1.0000
  C   C2273     1.0  0.62416  0.67952  0.29366  1.0000
  C   C2274     1.0  0.63491  0.69318  0.29348  1.0000
  C   C2275     1.0  0.64766  0.69984  0.27638  1.0000
  H   H1831     1.0  0.63676  0.97061  0.26117  1.0000
  C   C2276     1.0  0.43676  0.75356  0.45660  1.0000
  H   H1832     1.0  0.61401  0.67468  0.30685  1.0000
  H   H1833     1.0  0.63305  0.69876  0.30650  1.0000
  C   C2277     1.0  0.46888  0.67182  0.31013  1.0000
  H   H1834     1.0  0.54753  0.72845  0.26052  1.0000
  S   S315      1.0  0.60191  0.62010  0.25619  1.0000
  H   H1835     1.0  0.58788  0.83353  0.37182  1.0000
  H   H1836     1.0  0.60661  0.90261  0.30804  1.0000
  C   C2278     1.0  0.50088  0.83510  0.27244  1.0000
  H   H1837     1.0  0.38160  0.72149  0.44622  1.0000
  S   S316      1.0  0.36331  0.73117  0.48413  1.0000
  S   S317      1.0  0.33434  0.74420  0.44306  1.0000
  H   H1838     1.0  0.41299  0.60743  0.25093  1.0000
  Fe  Fe161     1.0  0.64830  0.73155  0.30220  1.0000
  H   H1839     1.0  0.54799  0.57479  0.27591  1.0000
  S   S318      1.0  0.62209  0.80348  0.30624  1.0000
  Fe  Fe162     1.0  0.61028  0.64909  0.24939  1.0000
  C   C2279     1.0  0.47807  0.85842  0.29066  1.0000
  H   H1840     1.0  0.50197  0.75797  0.24871  1.0000
  H   H1841     1.0  0.39111  0.66461  0.26483  1.0000
  C   C2280     1.0  0.63223  0.85038  0.29897  1.0000
  C   C2281     1.0  0.40360  0.63554  0.25933  1.0000
  H   H1842     1.0  0.32831  0.56880  0.24120  1.0000
  S   S319      1.0  0.43271  0.67114  0.25416  1.0000
  H   H1843     1.0  0.39327  0.81871  0.25856  1.0000
  H   H1844     1.0  0.41710  0.63451  0.26393  1.0000
  C   C2282     1.0  0.36420  0.81709  0.48146  1.0000
  C   C2283     1.0  0.65368  0.91454  0.47680  1.0000
  C   C2284     1.0  0.38888  0.65252  0.25985  1.0000
  C   C2285     1.0  0.54837  0.91106  0.29210  1.0000
  H   H1845     1.0  0.58089  0.65132  0.31028  1.0000
  C   C2286     1.0  0.56435  0.63502  0.30180  1.0000
  C   C2287     1.0  0.47589  0.82406  0.30005  1.0000
  H   H1846     1.0  0.59989  0.72146  0.28506  1.0000
  H   H1847     1.0  0.39930  0.80894  0.29245  1.0000
  C   C2288     1.0  0.40799  0.78265  0.40543  1.0000
  C   C2289     1.0  0.45284  0.72451  0.25967  1.0000
  H   H1848     1.0  0.64293  0.79347  0.35339  1.0000
  H   H1849     1.0  0.58039  0.78513  0.30435  1.0000
  C   C2290     1.0  0.54893  0.85761  0.30731  1.0000
  H   H1850     1.0  0.54492  0.92810  0.24431  1.0000
  H   H1851     1.0  0.52137  0.68002  0.30717  1.0000
  H   H1852     1.0  0.63060  0.78387  0.27407  1.0000
  H   H1853     1.0  0.40956  0.72459  0.29704  1.0000
  S   S320      1.0  0.35600  0.77592  0.39063  1.0000
  H   H1854     1.0  0.62193  0.78122  0.41893  1.0000
  C   C2291     1.0  0.61583  0.81830  0.37930  1.0000
  H   H1855     1.0  0.58230  0.69829  0.27966  1.0000
  H   H1856     1.0  0.63994  0.67417  0.24633  1.0000
  H   H1857     1.0  0.49266  0.57320  0.31026  1.0000
  H   H1858     1.0  0.41070  0.73257  0.32811  1.0000
  C   C2292     1.0  0.39863  0.79691  0.39166  1.0000
  C   C2293     1.0  0.52372  0.97789  0.24869  1.0000
  H   H1859     1.0  0.56695  0.96517  0.27596  1.0000
  H   H1860     1.0  0.40080  0.78102  0.42068  1.0000
  H   H1861     1.0  0.65463  0.54321  0.26789  1.0000
  C   C2294     1.0  0.60057  0.82801  0.27967  1.0000
  C   C2295     1.0  0.38384  0.71223  0.30931  1.0000
  C   C2296     1.0  0.48748  0.66304  0.31447  1.0000
  C   C2297     1.0  0.54456  0.84698  0.27982  1.0000
  H   H1862     1.0  0.55347  0.67999  0.31339  1.0000
  S   S321      1.0  0.46363  0.80612  0.31624  1.0000
  C   C2298     1.0  0.49042  0.66197  0.33329  1.0000
  C   C2299     1.0  0.58903  0.70826  0.26741  1.0000
  C   C2300     1.0  0.37002  0.71250  0.34372  1.0000
  C   C2301     1.0  0.44639  0.70563  0.23926  1.0000
  H   H1863     1.0  0.49455  0.70954  0.26516  1.0000
  H   H1864     1.0  0.53135  0.77027  0.24828  1.0000
  C   C2302     1.0  0.57186  0.91721  0.25481  1.0000
  C   C2303     1.0  0.50823  0.72189  0.23603  1.0000
  C   C2304     1.0  0.35155  0.67164  0.35846  1.0000
  C   C2305     1.0  0.62046  0.79769  0.27076  1.0000
  P   P74       1.0  0.35078  0.70846  0.36498  1.0000
  H   H1865     1.0  0.61908  0.87698  0.33468  1.0000
  H   H1866     1.0  0.54912  0.87563  0.27833  1.0000
  C   C2306     1.0  0.63107  0.95767  0.26267  1.0000
  C   C2307     1.0  0.47515  0.66996  0.34724  1.0000
  H   H1867     1.0  0.65817  0.83887  0.38013  1.0000
  C   C2308     1.0  0.49391  0.85444  0.27537  1.0000
  H   H1868     1.0  0.65384  0.93787  0.27667  1.0000
  C   C2309     1.0  0.58453  0.81122  0.39805  1.0000
  C   C2310     1.0  0.61466  0.79255  0.40845  1.0000
  H   H1869     1.0  0.58094  0.58000  0.27448  1.0000
  H   H1870     1.0  0.66082  0.81123  0.45003  1.0000
  H   H1871     1.0  0.58582  0.78803  0.42366  1.0000
  H   H1872     1.0  0.60554  0.58065  0.24360  1.0000
  C   C2311     1.0  0.53967  0.91894  0.27575  1.0000
  H   H1873     1.0  0.51998  0.71309  0.28056  1.0000
  C   C2312     1.0  0.38509  0.68760  0.40635  1.0000
  H   H1874     1.0  0.56653  0.75295  0.26914  1.0000
  C   C2313     1.0  0.54214  0.76570  0.28947  1.0000
  C   C2314     1.0  0.53594  0.77699  0.30392  1.0000
  C   C2315     1.0  0.54969  0.78374  0.30985  1.0000
  C   C2316     1.0  0.63001  0.85473  0.31728  1.0000
  P   P75       1.0  0.54184  0.80077  0.32624  1.0000
  C   C2317     1.0  0.51658  0.80153  0.33898  1.0000
  C   C2318     1.0  0.55811  0.79368  0.34347  1.0000
  C   C2319     1.0  0.55348  0.78148  0.36184  1.0000
  C   C2320     1.0  0.56666  0.77532  0.37455  1.0000
  C   C2321     1.0  0.58445  0.78149  0.36918  1.0000
  C   C2322     1.0  0.58897  0.79401  0.35120  1.0000
  C   C2323     1.0  0.57602  0.79987  0.33828  1.0000
  C   C2324     1.0  0.50303  0.81953  0.33912  1.0000
  C   C2325     1.0  0.48363  0.82003  0.34924  1.0000
  C   C2326     1.0  0.47758  0.80262  0.35930  1.0000
  C   C2327     1.0  0.49089  0.78467  0.35912  1.0000
  C   C2328     1.0  0.51023  0.78411  0.34881  1.0000
  C   C2329     1.0  0.54409  0.82459  0.31124  1.0000
  C   C2330     1.0  0.53314  0.66720  0.30593  1.0000
  C   C2331     1.0  0.56189  0.76156  0.28042  1.0000
  C   C2332     1.0  0.39922  0.72564  0.32756  1.0000
  C   C2333     1.0  0.50722  0.59545  0.29065  1.0000
  C   C2334     1.0  0.54695  0.83927  0.31916  1.0000
  C   C2335     1.0  0.40781  0.81729  0.26109  1.0000
  H   H1875     1.0  0.59529  0.87706  0.24926  1.0000
  H   H1876     1.0  0.53165  0.76001  0.28535  1.0000
  H   H1877     1.0  0.52042  0.78062  0.31011  1.0000
  C   C2336     1.0  0.45354  0.67955  0.32419  1.0000
  H   H1878     1.0  0.54009  0.77612  0.36629  1.0000
  H   H1879     1.0  0.56349  0.76504  0.38820  1.0000
  H   H1880     1.0  0.59498  0.77609  0.37870  1.0000
  H   H1881     1.0  0.60291  0.79855  0.34688  1.0000
  H   H1882     1.0  0.58027  0.80885  0.32405  1.0000
  H   H1883     1.0  0.50716  0.83320  0.33109  1.0000
  H   H1884     1.0  0.47309  0.83387  0.34869  1.0000
  H   H1885     1.0  0.46239  0.80303  0.36659  1.0000
  H   H1886     1.0  0.48609  0.77114  0.36651  1.0000
  H   H1887     1.0  0.52022  0.77008  0.34832  1.0000
  C   C2337     1.0  0.37893  0.69312  0.38846  1.0000
  C   C2338     1.0  0.50682  0.71588  0.25624  1.0000
  H   H1888     1.0  0.64145  0.76305  0.38548  1.0000
  C   C2339     1.0  0.49573  0.58762  0.30818  1.0000
  H   H1889     1.0  0.54771  0.83650  0.33444  1.0000
  C   C2340     1.0  0.51833  0.78042  0.24422  1.0000
  C   C2341     1.0  0.48845  0.72445  0.38542  1.0000
  C   C2342     1.0  0.50352  0.73005  0.39017  1.0000
  C   C2343     1.0  0.49902  0.74303  0.40291  1.0000
  C   C2344     1.0  0.47943  0.75020  0.41114  1.0000
  C   C2345     1.0  0.46421  0.74429  0.40674  1.0000
  C   C2346     1.0  0.46888  0.73153  0.39365  1.0000
  P   P76       1.0  0.43878  0.75292  0.41756  1.0000
  C   C2347     1.0  0.42702  0.73218  0.42803  1.0000
  H   H1890     1.0  0.51325  0.83192  0.26079  1.0000
  H   H1891     1.0  0.36694  0.67098  0.35187  1.0000
  H   H1892     1.0  0.64144  0.90832  0.27920  1.0000
  H   H1893     1.0  0.43251  0.80586  0.29821  1.0000
  C   C2348     1.0  0.40647  0.73503  0.43330  1.0000
  C   C2349     1.0  0.39748  0.71910  0.44233  1.0000
  C   C2350     1.0  0.40887  0.70023  0.44646  1.0000
  C   C2351     1.0  0.42931  0.69723  0.44156  1.0000
  C   C2352     1.0  0.43837  0.71312  0.43253  1.0000
  C   C2353     1.0  0.42638  0.77077  0.39950  1.0000
  C   C2354     1.0  0.43537  0.77376  0.37955  1.0000
  C   C2355     1.0  0.42618  0.78834  0.36589  1.0000
  C   C2356     1.0  0.66012  0.81734  0.43478  1.0000
  C   C2357     1.0  0.52114  0.71796  0.26494  1.0000
  C   C2358     1.0  0.43747  0.76455  0.43740  1.0000
  H   H1894     1.0  0.49191  0.71465  0.37526  1.0000
  H   H1895     1.0  0.51869  0.72432  0.38396  1.0000
  H   H1896     1.0  0.51077  0.74746  0.40642  1.0000
  H   H1897     1.0  0.47630  0.76019  0.42099  1.0000
  H   H1898     1.0  0.45734  0.72703  0.38986  1.0000
  C   C2359     1.0  0.40124  0.62027  0.25212  1.0000
  H   H1899     1.0  0.52382  0.92259  0.27744  1.0000
  H   H1900     1.0  0.39722  0.74943  0.43046  1.0000
  S   S322      1.0  0.35516  0.77905  0.44403  1.0000
  H   H1901     1.0  0.40182  0.68799  0.45361  1.0000
  H   H1902     1.0  0.43817  0.68260  0.44488  1.0000
  H   H1903     1.0  0.45422  0.71044  0.42938  1.0000
  H   H1904     1.0  0.44940  0.76490  0.37431  1.0000
  C   C2360     1.0  0.37171  0.69117  0.42350  1.0000
  C   C2361     1.0  0.55147  0.92203  0.25711  1.0000
  H   H1905     1.0  0.45675  0.94081  0.27016  1.0000
  C   C2362     1.0  0.40777  0.79983  0.37192  1.0000
  H   H1906     1.0  0.49722  0.80495  0.28253  1.0000
  C   C2363     1.0  0.59459  0.83363  0.26157  1.0000
  C   C2364     1.0  0.48936  0.65917  0.26462  1.0000
  H   H1907     1.0  0.38409  0.80545  0.39625  1.0000
  H   H1908     1.0  0.47913  0.59243  0.33653  1.0000
  C   C2365     1.0  0.55880  0.57467  0.26244  1.0000
  C   C2366     1.0  0.45668  0.67861  0.34273  1.0000
  H   H1909     1.0  0.54339  0.84990  0.26467  1.0000
  C   C2367     1.0  0.64980  0.69268  0.25947  1.0000
  P   P77       1.0  0.60739  0.90269  0.26725  1.0000
  H   H1910     1.0  0.54004  0.81783  0.28509  1.0000
  C   C2368     1.0  0.36943  0.70814  0.32602  1.0000
  C   C2369     1.0  0.54612  0.63473  0.29853  1.0000
  H   H1911     1.0  0.48527  0.62551  0.33158  1.0000
  S   S323      1.0  0.55340  0.62556  0.24401  1.0000
  H   H1912     1.0  0.46613  0.67262  0.29596  1.0000
  C   C2370     1.0  0.43964  0.69516  0.27442  1.0000
  S   S324      1.0  0.46079  0.74495  0.26158  1.0000
  H   H1913     1.0  0.53918  0.90865  0.30655  1.0000
  C   C2371     1.0  0.56683  0.65115  0.30757  1.0000
  C   C2372     1.0  0.49186  0.81985  0.28479  1.0000
  H   H1914     1.0  0.58457  0.84743  0.25806  1.0000
  H   H1915     1.0  0.50443  0.65474  0.33733  1.0000
  C   C2373     1.0  0.44544  0.81325  0.26764  1.0000
  C   C2374     1.0  0.37183  0.65428  0.25308  1.0000
  H   H1916     1.0  0.51562  0.61823  0.24566  1.0000
  C   C2375     1.0  0.50029  0.92770  0.23978  1.0000
  Fe  Fe163     1.0  0.34251  0.77123  0.42261  1.0000
  H   H1917     1.0  0.47760  0.66945  0.36158  1.0000
  C   C2376     1.0  0.50508  0.66061  0.27204  1.0000
  C   C2377     1.0  0.50307  0.62530  0.30240  1.0000
  C   C2378     1.0  0.62059  0.87353  0.32054  1.0000
  C   C2379     1.0  0.63345  0.92253  0.27293  1.0000
  C   C2380     1.0  0.61543  0.88360  0.28705  1.0000
  H   H1918     1.0  0.58008  0.69796  0.24637  1.0000
  C   C2381     1.0  0.65656  0.80596  0.42352  1.0000
  H   H1919     1.0  0.54462  0.62223  0.29376  1.0000
  H   H1920     1.0  0.38940  0.68983  0.37542  1.0000
  H   H1921     1.0  0.44483  0.68474  0.35353  1.0000
  H   H1922     1.0  0.60742  0.97356  0.24792  1.0000
  H   H1923     1.0  0.43315  0.79042  0.35050  1.0000
  C   C2382     1.0  0.64065  0.93923  0.27139  1.0000
  H   H1924     1.0  0.63571  0.84354  0.32884  1.0000
  C   C2383     1.0  0.48809  0.59846  0.32295  1.0000
  C   C2384     1.0  0.59913  0.72107  0.27036  1.0000
  C   C2385     1.0  0.61443  0.95936  0.25530  1.0000
  C   C2386     1.0  0.65896  0.83257  0.39528  1.0000
  P   P78       1.0  0.65202  0.79843  0.38899  1.0000
  C   C2387     1.0  0.43743  0.78467  0.43372  1.0000
  S   S325      1.0  0.50430  0.87431  0.26066  1.0000
  H   H1925     1.0  0.45683  0.84674  0.31459  1.0000
  H   H1926     1.0  0.38341  0.70884  0.29564  1.0000
  C   C2388     1.0  0.58082  0.90902  0.27102  1.0000
  H   H1927     1.0  0.43924  0.68644  0.32067  1.0000
  C   C2389     1.0  0.50196  0.77347  0.24430  1.0000
  C   C2390     1.0  0.44004  0.69211  0.25589  1.0000
  C   C2391     1.0  0.56887  0.90599  0.28977  1.0000
  H   H1928     1.0  0.53311  0.96393  0.29482  1.0000
  C   C2392     1.0  0.36924  0.63890  0.24590  1.0000
  C   C2393     1.0  0.57558  0.76858  0.28591  1.0000
  H   H1929     1.0  0.35477  0.83134  0.47775  1.0000
  C   C2394     1.0  0.51112  0.61407  0.28793  1.0000
  C   C2395     1.0  0.62565  0.80322  0.39226  1.0000
  C   C2396     1.0  0.32797  0.65820  0.24808  1.0000
  C   C2397     1.0  0.61636  0.92423  0.26606  1.0000
  C   C2398     1.0  0.60726  0.94270  0.25674  1.0000
  H   H1930     1.0  0.53340  0.66904  0.26390  1.0000
  C   C2399     1.0  0.53670  0.72653  0.25353  1.0000
  C   C2400     1.0  0.34180  0.61870  0.23784  1.0000
  C   C2401     1.0  0.42994  0.80994  0.28342  1.0000
  H   H1931     1.0  0.38499  0.72604  0.35746  1.0000
  H   H1932     1.0  0.47776  0.91212  0.25672  1.0000
  C   C2402     1.0  0.65298  0.75860  0.39383  1.0000
  C   C2403     1.0  0.61369  0.81009  0.28416  1.0000
  H   H1933     1.0  0.65410  0.79136  0.43050  1.0000
  C   C2404     1.0  0.44644  0.71107  0.27630  1.0000
  C   C2405     1.0  0.59535  0.82214  0.38209  1.0000
  H   H1934     1.0  0.55137  0.86880  0.31338  1.0000
  H   H1935     1.0  0.62675  0.86071  0.26998  1.0000
  H   H1936     1.0  0.43597  0.80929  0.44622  1.0000
  H   H1937     1.0  0.43822  0.79339  0.41900  1.0000
  H   H1938     1.0  0.43434  0.78975  0.48011  1.0000
  C   C2406     1.0  0.55494  0.96829  0.26841  1.0000
  C   C2407     1.0  0.37408  0.80679  0.46658  1.0000
  C   C2408     1.0  0.34009  0.68814  0.36590  1.0000
  C   C2409     1.0  0.54773  0.86146  0.28761  1.0000
  C   C2410     1.0  0.53587  0.96767  0.27901  1.0000
  C   C2411     1.0  0.55845  0.97337  0.24800  1.0000
  C   C2412     1.0  0.53022  0.65062  0.30107  1.0000
  C   C2413     1.0  0.59128  0.57800  0.24423  1.0000
  C   C2414     1.0  0.44219  0.81875  0.24842  1.0000
  C   C2415     1.0  0.65677  0.81317  0.40346  1.0000
  C   C2416     1.0  0.58805  0.70781  0.24852  1.0000
  C   C2417     1.0  0.55132  0.66732  0.30938  1.0000
  H   H1939     1.0  0.56868  0.81411  0.40012  1.0000
  H   H1940     1.0  0.47263  0.87326  0.29307  1.0000
  H   H1941     1.0  0.52025  0.61993  0.27446  1.0000
  H   H1942     1.0  0.62396  0.82709  0.36704  1.0000
  H   H1943     1.0  0.45990  0.81163  0.27051  1.0000
  S   S326      1.0  0.66073  0.71729  0.27607  1.0000
  C   C2418     1.0  0.52029  0.97239  0.26918  1.0000
  H   H1944     1.0  0.39247  0.77963  0.45965  1.0000
  C   C2419     1.0  0.49166  0.61728  0.32007  1.0000
  C   C2420     1.0  0.51772  0.80053  0.23922  1.0000
  S   S327      1.0  0.64578  0.71452  0.33313  1.0000
  H   H1945     1.0  0.37634  0.68675  0.43739  1.0000
  C   C2421     1.0  0.43576  0.76263  0.47190  1.0000
  C   C2422     1.0  0.57741  0.57755  0.26169  1.0000
  C   C2423     1.0  0.35943  0.70277  0.38757  1.0000
  C   C2424     1.0  0.60858  0.73317  0.25437  1.0000
  C   C2425     1.0  0.47050  0.94225  0.26004  1.0000
  H   H1946     1.0  0.37227  0.81323  0.45166  1.0000
  H   H1947     1.0  0.65757  0.80251  0.31844  1.0000
  H   H1948     1.0  0.36100  0.66790  0.25291  1.0000
  H   H1949     1.0  0.33416  0.93797  0.43463  1.0000
  H   H1950     1.0  0.59493  0.94423  0.25012  1.0000
  H   H1951     1.0  0.40025  0.68055  0.40687  1.0000
  C   C2426     1.0  0.33207  0.58265  0.24041  1.0000
  C   C2427     1.0  0.35220  0.70027  0.42278  1.0000
  C   C2428     1.0  0.61691  0.89464  0.24426  1.0000
  C   C2429     1.0  0.63873  0.67927  0.25952  1.0000
  H   H1952     1.0  0.61612  0.74312  0.25702  1.0000
  H   H1953     1.0  0.33220  0.64187  0.27689  1.0000
  Fe  Fe164     1.0  0.65954  0.73734  0.33728  1.0000
  H   H1954     1.0  0.65960  0.69789  0.24622  1.0000
  C   C2430     1.0  0.61475  0.80349  0.25263  1.0000
  H   H1955     1.0  0.33077  0.71274  0.40474  1.0000
  C   C2431     1.0  0.43543  0.78270  0.46817  1.0000
  H   H1956     1.0  0.58068  0.91985  0.24029  1.0000
  C   C2432     1.0  0.38530  0.78786  0.47109  1.0000
  C   C2433     1.0  0.45260  0.72187  0.24116  1.0000
  C   C2434     1.0  0.42321  0.82091  0.24526  1.0000
  H   H1957     1.0  0.65316  0.92995  0.47040  1.0000
  C   C2435     1.0  0.33458  0.74647  0.37117  1.0000
  H   H1958     1.0  0.43687  0.73802  0.45985  1.0000
  H   H1959     1.0  0.34179  0.70282  0.43609  1.0000
  H   H1960     1.0  0.65074  0.62888  0.26465  1.0000
  H   H1961     1.0  0.45780  0.88391  0.25077  1.0000
  C   C2436     1.0  0.48234  0.92606  0.25250  1.0000
  C   C2437     1.0  0.60207  0.82155  0.24783  1.0000
  H   H1962     1.0  0.63973  0.83588  0.29633  1.0000
  C   C2438     1.0  0.48884  0.66609  0.24477  1.0000
  H   H1963     1.0  0.57310  0.97427  0.23968  1.0000
  C   C2439     1.0  0.43629  0.79371  0.44909  1.0000
  H   H1964     1.0  0.34805  0.49528  0.24015  1.0000
  C   C2440     1.0  0.47658  0.96013  0.25479  1.0000
  C   C2441     1.0  0.65534  0.80055  0.34919  1.0000
  C   C2442     1.0  0.60781  0.88210  0.23931  1.0000
  C   C2443     1.0  0.63706  0.90677  0.47977  1.0000
  C   C2444     1.0  0.49439  0.96203  0.24159  1.0000
  H   H1965     1.0  0.53928  0.57075  0.24654  1.0000
  H   H1966     1.0  0.62039  0.79399  0.24225  1.0000
  H   H1967     1.0  0.65076  0.63645  0.29614  1.0000
  S   S328      1.0  0.64470  0.58318  0.23672  1.0000
  H   H1968     1.0  0.46751  0.97227  0.26131  1.0000
  H   H1969     1.0  0.54768  0.97819  0.33484  1.0000
  H   H1970     1.0  0.65224  0.66317  0.32547  1.0000
  C   C2445     1.0  0.34322  0.65575  0.35968  1.0000
  H   H1971     1.0  0.47670  0.66489  0.23916  1.0000
  H   H1972     1.0  0.35207  0.64310  0.35382  1.0000
  C   C2446     1.0  0.34603  0.70598  0.40493  1.0000
  H   H1973     1.0  0.53020  0.80596  0.23967  1.0000
  C   C2447     1.0  0.60806  0.73238  0.23529  1.0000
  C   C2448     1.0  0.54295  0.97791  0.23818  1.0000
  C   C2449     1.0  0.33292  0.73131  0.36317  1.0000
  C   C2450     1.0  0.45832  0.85827  0.24036  1.0000
  P   P79       1.0  0.50352  0.98425  0.23618  1.0000
  C   C2451     1.0  0.48492  0.78654  0.23982  1.0000
  C   C2452     1.0  0.52026  0.67488  0.23905  1.0000
  C   C2453     1.0  0.55398  0.57237  0.24567  1.0000
  C   C2454     1.0  0.46274  0.87651  0.23853  1.0000
  H   H1974     1.0  0.64954  0.73344  0.23704  1.0000
  P   P80       1.0  0.34805  0.64215  0.23535  1.0000
  Fe  Fe165     1.0  0.41167  0.80213  0.70276  1.0000
  S   S329      1.0  0.42106  0.77313  0.72197  1.0000
  S   S330      1.0  0.38932  0.80783  0.68367  1.0000
  Fe  Fe166     1.0  0.43789  0.82138  0.71611  1.0000
  H   H1975     1.0  0.34393  0.75945  0.54360  1.0000
  Fe  Fe167     1.0  0.45144  0.77913  0.71159  1.0000
  S   S331      1.0  0.47709  0.75510  0.70313  1.0000
  H   H1976     1.0  0.38887  0.69010  0.49295  1.0000
  S   S332      1.0  0.44237  0.80704  0.69054  1.0000
  Fe  Fe168     1.0  0.59022  0.77603  0.73213  1.0000
  H   H1977     1.0  0.62503  0.88068  0.48973  1.0000
  S   S333      1.0  0.59468  0.79288  0.70115  1.0000
  H   H1978     1.0  0.33450  0.82117  0.56222  1.0000
  Fe  Fe169     1.0  0.60404  0.73635  0.72039  1.0000
  S   S334      1.0  0.60979  0.74972  0.68844  1.0000
  C   C2455     1.0  0.38250  0.67729  0.49604  1.0000
  Fe  Fe170     1.0  0.62284  0.77057  0.69684  1.0000
  C   C2456     1.0  0.33307  0.57750  0.70517  1.0000
  Fe  Fe171     1.0  0.58105  0.77058  0.69550  1.0000
  S   S335      1.0  0.56054  0.77760  0.67453  1.0000
  H   H1979     1.0  0.33031  0.70266  0.56452  1.0000
  C   C2457     1.0  0.32781  0.59406  0.67265  1.0000
  Fe  Fe172     1.0  0.35499  0.74630  0.63121  1.0000
  C   C2458     1.0  0.36378  0.87578  0.50564  1.0000
  S   S336      1.0  0.37372  0.73846  0.65416  1.0000
  C   C2459     1.0  0.51035  0.86985  0.70401  1.0000
  H   H1980     1.0  0.35353  0.69310  0.50608  1.0000
  H   H1981     1.0  0.54788  0.81686  0.67886  1.0000
  C   C2460     1.0  0.49129  0.81680  0.67135  1.0000
  C   C2461     1.0  0.37923  0.69906  0.69709  1.0000
  H   H1982     1.0  0.43498  0.75411  0.48672  1.0000
  S   S337      1.0  0.35844  0.72471  0.61242  1.0000
  H   H1983     1.0  0.35165  0.60643  0.65337  1.0000
  C   C2462     1.0  0.57483  0.82676  0.66698  1.0000
  C   C2463     1.0  0.54690  0.84350  0.68802  1.0000
  H   H1984     1.0  0.40578  0.67688  0.69784  1.0000
  C   C2464     1.0  0.38437  0.70493  0.73231  1.0000
  C   C2465     1.0  0.35206  0.58132  0.70031  1.0000
  H   H1985     1.0  0.55150  0.86943  0.69470  1.0000
  P   P81       1.0  0.36733  0.57351  0.71843  1.0000
  C   C2466     1.0  0.63944  0.79012  0.64709  1.0000
  C   C2467     1.0  0.32950  0.68646  0.54344  1.0000
  H   H1986     1.0  0.62476  0.79069  0.65587  1.0000
  C   C2468     1.0  0.36783  0.71561  0.72444  1.0000
  C   C2469     1.0  0.36200  0.81445  0.54166  1.0000
  C   C2470     1.0  0.34651  0.59828  0.66782  1.0000
  C   C2471     1.0  0.36555  0.64471  0.50337  1.0000
  C   C2472     1.0  0.33432  0.62954  0.54411  1.0000
  C   C2473     1.0  0.65512  0.87468  0.49277  1.0000
  H   H1987     1.0  0.34576  0.86445  0.56838  1.0000
  C   C2474     1.0  0.37380  0.74292  0.53964  1.0000
  C   C2475     1.0  0.32994  0.86884  0.57004  1.0000
  C   C2476     1.0  0.38521  0.78836  0.67559  1.0000
  C   C2477     1.0  0.37250  0.79255  0.66250  1.0000
  C   C2478     1.0  0.36892  0.77737  0.65579  1.0000
  C   C2479     1.0  0.37790  0.75787  0.66228  1.0000
  C   C2480     1.0  0.39063  0.75368  0.67535  1.0000
  C   C2481     1.0  0.39438  0.76889  0.68187  1.0000
  C   C2482     1.0  0.36132  0.53559  0.72363  1.0000
  H   H1988     1.0  0.34543  0.90366  0.49576  1.0000
  H   H1989     1.0  0.39763  0.73864  0.68041  1.0000
  H   H1990     1.0  0.40429  0.76555  0.69180  1.0000
  C   C2483     1.0  0.49973  0.76251  0.69568  1.0000
  C   C2484     1.0  0.50980  0.76384  0.70941  1.0000
  C   C2485     1.0  0.52854  0.76849  0.70318  1.0000
  C   C2486     1.0  0.53708  0.77200  0.68321  1.0000
  C   C2487     1.0  0.52678  0.77102  0.66956  1.0000
  C   C2488     1.0  0.50828  0.76614  0.67577  1.0000
  H   H1991     1.0  0.50328  0.76101  0.72483  1.0000
  H   H1992     1.0  0.53625  0.76947  0.71379  1.0000
  H   H1993     1.0  0.53324  0.77390  0.65412  1.0000
  H   H1994     1.0  0.50052  0.76534  0.66512  1.0000
  C   C2489     1.0  0.55369  0.71398  0.72394  1.0000
  C   C2490     1.0  0.36373  0.54965  0.73270  1.0000
  H   H1995     1.0  0.56752  0.71671  0.71474  1.0000
  C   C2491     1.0  0.53723  0.71687  0.71582  1.0000
  P   P82       1.0  0.32778  0.66484  0.51696  1.0000
  C   C2492     1.0  0.36525  0.85547  0.51138  1.0000
  H   H1996     1.0  0.33852  0.60332  0.56651  1.0000
  C   C2493     1.0  0.59828  0.70876  0.67796  1.0000
  C   C2494     1.0  0.50246  0.83059  0.66043  1.0000
  C   C2495     1.0  0.43745  0.71008  0.67564  1.0000
  C   C2496     1.0  0.43705  0.71614  0.69266  1.0000
  C   C2497     1.0  0.44108  0.73440  0.69138  1.0000
  C   C2498     1.0  0.44521  0.74677  0.67320  1.0000
  C   C2499     1.0  0.44539  0.74091  0.65604  1.0000
  C   C2500     1.0  0.44195  0.72226  0.65737  1.0000
  P   P83       1.0  0.45356  0.75543  0.63242  1.0000
  C   C2501     1.0  0.43860  0.75713  0.61513  1.0000
  C   C2502     1.0  0.45141  0.78036  0.63455  1.0000
  C   C2503     1.0  0.43285  0.79144  0.64121  1.0000
  C   C2504     1.0  0.43084  0.81072  0.64314  1.0000
  C   C2505     1.0  0.44731  0.81907  0.63846  1.0000
  C   C2506     1.0  0.46581  0.80825  0.63153  1.0000
  C   C2507     1.0  0.46788  0.78899  0.62946  1.0000
  C   C2508     1.0  0.44431  0.76582  0.59538  1.0000
  C   C2509     1.0  0.43287  0.76713  0.58186  1.0000
  C   C2510     1.0  0.41549  0.76011  0.58803  1.0000
  C   C2511     1.0  0.40941  0.75207  0.60775  1.0000
  C   C2512     1.0  0.42072  0.75086  0.62130  1.0000
  C   C2513     1.0  0.47895  0.74363  0.62545  1.0000
  C   C2514     1.0  0.49189  0.74145  0.63787  1.0000
  C   C2515     1.0  0.51160  0.73225  0.63300  1.0000
  C   C2516     1.0  0.51847  0.72478  0.61588  1.0000
  C   C2517     1.0  0.50557  0.72635  0.60373  1.0000
  C   C2518     1.0  0.48582  0.73562  0.60854  1.0000
  H   H1997     1.0  0.43451  0.69586  0.67657  1.0000
  H   H1998     1.0  0.43392  0.70660  0.70679  1.0000
  H   H1999     1.0  0.44140  0.73896  0.70442  1.0000
  H   H2000     1.0  0.44869  0.76067  0.67268  1.0000
  H   H2001     1.0  0.44283  0.71710  0.64428  1.0000
  H   H2002     1.0  0.41994  0.78511  0.64513  1.0000
  H   H2003     1.0  0.41650  0.81908  0.64863  1.0000
  H   H2004     1.0  0.44571  0.83386  0.64044  1.0000
  H   H2005     1.0  0.47858  0.81474  0.62791  1.0000
  H   H2006     1.0  0.48234  0.78099  0.62396  1.0000
  H   H2007     1.0  0.45762  0.77152  0.59047  1.0000
  H   H2008     1.0  0.43747  0.77354  0.56659  1.0000
  H   H2009     1.0  0.40659  0.76097  0.57762  1.0000
  H   H2010     1.0  0.39584  0.74680  0.61265  1.0000
  H   H2011     1.0  0.41522  0.74519  0.63655  1.0000
  H   H2012     1.0  0.48668  0.74686  0.65138  1.0000
  H   H2013     1.0  0.52149  0.73085  0.64262  1.0000
  H   H2014     1.0  0.53376  0.71759  0.61216  1.0000
  H   H2015     1.0  0.51085  0.72024  0.59063  1.0000
  H   H2016     1.0  0.47602  0.73619  0.59920  1.0000
  C   C2519     1.0  0.65517  0.74786  0.57383  1.0000
  C   C2520     1.0  0.38661  0.77922  0.49049  1.0000
  C   C2521     1.0  0.34973  0.84709  0.51126  1.0000
  H   H2017     1.0  0.33763  0.75331  0.51342  1.0000
  H   H2018     1.0  0.65819  0.70125  0.60009  1.0000
  H   H2019     1.0  0.36539  0.80759  0.65754  1.0000
  C   C2522     1.0  0.51128  0.83959  0.66990  1.0000
  H   H2020     1.0  0.43386  0.53848  0.69138  1.0000
  H   H2021     1.0  0.33018  0.86765  0.54065  1.0000
  H   H2022     1.0  0.48335  0.92289  0.71028  1.0000
  H   H2023     1.0  0.42668  0.60051  0.68652  1.0000
  H   H2024     1.0  0.37411  0.78056  0.72196  1.0000
  H   H2025     1.0  0.61411  0.74456  0.62971  1.0000
  C   C2523     1.0  0.36567  0.80858  0.50098  1.0000
  H   H2026     1.0  0.65905  0.84687  0.56484  1.0000
  C   C2524     1.0  0.35390  0.66245  0.50808  1.0000
  S   S338      1.0  0.38008  0.74903  0.55905  1.0000
  C   C2525     1.0  0.39110  0.80599  0.55592  1.0000
  C   C2526     1.0  0.36240  0.67892  0.50369  1.0000
  H   H2027     1.0  0.62827  0.69315  0.67422  1.0000
  H   H2028     1.0  0.34468  0.67890  0.54276  1.0000
  C   C2527     1.0  0.58462  0.72482  0.67048  1.0000
  C   C2528     1.0  0.59049  0.73747  0.65298  1.0000
  C   C2529     1.0  0.50579  0.89797  0.71872  1.0000
  H   H2029     1.0  0.34300  0.63669  0.61264  1.0000
  P   P84       1.0  0.52219  0.84472  0.70237  1.0000
  H   H2030     1.0  0.50452  0.83408  0.64465  1.0000
  C   C2530     1.0  0.42060  0.58742  0.69111  1.0000
  H   H2031     1.0  0.39626  0.71896  0.50223  1.0000
  H   H2032     1.0  0.47428  0.90721  0.68789  1.0000
  H   H2033     1.0  0.59392  0.69922  0.69184  1.0000
  C   C2531     1.0  0.65174  0.72709  0.61272  1.0000
  Fe  Fe173     1.0  0.35752  0.75024  0.58709  1.0000
  C   C2532     1.0  0.49107  0.90825  0.70828  1.0000
  C   C2533     1.0  0.48875  0.81224  0.69171  1.0000
  C   C2534     1.0  0.35032  0.81708  0.56001  1.0000
  H   H2034     1.0  0.39183  0.60274  0.70271  1.0000
  H   H2035     1.0  0.36143  0.53893  0.70810  1.0000
  H   H2036     1.0  0.48023  0.80151  0.70022  1.0000
  H   H2037     1.0  0.49086  0.87352  0.68425  1.0000
  H   H2038     1.0  0.38589  0.80589  0.58673  1.0000
  H   H2039     1.0  0.50955  0.90452  0.72885  1.0000
  H   H2040     1.0  0.56962  0.72791  0.67844  1.0000
  H   H2041     1.0  0.57998  0.75021  0.64750  1.0000
  S   S339      1.0  0.65256  0.77684  0.68168  1.0000
  C   C2535     1.0  0.51541  0.87891  0.71653  1.0000
  P   P85       1.0  0.35107  0.82107  0.52026  1.0000
  C   C2536     1.0  0.34349  0.60524  0.73459  1.0000
  H   H2042     1.0  0.37718  0.78214  0.52046  1.0000
  H   H2043     1.0  0.37573  0.88215  0.50595  1.0000
  C   C2537     1.0  0.43248  0.56936  0.68788  1.0000
  H   H2044     1.0  0.60063  0.83913  0.65821  1.0000
  C   C2538     1.0  0.38476  0.72774  0.51121  1.0000
  C   C2539     1.0  0.37933  0.80860  0.57408  1.0000
  C   C2540     1.0  0.39522  0.68770  0.70528  1.0000
  C   C2541     1.0  0.36124  0.59131  0.73386  1.0000
  H   H2045     1.0  0.62968  0.80180  0.61971  1.0000
  C   C2542     1.0  0.35859  0.59201  0.68160  1.0000
  C   C2543     1.0  0.34679  0.88788  0.49982  1.0000
  H   H2046     1.0  0.39917  0.54036  0.70761  1.0000
  C   C2544     1.0  0.35527  0.75050  0.53464  1.0000
  H   H2047     1.0  0.35908  0.78075  0.64572  1.0000
  H   H2048     1.0  0.64575  0.71691  0.67887  1.0000
  C   C2545     1.0  0.36662  0.73588  0.50571  1.0000
  C   C2546     1.0  0.48603  0.89945  0.69561  1.0000
  C   C2547     1.0  0.38253  0.80918  0.53972  1.0000
  C   C2548     1.0  0.53509  0.81072  0.72858  1.0000
  C   C2549     1.0  0.58558  0.84056  0.66627  1.0000
  C   C2550     1.0  0.50901  0.83479  0.69037  1.0000
  C   C2551     1.0  0.49558  0.88029  0.69351  1.0000
  H   H2049     1.0  0.57789  0.82075  0.72658  1.0000
  C   C2552     1.0  0.57704  0.85590  0.67632  1.0000
  H   H2050     1.0  0.46624  0.87396  0.72671  1.0000
  H   H2051     1.0  0.58545  0.86646  0.67600  1.0000
  H   H2052     1.0  0.49500  0.81755  0.71704  1.0000
  C   C2553     1.0  0.37675  0.78945  0.50542  1.0000
  C   C2554     1.0  0.52291  0.82953  0.72646  1.0000
  S   S340      1.0  0.35717  0.77112  0.60546  1.0000
  H   H2053     1.0  0.40279  0.72579  0.53156  1.0000
  C   C2555     1.0  0.33311  0.85926  0.50458  1.0000
  C   C2556     1.0  0.64947  0.74760  0.60841  1.0000
  C   C2557     1.0  0.35897  0.81437  0.57603  1.0000
  C   C2558     1.0  0.38846  0.73159  0.52783  1.0000
  H   H2054     1.0  0.52021  0.84999  0.66129  1.0000
  H   H2055     1.0  0.40687  0.80147  0.55442  1.0000
  H   H2056     1.0  0.34977  0.81623  0.59016  1.0000
  C   C2559     1.0  0.61003  0.73427  0.64300  1.0000
  H   H2057     1.0  0.35697  0.50626  0.72748  1.0000
  H   H2058     1.0  0.41046  0.68190  0.72876  1.0000
  H   H2059     1.0  0.53813  0.72205  0.70022  1.0000
  H   H2060     1.0  0.50659  0.71605  0.72161  1.0000
  H   H2061     1.0  0.65689  0.75585  0.55877  1.0000
  C   C2560     1.0  0.55774  0.85745  0.68706  1.0000
  H   H2062     1.0  0.59892  0.92631  0.71396  1.0000
  H   H2063     1.0  0.48466  0.80950  0.66416  1.0000
  C   C2561     1.0  0.61783  0.70544  0.66797  1.0000
  C   C2562     1.0  0.65801  0.68792  0.63892  1.0000
  H   H2064     1.0  0.39473  0.76431  0.49407  1.0000
  H   H2065     1.0  0.39463  0.62930  0.49235  1.0000
  H   H2066     1.0  0.56303  0.85615  0.72528  1.0000
  C   C2563     1.0  0.59927  0.92559  0.72905  1.0000
  H   H2067     1.0  0.64900  0.77375  0.58581  1.0000
  S   S341      1.0  0.40624  0.81937  0.72628  1.0000
  C   C2564     1.0  0.62392  0.71826  0.65046  1.0000
  H   H2068     1.0  0.34885  0.63197  0.54272  1.0000
  H   H2069     1.0  0.38676  0.74532  0.72215  1.0000
  C   C2565     1.0  0.40086  0.58862  0.70033  1.0000
  H   H2070     1.0  0.58150  0.81459  0.65953  1.0000
  H   H2071     1.0  0.33600  0.79033  0.51174  1.0000
  C   C2566     1.0  0.35177  0.74721  0.51748  1.0000
  H   H2072     1.0  0.37297  0.59554  0.67755  1.0000
  S   S342      1.0  0.44890  0.84840  0.71452  1.0000
  H   H2073     1.0  0.63090  0.68381  0.63437  1.0000
  C   C2567     1.0  0.49739  0.82128  0.70123  1.0000
  H   H2074     1.0  0.54466  0.80539  0.71599  1.0000
  H   H2075     1.0  0.39198  0.80765  0.52568  1.0000
  C   C2568     1.0  0.39782  0.69062  0.72283  1.0000
  C   C2569     1.0  0.64223  0.79640  0.62667  1.0000
  H   H2076     1.0  0.52649  0.87099  0.72504  1.0000
  H   H2077     1.0  0.44780  0.56844  0.68079  1.0000
  H   H2078     1.0  0.37754  0.69738  0.68313  1.0000
  C   C2570     1.0  0.55572  0.82805  0.67802  1.0000
  C   C2571     1.0  0.65779  0.72744  0.57796  1.0000
  H   H2079     1.0  0.62710  0.90508  0.72822  1.0000
  C   C2572     1.0  0.36547  0.71288  0.70675  1.0000
  C   C2573     1.0  0.39284  0.57171  0.70643  1.0000
  C   C2574     1.0  0.40488  0.55363  0.70307  1.0000
  C   C2575     1.0  0.42462  0.55249  0.69384  1.0000
  S   S343      1.0  0.57424  0.75554  0.72688  1.0000
  C   C2576     1.0  0.65237  0.65676  0.63682  1.0000
  C   C2577     1.0  0.65088  0.75793  0.58906  1.0000
  P   P86       1.0  0.64935  0.71398  0.63786  1.0000
  H   H2080     1.0  0.64654  0.75566  0.62002  1.0000
  H   H2081     1.0  0.37842  0.84637  0.51607  1.0000
  H   H2082     1.0  0.35905  0.63216  0.50553  1.0000
  H   H2083     1.0  0.65556  0.85915  0.49852  1.0000
  C   C2578     1.0  0.51941  0.71353  0.72792  1.0000
  H   H2084     1.0  0.40977  0.65812  0.48633  1.0000
  C   C2579     1.0  0.65566  0.78367  0.65614  1.0000
  C   C2580     1.0  0.33147  0.87961  0.49933  1.0000
  C   C2581     1.0  0.65601  0.71705  0.59732  1.0000
  C   C2582     1.0  0.39418  0.65935  0.49221  1.0000
  H   H2085     1.0  0.35702  0.72649  0.73163  1.0000
  H   H2086     1.0  0.35323  0.72186  0.70018  1.0000
  H   H2087     1.0  0.33299  0.60544  0.72615  1.0000
  C   C2583     1.0  0.38567  0.64311  0.49570  1.0000
  S   S344      1.0  0.61951  0.75550  0.72833  1.0000
  C   C2584     1.0  0.64568  0.67686  0.63651  1.0000
  H   H2088     1.0  0.64275  0.64829  0.63508  1.0000
  C   C2585     1.0  0.65882  0.72174  0.67004  1.0000
  H   H2089     1.0  0.32879  0.63889  0.58403  1.0000
  S   S345      1.0  0.60731  0.70368  0.73095  1.0000
  C   C2586     1.0  0.35877  0.51705  0.73456  1.0000
  C   C2587     1.0  0.63781  0.88682  0.48766  1.0000
  C   C2588     1.0  0.32847  0.61340  0.55778  1.0000
  H   H2090     1.0  0.32751  0.56980  0.71973  1.0000
  H   H2091     1.0  0.66046  0.86116  0.52980  1.0000
  H   H2092     1.0  0.57143  0.94553  0.73415  1.0000
  Fe  Fe174     1.0  0.47650  0.87144  0.80101  1.0000
  S   S346      1.0  0.50661  0.85290  0.80182  1.0000
  S   S347      1.0  0.45330  0.85676  0.79868  1.0000
  Fe  Fe175     1.0  0.48779  0.90764  0.80569  1.0000
  S   S348      1.0  0.51893  0.89209  0.80674  1.0000
  S   S349      1.0  0.47578  0.94000  0.80556  1.0000
  Fe  Fe176     1.0  0.51715  0.87929  0.78226  1.0000
  S   S350      1.0  0.54133  0.87753  0.75557  1.0000
  Fe  Fe177     1.0  0.50596  0.86699  0.82637  1.0000
  S   S351      1.0  0.52057  0.84864  0.85130  1.0000
  S   S352      1.0  0.48698  0.89681  0.77937  1.0000
  S   S353      1.0  0.47471  0.88357  0.82743  1.0000
  C   C2589     1.0  0.50362  0.78669  0.83250  1.0000
  C   C2590     1.0  0.36160  0.76700  0.91742  1.0000
  C   C2591     1.0  0.60409  0.69685  0.98413  1.0000
  S   S354      1.0  0.40232  0.78230  0.77564  1.0000
  Fe  Fe178     1.0  0.42343  0.68039  0.83883  1.0000
  S   S355      1.0  0.39442  0.68999  0.85804  1.0000
  S   S356      1.0  0.43528  0.69291  0.80752  1.0000
  Fe  Fe179     1.0  0.43812  0.64744  0.87081  1.0000
  S   S357      1.0  0.41018  0.65378  0.89290  1.0000
  S   S358      1.0  0.46511  0.62368  0.87535  1.0000
  Fe  Fe180     1.0  0.39504  0.65767  0.86799  1.0000
  S   S359      1.0  0.36696  0.64711  0.87267  1.0000
  Fe  Fe181     1.0  0.41183  0.68550  0.88126  1.0000
  S   S360      1.0  0.40514  0.70740  0.90100  1.0000
  S   S361      1.0  0.42287  0.64840  0.84704  1.0000
  S   S362      1.0  0.44081  0.67893  0.86087  1.0000
  Fe  Fe182     1.0  0.55957  0.65974  0.85510  1.0000
  S   S363      1.0  0.56631  0.63471  0.87985  1.0000
  S   S364      1.0  0.52903  0.67507  0.85146  1.0000
  Fe  Fe183     1.0  0.60215  0.66219  0.83885  1.0000
  S   S365      1.0  0.61272  0.63757  0.86227  1.0000
  S   S366      1.0  0.62320  0.67913  0.81698  1.0000
  Fe  Fe184     1.0  0.59114  0.62296  0.85710  1.0000
  S   S367      1.0  0.60046  0.59178  0.85301  1.0000
  Fe  Fe185     1.0  0.58712  0.65159  0.88286  1.0000
  S   S368      1.0  0.59097  0.65362  0.91223  1.0000
  S   S369      1.0  0.58245  0.64655  0.83197  1.0000
  S   S370      1.0  0.57845  0.67761  0.85984  1.0000
  Fe  Fe186     1.0  0.48579  0.72716  0.94551  1.0000
  S   S371      1.0  0.50336  0.74648  0.92188  1.0000
  S   S372      1.0  0.47755  0.70176  0.93872  1.0000
  Fe  Fe187     1.0  0.48813  0.74694  0.97757  1.0000
  S   S373      1.0  0.50506  0.76823  0.95635  1.0000
  Fe  Fe188     1.0  0.48442  0.77065  0.93686  1.0000
  S   S374      1.0  0.46884  0.79909  0.92079  1.0000
  Fe  Fe189     1.0  0.52218  0.74202  0.94362  1.0000
  S   S375      1.0  0.55505  0.73532  0.93784  1.0000
  S   S376      1.0  0.46562  0.75159  0.95926  1.0000
  S   S377      1.0  0.50657  0.72049  0.96604  1.0000
  C   C2592     1.0  0.55369  0.85296  0.75648  1.0000
  C   C2593     1.0  0.55716  0.75892  0.86910  1.0000
  S   S378      1.0  0.35698  0.60807  0.80749  1.0000
  H   H2093     1.0  0.49720  0.83789  0.97862  1.0000
  C   C2594     1.0  0.61943  0.52088  0.88993  1.0000
  H   H2094     1.0  0.35929  0.51455  0.94994  1.0000
  C   C2595     1.0  0.60024  0.71697  0.97573  1.0000
  H   H2095     1.0  0.60465  0.66174  0.79622  1.0000
  C   C2596     1.0  0.55293  0.72963  0.77814  1.0000
  C   C2597     1.0  0.52265  0.64489  0.80317  1.0000
  H   H2096     1.0  0.54988  0.91305  0.79810  1.0000
  H   H2097     1.0  0.55894  0.78864  0.82008  1.0000
  C   C2598     1.0  0.52292  0.80516  0.76365  1.0000
  C   C2599     1.0  0.58055  0.67640  0.91913  1.0000
  C   C2600     1.0  0.58447  0.67966  0.93592  1.0000
  C   C2601     1.0  0.57653  0.69776  0.94164  1.0000
  C   C2602     1.0  0.56453  0.71264  0.93070  1.0000
  C   C2603     1.0  0.56046  0.70943  0.91399  1.0000
  C   C2604     1.0  0.56848  0.69131  0.90822  1.0000
  H   H2098     1.0  0.59368  0.66816  0.94450  1.0000
  H   H2099     1.0  0.57948  0.70012  0.95469  1.0000
  H   H2100     1.0  0.55119  0.72093  0.90545  1.0000
  H   H2101     1.0  0.56499  0.68881  0.89554  1.0000
  C   C2605     1.0  0.61925  0.68521  0.79296  1.0000
  C   C2606     1.0  0.34952  0.54287  0.93239  1.0000
  C   C2607     1.0  0.36456  0.63540  0.85499  1.0000
  C   C2608     1.0  0.34722  0.62892  0.85716  1.0000
  C   C2609     1.0  0.34472  0.62017  0.84287  1.0000
  C   C2610     1.0  0.35956  0.61806  0.82627  1.0000
  C   C2611     1.0  0.37689  0.62445  0.82418  1.0000
  C   C2612     1.0  0.37942  0.63299  0.83853  1.0000
  H   H2102     1.0  0.65328  0.63441  0.77685  1.0000
  H   H2103     1.0  0.33785  0.81454  0.90558  1.0000
  H   H2104     1.0  0.38836  0.62295  0.81132  1.0000
  H   H2105     1.0  0.39271  0.63808  0.83656  1.0000
  C   C2613     1.0  0.42508  0.70632  0.91156  1.0000
  C   C2614     1.0  0.42430  0.72016  0.92254  1.0000
  C   C2615     1.0  0.44052  0.71942  0.93050  1.0000
  C   C2616     1.0  0.45739  0.70459  0.92781  1.0000
  C   C2617     1.0  0.45810  0.69096  0.91672  1.0000
  C   C2618     1.0  0.44206  0.69186  0.90864  1.0000
  H   H2106     1.0  0.41122  0.73150  0.92475  1.0000
  H   H2107     1.0  0.43983  0.73000  0.93905  1.0000
  H   H2108     1.0  0.47122  0.67975  0.91418  1.0000
  H   H2109     1.0  0.44268  0.68118  0.90032  1.0000
  C   C2619     1.0  0.48437  0.63583  0.87148  1.0000
  C   C2620     1.0  0.50332  0.62862  0.86157  1.0000
  C   C2621     1.0  0.51756  0.64026  0.85605  1.0000
  C   C2622     1.0  0.51253  0.65925  0.85992  1.0000
  C   C2623     1.0  0.49387  0.66594  0.87049  1.0000
  C   C2624     1.0  0.48018  0.65392  0.87688  1.0000
  H   H2110     1.0  0.50671  0.61449  0.85751  1.0000
  H   H2111     1.0  0.53208  0.63498  0.84803  1.0000
  H   H2112     1.0  0.49003  0.68025  0.87416  1.0000
  H   H2113     1.0  0.46612  0.65877  0.88576  1.0000
  C   C2625     1.0  0.41131  0.75749  0.78460  1.0000
  C   C2626     1.0  0.42957  0.74798  0.77554  1.0000
  C   C2627     1.0  0.43688  0.72819  0.78293  1.0000
  C   C2628     1.0  0.42585  0.71777  0.79912  1.0000
  C   C2629     1.0  0.40750  0.72722  0.80813  1.0000
  C   C2630     1.0  0.40030  0.74716  0.80094  1.0000
  H   H2114     1.0  0.43820  0.75589  0.76298  1.0000
  H   H2115     1.0  0.45126  0.72097  0.77624  1.0000
  H   H2116     1.0  0.39885  0.71920  0.82056  1.0000
  H   H2117     1.0  0.38614  0.75452  0.80791  1.0000
  C   C2631     1.0  0.50617  0.83473  0.87044  1.0000
  C   C2632     1.0  0.51532  0.81819  0.88257  1.0000
  C   C2633     1.0  0.50402  0.80687  0.89787  1.0000
  C   C2634     1.0  0.48352  0.81239  0.90136  1.0000
  C   C2635     1.0  0.47443  0.82903  0.88940  1.0000
  C   C2636     1.0  0.48569  0.84002  0.87380  1.0000
  H   H2118     1.0  0.53117  0.81405  0.88002  1.0000
  H   H2119     1.0  0.51113  0.79408  0.90711  1.0000
  H   H2120     1.0  0.45861  0.83345  0.89226  1.0000
  H   H2121     1.0  0.47854  0.85281  0.86462  1.0000
  C   C2637     1.0  0.48937  0.95303  0.81284  1.0000
  C   C2638     1.0  0.50464  0.94323  0.82272  1.0000
  C   C2639     1.0  0.51446  0.95396  0.82934  1.0000
  C   C2640     1.0  0.50949  0.97452  0.82565  1.0000
  H   H2122     1.0  0.39327  0.97087  0.92447  1.0000
  C   C2641     1.0  0.48436  0.97363  0.80918  1.0000
  H   H2123     1.0  0.50849  0.92739  0.82577  1.0000
  H   H2124     1.0  0.52584  0.94629  0.83750  1.0000
  C   C2642     1.0  0.62106  0.68908  0.87099  1.0000
  H   H2125     1.0  0.35475  0.72372  0.85175  1.0000
  H   H2126     1.0  0.56246  0.81017  0.78924  1.0000
  C   C2643     1.0  0.45241  0.85471  0.77509  1.0000
  C   C2644     1.0  0.46108  0.86649  0.75821  1.0000
  C   C2645     1.0  0.33755  0.52780  0.88081  1.0000
  C   C2646     1.0  0.59537  0.52371  0.85711  1.0000
  H   H2127     1.0  0.60261  0.60929  0.78938  1.0000
  C   C2647     1.0  0.44247  0.84118  0.77326  1.0000
  H   H2128     1.0  0.46866  0.87710  0.75941  1.0000
  Fe  Fe190     1.0  0.41796  0.79062  0.74457  1.0000
  H   H2129     1.0  0.56707  0.67037  0.78591  1.0000
  H   H2130     1.0  0.43600  0.83186  0.78619  1.0000
  C   C2648     1.0  0.48341  0.93108  0.88166  1.0000
  C   C2649     1.0  0.47598  0.92794  0.86689  1.0000
  C   C2650     1.0  0.46253  0.94294  0.85783  1.0000
  C   C2651     1.0  0.45680  0.96124  0.86318  1.0000
  C   C2652     1.0  0.46449  0.96467  0.87775  1.0000
  C   C2653     1.0  0.47747  0.94928  0.88730  1.0000
  P   P87       1.0  0.38370  0.77609  0.85850  1.0000
  C   C2654     1.0  0.39177  0.57283  0.86141  1.0000
  P   P88       1.0  0.38876  0.71030  0.75381  1.0000
  C   C2655     1.0  0.39539  0.81172  0.85096  1.0000
  H   H2131     1.0  0.54772  0.51859  0.86901  1.0000
  H   H2132     1.0  0.40514  0.83896  0.84495  1.0000
  C   C2656     1.0  0.33864  0.61857  0.74702  1.0000
  H   H2133     1.0  0.35593  0.79470  0.83189  1.0000
  H   H2134     1.0  0.37184  0.73289  0.78531  1.0000
  C   C2657     1.0  0.35739  0.67459  0.81020  1.0000
  C   C2658     1.0  0.58555  0.78820  0.95434  1.0000
  H   H2135     1.0  0.45130  0.66565  0.76657  1.0000
  C   C2659     1.0  0.65683  0.51823  0.83677  1.0000
  H   H2136     1.0  0.64956  0.58097  0.82005  1.0000
  C   C2660     1.0  0.40033  0.81723  0.81036  1.0000
  H   H2137     1.0  0.41240  0.76884  0.88342  1.0000
  C   C2661     1.0  0.41338  0.74503  0.84793  1.0000
  C   C2662     1.0  0.63324  0.56416  0.86086  1.0000
  C   C2663     1.0  0.36693  0.74676  0.85494  1.0000
  H   H2138     1.0  0.49382  0.91940  0.88868  1.0000
  H   H2139     1.0  0.48074  0.91394  0.86230  1.0000
  H   H2140     1.0  0.45684  0.94048  0.84632  1.0000
  C   C2664     1.0  0.33615  0.50113  0.91663  1.0000
  H   H2141     1.0  0.48312  0.95142  0.89897  1.0000
  H   H2142     1.0  0.61704  0.58214  0.81393  1.0000
  S   S379      1.0  0.44932  0.79370  0.73615  1.0000
  C   C2665     1.0  0.41729  0.75829  0.87396  1.0000
  C   C2666     1.0  0.40404  0.83118  0.81854  1.0000
  H   H2143     1.0  0.36304  0.75496  0.92990  1.0000
  H   H2144     1.0  0.61112  0.76435  0.78409  1.0000
  C   C2667     1.0  0.33453  0.50152  0.82229  1.0000
  H   H2145     1.0  0.38804  0.58055  0.74523  1.0000
  C   C2668     1.0  0.37044  0.77978  0.88252  1.0000
  C   C2669     1.0  0.60612  0.67989  0.76732  1.0000
  C   C2670     1.0  0.63056  0.53292  0.81887  1.0000
  H   H2146     1.0  0.54200  0.55498  0.86178  1.0000
  C   C2671     1.0  0.63861  0.68656  0.85725  1.0000
  C   C2672     1.0  0.32778  0.52369  0.95634  1.0000
  C   C2673     1.0  0.37207  0.74296  0.77134  1.0000
  H   H2147     1.0  0.45348  0.73676  0.81329  1.0000
  H   H2148     1.0  0.40789  0.57313  0.88264  1.0000
  H   H2149     1.0  0.41557  0.67395  0.76842  1.0000
  H   H2150     1.0  0.36008  0.76823  0.78470  1.0000
  H   H2151     1.0  0.52344  0.79601  0.77801  1.0000
  H   H2152     1.0  0.51022  0.63778  0.80824  1.0000
  H   H2153     1.0  0.54878  0.89581  0.83234  1.0000
  H   H2154     1.0  0.36113  0.79215  0.75318  1.0000
  Fe  Fe191     1.0  0.33281  0.59195  0.81165  1.0000
  C   C2674     1.0  0.33361  0.60911  0.95405  1.0000
  H   H2155     1.0  0.54906  0.75320  0.97363  1.0000
  C   C2675     1.0  0.51249  0.61237  0.96301  1.0000
  C   C2676     1.0  0.64751  0.55441  0.87211  1.0000
  P   P89       1.0  0.51417  0.62130  0.93702  1.0000
  C   C2677     1.0  0.51952  0.64550  0.92911  1.0000
  C   C2678     1.0  0.53339  0.60637  0.92226  1.0000
  C   C2679     1.0  0.55148  0.59788  0.92800  1.0000
  C   C2680     1.0  0.56648  0.58657  0.91643  1.0000
  C   C2681     1.0  0.56370  0.58406  0.89883  1.0000
  C   C2682     1.0  0.54607  0.59320  0.89257  1.0000
  C   C2683     1.0  0.53106  0.60451  0.90411  1.0000
  C   C2684     1.0  0.51669  0.65624  0.91057  1.0000
  C   C2685     1.0  0.51948  0.67548  0.90440  1.0000
  C   C2686     1.0  0.52482  0.68422  0.91683  1.0000
  C   C2687     1.0  0.52872  0.67330  0.93494  1.0000
  C   C2688     1.0  0.52640  0.65384  0.94097  1.0000
  C   C2689     1.0  0.49014  0.62257  0.93294  1.0000
  C   C2690     1.0  0.48580  0.60667  0.92820  1.0000
  C   C2691     1.0  0.46726  0.60809  0.92457  1.0000
  C   C2692     1.0  0.45276  0.62510  0.92628  1.0000
  C   C2693     1.0  0.45666  0.64057  0.93197  1.0000
  C   C2694     1.0  0.47528  0.63934  0.93530  1.0000
  H   H2156     1.0  0.36429  0.54437  0.92501  1.0000
  H   H2157     1.0  0.52680  0.58232  0.96094  1.0000
  C   C2695     1.0  0.51963  0.59250  0.97060  1.0000
  H   H2158     1.0  0.55415  0.60034  0.94120  1.0000
  H   H2159     1.0  0.58049  0.58023  0.92080  1.0000
  H   H2160     1.0  0.57549  0.57566  0.88967  1.0000
  H   H2161     1.0  0.54429  0.59211  0.87846  1.0000
  H   H2162     1.0  0.51788  0.61219  0.89857  1.0000
  H   H2163     1.0  0.51220  0.64972  0.90096  1.0000
  H   H2164     1.0  0.51738  0.68366  0.89003  1.0000
  H   H2165     1.0  0.52607  0.69943  0.91234  1.0000
  H   H2166     1.0  0.53357  0.67998  0.94421  1.0000
  H   H2167     1.0  0.52988  0.64553  0.95484  1.0000
  H   H2168     1.0  0.49678  0.59333  0.92691  1.0000
  H   H2169     1.0  0.46542  0.79975  0.96879  1.0000
  C   C2696     1.0  0.64603  0.55907  0.89016  1.0000
  H   H2170     1.0  0.47810  0.65158  0.93953  1.0000
  C   C2697     1.0  0.44029  0.72947  0.86459  1.0000
  C   C2698     1.0  0.57089  0.81300  0.75805  1.0000
  C   C2699     1.0  0.53773  0.75712  0.87198  1.0000
  C   C2700     1.0  0.38279  0.69286  0.79355  1.0000
  C   C2701     1.0  0.57919  0.98167  0.75545  1.0000
  C   C2702     1.0  0.35842  0.57613  0.89169  1.0000
  H   H2171     1.0  0.59532  0.70942  0.88148  1.0000
  H   H2172     1.0  0.61548  0.53509  0.81750  1.0000
  C   C2703     1.0  0.65354  0.60786  0.79941  1.0000
  C   C2704     1.0  0.46583  0.79598  0.78591  1.0000
  C   C2705     1.0  0.59101  0.75315  0.89459  1.0000
  C   C2706     1.0  0.35512  0.73920  0.84732  1.0000
  H   H2173     1.0  0.58142  0.49867  0.86632  1.0000
  C   C2707     1.0  0.59992  0.92333  0.76816  1.0000
  H   H2174     1.0  0.64897  0.50514  0.92322  1.0000
  P   P90       1.0  0.62019  0.50925  0.85557  1.0000
  C   C2708     1.0  0.56009  0.52576  0.86452  1.0000
  H   H2175     1.0  0.61816  0.66770  0.97923  1.0000
  H   H2176     1.0  0.64653  0.61176  0.83863  1.0000
  C   C2709     1.0  0.35361  0.50735  0.90684  1.0000
  H   H2177     1.0  0.33827  0.53756  0.86659  1.0000
  C   C2710     1.0  0.62254  0.70680  0.76098  1.0000
  H   H2178     1.0  0.60403  0.55174  0.84895  1.0000
  C   C2711     1.0  0.37433  0.59126  0.74538  1.0000
  H   H2179     1.0  0.45259  0.71744  0.86714  1.0000
  C   C2712     1.0  0.41051  0.97495  0.94296  1.0000
  H   H2180     1.0  0.62611  0.76986  0.85707  1.0000
  C   C2713     1.0  0.37968  0.73624  0.75374  1.0000
  C   C2714     1.0  0.37327  0.68207  0.81064  1.0000
  C   C2715     1.0  0.55934  0.76283  0.96862  1.0000
  C   C2716     1.0  0.61940  0.70957  0.94450  1.0000
  C   C2717     1.0  0.61235  0.69634  0.75464  1.0000
  C   C2718     1.0  0.37647  0.69625  0.77585  1.0000
  C   C2719     1.0  0.47095  0.80496  0.97876  1.0000
  H   H2181     1.0  0.62782  0.90331  0.76282  1.0000
  H   H2182     1.0  0.37181  0.57374  0.84331  1.0000
  H   H2183     1.0  0.65941  0.54301  0.86705  1.0000
  C   C2720     1.0  0.57744  0.75759  0.97453  1.0000
  C   C2721     1.0  0.55759  0.64309  0.79747  1.0000
  C   C2722     1.0  0.57212  0.70961  0.80888  1.0000
  C   C2723     1.0  0.57693  0.72707  0.79727  1.0000
  C   C2724     1.0  0.56718  0.73719  0.78207  1.0000
  C   C2725     1.0  0.51044  0.82366  0.76163  1.0000
  C   C2726     1.0  0.34746  0.80053  0.90369  1.0000
  H   H2184     1.0  0.54394  0.61817  0.80963  1.0000
  H   H2185     1.0  0.57986  0.70168  0.82051  1.0000
  H   H2186     1.0  0.58839  0.73263  0.79987  1.0000
  H   H2187     1.0  0.43349  0.82879  0.75362  1.0000
  H   H2188     1.0  0.55668  0.71781  0.97966  1.0000
  C   C2727     1.0  0.61411  0.72395  0.85677  1.0000
  H   H2189     1.0  0.33486  0.74564  0.82802  1.0000
  H   H2190     1.0  0.64767  0.67199  0.85696  1.0000
  P   P91       1.0  0.33679  0.58024  0.91074  1.0000
  H   H2191     1.0  0.36670  0.50161  0.91298  1.0000
  P   P92       1.0  0.59766  0.74768  0.85636  1.0000
  C   C2728     1.0  0.39099  0.79798  0.84289  1.0000
  H   H2192     1.0  0.40562  0.74545  0.83689  1.0000
  H   H2193     1.0  0.41970  0.73289  0.73756  1.0000
  H   H2194     1.0  0.37834  0.67930  0.82422  1.0000
  C   C2729     1.0  0.63697  0.52127  0.83583  1.0000
  C   C2730     1.0  0.34390  0.75155  0.83400  1.0000
  H   H2195     1.0  0.44187  0.74284  0.88744  1.0000
  H   H2196     1.0  0.44643  0.97261  0.85583  1.0000
  C   C2731     1.0  0.36806  0.76665  0.84882  1.0000
  H   H2197     1.0  0.54563  0.73765  0.76618  1.0000
  C   C2732     1.0  0.45971  0.86471  0.73966  1.0000
  C   C2733     1.0  0.50749  0.96373  0.76441  1.0000
  C   C2734     1.0  0.64254  0.50497  0.91125  1.0000
  C   C2735     1.0  0.56754  0.79322  0.94845  1.0000
  C   C2736     1.0  0.55445  0.78056  0.95563  1.0000
  C   C2737     1.0  0.62670  0.51988  0.90643  1.0000
  C   C2738     1.0  0.64331  0.49139  0.88361  1.0000
  C   C2739     1.0  0.44208  0.77810  0.80809  1.0000
  C   C2740     1.0  0.59683  0.78458  0.83187  1.0000
  C   C2741     1.0  0.40644  0.75859  0.86023  1.0000
  H   H2198     1.0  0.36560  0.55519  0.76019  1.0000
  H   H2199     1.0  0.47149  0.69047  0.74949  1.0000
  C   C2742     1.0  0.47522  0.79410  0.80124  1.0000
  C   C2743     1.0  0.44906  0.78826  0.78943  1.0000
  H   H2200     1.0  0.43860  0.62640  0.92288  1.0000
  C   C2744     1.0  0.64360  0.54194  0.80349  1.0000
  C   C2745     1.0  0.55395  0.84001  0.77451  1.0000
  C   C2746     1.0  0.64429  0.70278  0.84368  1.0000
  H   H2201     1.0  0.39423  0.80950  0.86658  1.0000
  C   C2747     1.0  0.35781  0.79782  0.88501  1.0000
  H   H2202     1.0  0.35559  0.61390  0.89856  1.0000
  H   H2203     1.0  0.56372  0.80684  0.93823  1.0000
  H   H2204     1.0  0.54059  0.78429  0.95086  1.0000
  C   C2748     1.0  0.57129  0.82605  0.73996  1.0000
  C   C2749     1.0  0.51706  0.77564  0.81945  1.0000
  C   C2750     1.0  0.48063  0.75944  0.85634  1.0000
  C   C2751     1.0  0.48680  0.74258  0.84816  1.0000
  C   C2752     1.0  0.48995  0.72394  0.86017  1.0000
  C   C2753     1.0  0.48621  0.72199  0.88046  1.0000
  C   C2754     1.0  0.48021  0.73867  0.88868  1.0000
  C   C2755     1.0  0.47814  0.75737  0.87666  1.0000
  C   C2756     1.0  0.43345  0.81460  0.87497  1.0000
  C   C2757     1.0  0.44663  0.79914  0.86717  1.0000
  H   H2205     1.0  0.54727  0.76801  0.80477  1.0000
  H   H2206     1.0  0.51225  0.76619  0.81295  1.0000
  H   H2207     1.0  0.48964  0.74383  0.83247  1.0000
  H   H2208     1.0  0.49525  0.71101  0.85375  1.0000
  H   H2209     1.0  0.48810  0.70760  0.88989  1.0000
  H   H2210     1.0  0.47725  0.73701  0.90442  1.0000
  H   H2211     1.0  0.47478  0.77006  0.88331  1.0000
  H   H2212     1.0  0.42203  0.81154  0.88765  1.0000
  H   H2213     1.0  0.44458  0.78435  0.87348  1.0000
  C   C2758     1.0  0.56253  0.82010  0.77527  1.0000
  P   P93       1.0  0.56334  0.94863  0.77526  1.0000
  C   C2759     1.0  0.54083  0.94820  0.76870  1.0000
  H   H2214     1.0  0.54469  0.78427  0.74875  1.0000
  H   H2215     1.0  0.60461  0.76668  0.97157  1.0000
  C   C2760     1.0  0.52157  0.93100  0.75834  1.0000
  C   C2761     1.0  0.53900  0.93151  0.76315  1.0000
  C   C2762     1.0  0.56257  0.93617  0.80055  1.0000
  C   C2763     1.0  0.57010  0.94297  0.81313  1.0000
  C   C2764     1.0  0.56956  0.93306  0.83259  1.0000
  C   C2765     1.0  0.56185  0.91610  0.83954  1.0000
  C   C2766     1.0  0.55480  0.90896  0.82700  1.0000
  C   C2767     1.0  0.55526  0.91890  0.80758  1.0000
  C   C2768     1.0  0.55456  0.66343  0.79075  1.0000
  C   C2769     1.0  0.58372  0.93503  0.76032  1.0000
  H   H2216     1.0  0.52017  0.91793  0.75450  1.0000
  H   H2217     1.0  0.55086  0.91867  0.76285  1.0000
  H   H2218     1.0  0.62809  0.71897  0.75111  1.0000
  H   H2219     1.0  0.57636  0.95592  0.80807  1.0000
  H   H2220     1.0  0.57491  0.93870  0.84233  1.0000
  H   H2221     1.0  0.56123  0.90854  0.85466  1.0000
  C   C2770     1.0  0.35676  0.57532  0.87294  1.0000
  H   H2222     1.0  0.35946  0.63724  0.91620  1.0000
  C   C2771     1.0  0.44130  0.83923  0.75476  1.0000
  C   C2772     1.0  0.36069  0.52638  0.76380  1.0000
  C   C2773     1.0  0.54163  0.63385  0.80393  1.0000
  C   C2774     1.0  0.55787  0.70197  0.80501  1.0000
  H   H2223     1.0  0.55431  0.68845  0.81423  1.0000
  C   C2775     1.0  0.34673  0.52594  0.94656  1.0000
  C   C2776     1.0  0.34944  0.78516  0.91990  1.0000
  H   H2224     1.0  0.62484  0.71443  0.92901  1.0000
  H   H2225     1.0  0.43455  0.71933  0.84136  1.0000
  H   H2226     1.0  0.60488  0.59546  0.89022  1.0000
  C   C2777     1.0  0.42408  0.68504  0.76101  1.0000
  S   S380      1.0  0.58047  0.78770  0.75989  1.0000
  H   H2227     1.0  0.61169  0.77661  0.91682  1.0000
  H   H2228     1.0  0.40450  0.57222  0.84955  1.0000
  H   H2229     1.0  0.54767  0.84533  0.78793  1.0000
  C   C2778     1.0  0.61658  0.58382  0.88527  1.0000
  C   C2779     1.0  0.53693  0.77646  0.81490  1.0000
  H   H2230     1.0  0.42482  0.84600  0.87236  1.0000
  H   H2231     1.0  0.50055  0.80635  0.85184  1.0000
  C   C2780     1.0  0.34950  0.61233  0.91408  1.0000
  H   H2232     1.0  0.50567  0.73816  0.76905  1.0000
  C   C2781     1.0  0.49468  0.98437  0.81519  1.0000
  C   C2782     1.0  0.39365  0.57336  0.88006  1.0000
  P   P94       1.0  0.47868  0.78328  0.84039  1.0000
  C   C2783     1.0  0.46210  0.80291  0.85133  1.0000
  C   C2784     1.0  0.43501  0.83398  0.86640  1.0000
  H   H2233     1.0  0.44582  0.76842  0.83783  1.0000
  H   H2234     1.0  0.39515  0.69848  0.79415  1.0000
  H   H2235     1.0  0.63206  0.78249  0.88332  1.0000
  P   P95       1.0  0.45591  0.98767  0.88597  1.0000
  C   C2785     1.0  0.33949  0.59722  0.92398  1.0000
  C   C2786     1.0  0.61688  0.60880  0.79199  1.0000
  C   C2787     1.0  0.52488  0.96431  0.76932  1.0000
  H   H2236     1.0  0.47134  0.75266  0.78172  1.0000
  H   H2237     1.0  0.60044  0.92226  0.78327  1.0000
  C   C2788     1.0  0.35820  0.51252  0.75469  1.0000
  C   C2789     1.0  0.55225  0.70817  0.74417  1.0000
  C   C2790     1.0  0.54353  0.78816  0.82348  1.0000
  C   C2791     1.0  0.51043  0.79826  0.84120  1.0000
  H   H2238     1.0  0.56009  0.77095  0.87355  1.0000
  H   H2239     1.0  0.34268  0.57665  0.86949  1.0000
  C   C2792     1.0  0.53028  0.79921  0.83645  1.0000
  C   C2793     1.0  0.46830  0.78384  0.82001  1.0000
  C   C2794     1.0  0.45165  0.77589  0.82334  1.0000
  C   C2795     1.0  0.46324  0.82244  0.84251  1.0000
  C   C2796     1.0  0.44971  0.83788  0.85000  1.0000
  H   H2240     1.0  0.53540  0.80842  0.84297  1.0000
  H   H2241     1.0  0.57034  0.57139  0.85174  1.0000
  C   C2797     1.0  0.45000  0.85095  0.73786  1.0000
  C   C2798     1.0  0.51792  0.70774  0.74819  1.0000
  C   C2799     1.0  0.54872  0.71157  0.78911  1.0000
  H   H2242     1.0  0.33533  0.78118  0.81842  1.0000
  C   C2800     1.0  0.46874  0.73056  0.80816  1.0000
  H   H2243     1.0  0.38104  0.74992  0.89713  1.0000
  H   H2244     1.0  0.35535  0.69097  0.76213  1.0000
  H   H2245     1.0  0.45062  0.85289  0.84295  1.0000
  C   C2801     1.0  0.39400  0.80061  0.82247  1.0000
  C   C2802     1.0  0.37707  0.57491  0.89517  1.0000
  H   H2246     1.0  0.36019  0.52293  0.77944  1.0000
  H   H2247     1.0  0.47436  0.82582  0.82960  1.0000
  H   H2248     1.0  0.48738  0.80124  0.79856  1.0000
  C   C2803     1.0  0.51960  0.66520  0.79624  1.0000
  C   C2804     1.0  0.53547  0.67473  0.79069  1.0000
  H   H2249     1.0  0.49199  0.94629  0.75616  1.0000
  C   C2805     1.0  0.36051  0.68863  0.77554  1.0000
  S   S381      1.0  0.34090  0.56875  0.79365  1.0000
  H   H2250     1.0  0.52549  0.97716  0.77404  1.0000
  H   H2251     1.0  0.50506  0.69197  0.82077  1.0000
  H   H2252     1.0  0.52585  0.76754  0.87879  1.0000
  P   P96       1.0  0.53159  0.70110  0.78274  1.0000
  C   C2806     1.0  0.55684  0.54625  0.86045  1.0000
  C   C2807     1.0  0.41489  0.70417  0.75315  1.0000
  C   C2808     1.0  0.43002  0.73033  0.85031  1.0000
  C   C2809     1.0  0.37192  0.76423  0.89878  1.0000
  C   C2810     1.0  0.43415  0.74371  0.87612  1.0000
  C   C2811     1.0  0.63038  0.57354  0.89687  1.0000
  H   H2253     1.0  0.37875  0.57582  0.90938  1.0000
  H   H2254     1.0  0.57231  0.63459  0.79805  1.0000
  H   H2255     1.0  0.60418  0.80012  0.78236  1.0000
  H   H2256     1.0  0.42913  0.77211  0.81067  1.0000
  H   H2257     1.0  0.47107  0.80413  0.77146  1.0000
  C   C2812     1.0  0.60945  0.67441  0.78652  1.0000
  H   H2258     1.0  0.62570  0.49479  0.81961  1.0000
  C   C2813     1.0  0.60892  0.70772  0.87082  1.0000
  C   C2814     1.0  0.49818  0.73107  0.78303  1.0000
  H   H2259     1.0  0.49500  0.97591  0.76557  1.0000
  H   H2260     1.0  0.50393  0.70546  0.75738  1.0000
  H   H2261     1.0  0.57983  0.74455  0.89815  1.0000
  H   H2262     1.0  0.50480  0.67341  0.79555  1.0000
  C   C2815     1.0  0.33332  0.55772  0.92799  1.0000
  H   H2263     1.0  0.37932  0.60429  0.76701  1.0000
  C   C2816     1.0  0.62784  0.50675  0.87824  1.0000
  H   H2264     1.0  0.47062  0.70654  0.83306  1.0000
  C   C2817     1.0  0.49781  0.70512  0.81201  1.0000
  C   C2818     1.0  0.42643  0.71809  0.74359  1.0000
  H   H2265     1.0  0.40910  0.84403  0.80920  1.0000
  C   C2819     1.0  0.59193  0.54429  0.85312  1.0000
  C   C2820     1.0  0.53417  0.70577  0.75650  1.0000
  H   H2266     1.0  0.37542  0.73696  0.86539  1.0000
  S   S382      1.0  0.33988  0.51865  0.83263  1.0000
  S   S383      1.0  0.52209  0.98735  0.83440  1.0000
  H   H2267     1.0  0.60502  0.73853  0.94881  1.0000
  C   C2821     1.0  0.62505  0.59344  0.80574  1.0000
  C   C2822     1.0  0.60359  0.79014  0.79649  1.0000
  H   H2268     1.0  0.57981  0.72033  0.84656  1.0000
  H   H2269     1.0  0.63695  0.73386  0.83306  1.0000
  C   C2823     1.0  0.50579  0.94704  0.75907  1.0000
  C   C2824     1.0  0.55506  0.98530  0.78523  1.0000
  C   C2825     1.0  0.57926  0.51451  0.86291  1.0000
  C   C2826     1.0  0.50745  0.71322  0.79336  1.0000
  H   H2270     1.0  0.44129  0.79033  0.77781  1.0000
  C   C2827     1.0  0.60909  0.77106  0.90532  1.0000
  C   C2828     1.0  0.62714  0.62352  0.78167  1.0000
  C   C2829     1.0  0.47833  0.71352  0.81916  1.0000
  H   H2271     1.0  0.59181  0.79056  0.84504  1.0000
  C   C2830     1.0  0.35108  0.67776  0.79266  1.0000
  C   C2831     1.0  0.36585  0.77656  0.75332  1.0000
  C   C2832     1.0  0.60756  0.76992  0.79747  1.0000
  H   H2272     1.0  0.61666  0.67651  0.88156  1.0000
  H   H2273     1.0  0.62925  0.57718  0.91082  1.0000
  C   C2833     1.0  0.42065  0.97830  0.90780  1.0000
  C   C2834     1.0  0.61793  0.57906  0.86732  1.0000
  C   C2835     1.0  0.63222  0.72149  0.84359  1.0000
  C   C2836     1.0  0.50186  0.62482  0.97599  1.0000
  H   H2274     1.0  0.63386  0.70947  0.78486  1.0000
  H   H2275     1.0  0.39183  0.78969  0.81579  1.0000
  H   H2276     1.0  0.40271  0.81910  0.79458  1.0000
  C   C2837     1.0  0.48896  0.82634  0.98441  1.0000
  H   H2277     1.0  0.59431  0.81322  0.81284  1.0000
  C   C2838     1.0  0.59810  0.79749  0.81367  1.0000
  C   C2839     1.0  0.64335  0.59292  0.80937  1.0000
  H   H2278     1.0  0.62088  0.63543  0.77095  1.0000
  C   C2840     1.0  0.60804  0.72323  0.95582  1.0000
  C   C2841     1.0  0.57257  0.74528  0.86051  1.0000
  H   H2279     1.0  0.57097  0.75069  0.77306  1.0000
  C   C2842     1.0  0.36360  0.54480  0.75283  1.0000
  C   C2843     1.0  0.62314  0.68959  0.95296  1.0000
  C   C2844     1.0  0.59437  0.76042  0.90937  1.0000
  C   C2845     1.0  0.61704  0.76733  0.87157  1.0000
  C   C2846     1.0  0.62051  0.77441  0.88645  1.0000
  H   H2280     1.0  0.51863  0.74055  0.86822  1.0000
  C   C2847     1.0  0.60628  0.75699  0.81563  1.0000
  H   H2281     1.0  0.58547  0.75774  0.92396  1.0000
  C   C2848     1.0  0.35428  0.52074  0.88898  1.0000
  C   C2849     1.0  0.56820  0.73050  0.85393  1.0000
  H   H2282     1.0  0.35571  0.49835  0.76330  1.0000
  C   C2850     1.0  0.53359  0.74197  0.86594  1.0000
  H   H2283     1.0  0.54542  0.71713  0.85197  1.0000
  C   C2851     1.0  0.60144  0.76419  0.83296  1.0000
  C   C2852     1.0  0.54876  0.72875  0.85680  1.0000
  C   C2853     1.0  0.40171  0.82834  0.83880  1.0000
  C   C2854     1.0  0.57277  0.55549  0.85476  1.0000
  H   H2284     1.0  0.35592  0.80975  0.87255  1.0000
  C   C2855     1.0  0.36519  0.76304  0.77109  1.0000
  H   H2285     1.0  0.60879  0.74140  0.81611  1.0000
  C   C2856     1.0  0.60197  0.75701  0.87547  1.0000
  H   H2286     1.0  0.50012  0.84971  0.74193  1.0000
  H   H2287     1.0  0.60788  0.53322  0.88599  1.0000
  H   H2288     1.0  0.63153  0.67898  0.94404  1.0000
  H   H2289     1.0  0.46426  0.59627  0.91982  1.0000
  C   C2857     1.0  0.62607  0.70121  0.78005  1.0000
  H   H2290     1.0  0.44535  0.65368  0.93346  1.0000
  H   H2291     1.0  0.63431  0.56034  0.84705  1.0000
  C   C2858     1.0  0.35605  0.77914  0.83613  1.0000
  H   H2292     1.0  0.59852  0.67158  0.76235  1.0000
  C   C2859     1.0  0.58368  0.93638  0.74056  1.0000
  H   H2293     1.0  0.36783  0.52537  0.88122  1.0000
  C   C2860     1.0  0.56606  0.97365  0.77166  1.0000
  C   C2861     1.0  0.66042  0.60530  0.84320  1.0000
  C   C2862     1.0  0.44682  0.71307  0.74195  1.0000
  H   H2294     1.0  0.50093  0.82883  0.77436  1.0000
  H   H2295     1.0  0.49528  0.63996  0.97045  1.0000
  C   C2863     1.0  0.45579  0.69414  0.75014  1.0000
  C   C2864     1.0  0.42814  0.97920  0.94368  1.0000
  C   C2865     1.0  0.53498  0.79858  0.74712  1.0000
  H   H2296     1.0  0.58782  0.97312  0.74469  1.0000
  C   C2866     1.0  0.37336  0.57365  0.85791  1.0000
  C   C2867     1.0  0.48178  0.81968  0.97157  1.0000
  H   H2297     1.0  0.34768  0.62827  0.76859  1.0000
  C   C2868     1.0  0.47878  0.73950  0.79028  1.0000
  C   C2869     1.0  0.59049  0.77047  0.96733  1.0000
  C   C2870     1.0  0.65065  0.49054  0.90004  1.0000
  H   H2298     1.0  0.48457  0.82585  0.95601  1.0000
  H   H2299     1.0  0.56518  0.70612  0.75015  1.0000
  H   H2300     1.0  0.33896  0.67162  0.79237  1.0000
  H   H2301     1.0  0.54477  0.97948  0.79775  1.0000
  H   H2302     1.0  0.64747  0.60497  0.87363  1.0000
  C   C2871     1.0  0.44442  0.68016  0.75971  1.0000
  H   H2303     1.0  0.41771  0.97763  0.89400  1.0000
  H   H2304     1.0  0.62085  0.53136  0.91484  1.0000
  C   C2872     1.0  0.61515  0.91364  0.73708  1.0000
  C   C2873     1.0  0.37330  0.77002  0.73574  1.0000
  H   H2305     1.0  0.33560  0.63097  0.86974  1.0000
  C   C2874     1.0  0.36952  0.60473  0.75766  1.0000
  C   C2875     1.0  0.64549  0.62300  0.78523  1.0000
  C   C2876     1.0  0.34421  0.77155  0.82857  1.0000
  C   C2877     1.0  0.35164  0.61830  0.75856  1.0000
  C   C2878     1.0  0.34377  0.62401  0.94406  1.0000
  H   H2306     1.0  0.39979  0.97193  0.95631  1.0000
  C   C2879     1.0  0.40681  0.97441  0.92503  1.0000
  H   H2307     1.0  0.63854  0.55115  0.79057  1.0000
  C   C2880     1.0  0.56283  0.84608  0.73920  1.0000
  C   C2881     1.0  0.61553  0.68323  0.97278  1.0000
  C   C2882     1.0  0.61553  0.91261  0.75658  1.0000
  H   H2308     1.0  0.33127  0.61533  0.84454  1.0000
  H   H2309     1.0  0.49909  0.97778  0.87327  1.0000
  H   H2310     1.0  0.34146  0.78727  0.93437  1.0000
  H   H2311     1.0  0.34549  0.63437  0.95174  1.0000
  H   H2312     1.0  0.59571  0.79802  0.94878  1.0000
  C   C2883     1.0  0.35168  0.62562  0.92408  1.0000
  C   C2884     1.0  0.51024  0.83568  0.74311  1.0000
  H   H2313     1.0  0.35010  0.66611  0.82343  1.0000
  C   C2885     1.0  0.33141  0.59578  0.94406  1.0000
  H   H2314     1.0  0.47254  0.98129  0.80155  1.0000
  H   H2315     1.0  0.33604  0.49057  0.93030  1.0000
  H   H2316     1.0  0.65785  0.70073  0.83297  1.0000
  H   H2317     1.0  0.45558  0.72407  0.73488  1.0000
  H   H2318     1.0  0.43113  0.97940  0.95760  1.0000
  H   H2319     1.0  0.45576  0.98587  0.92742  1.0000
  C   C2886     1.0  0.44203  0.98306  0.92647  1.0000
  C   C2887     1.0  0.43818  0.98303  0.90836  1.0000
  C   C2888     1.0  0.38043  0.74999  0.73593  1.0000
  H   H2320     1.0  0.65742  0.64652  0.80662  1.0000
  H   H2321     1.0  0.77944  0.36775  0.99389  1.0000
  H   H2322     1.0  0.84425  0.38184  0.15958  1.0000
  H   H2323     1.0  0.77800  0.38504  0.23277  1.0000
  H   H2324     1.0  0.66428  0.12351  0.22819  1.0000
  H   H2325     1.0  0.83483  0.37552  0.07793  1.0000
  C   C2889     1.0  0.77610  0.37181  0.04078  1.0000
  H   H2326     1.0  0.76876  0.44368  0.99026  1.0000
  H   H2327     1.0  0.76742  0.47434  0.10384  1.0000
  C   C2890     1.0  0.79496  0.45469  0.98588  1.0000
  C   C2891     1.0  0.72802  0.23862  0.22541  1.0000
  C   C2892     1.0  0.93617  0.44806  0.13467  1.0000
  H   H2328     1.0  0.89192  0.48536  0.16380  1.0000
  H   H2329     1.0  0.67613  0.08741  0.23199  1.0000
  H   H2330     1.0  0.82169  0.43176  0.03755  1.0000
  H   H2331     1.0  0.74322  0.23812  0.21811  1.0000
  Fe  Fe192     1.0  0.73127  0.33795  0.21733  1.0000
  S   S384      1.0  0.76286  0.34030  0.20643  1.0000
  C   C2893     1.0  0.75915  0.16016  0.19047  1.0000
  H   H2332     1.0  0.69836  0.32977  0.15941  1.0000
  S   S385      1.0  0.74867  0.38552  0.21504  1.0000
  H   H2333     1.0  0.88295  0.32795  0.06573  1.0000
  Fe  Fe193     1.0  0.75065  0.37059  0.19063  1.0000
  S   S386      1.0  0.75866  0.38537  0.15905  1.0000
  H   H2334     1.0  0.66213  0.34413  0.16862  1.0000
  S   S387      1.0  0.71944  0.36702  0.19966  1.0000
  H   H2335     1.0  0.97114  0.39233  0.14885  1.0000
  C   C2894     1.0  0.78415  0.43994  0.99106  1.0000
  Fe  Fe194     1.0  0.87810  0.41822  0.05925  1.0000
  S   S388      1.0  0.89039  0.39316  0.08163  1.0000
  S   S389      1.0  0.88550  0.42204  0.02631  1.0000
  Fe  Fe195     1.0  0.85489  0.44222  0.08938  1.0000
  S   S390      1.0  0.86467  0.41955  0.11440  1.0000
  C   C2895     1.0  0.82854  0.47302  0.00494  1.0000
  Fe  Fe196     1.0  0.89455  0.41626  0.09517  1.0000
  S   S391      1.0  0.91991  0.41168  0.11012  1.0000
  Fe  Fe197     1.0  0.85969  0.39817  0.09940  1.0000
  S   S392      1.0  0.84815  0.37170  0.11776  1.0000
  S   S393      1.0  0.88520  0.44088  0.07118  1.0000
  S   S394      1.0  0.84688  0.42135  0.07592  1.0000
  C   C2896     1.0  0.86372  0.38354  0.99835  1.0000
  C   C2897     1.0  0.86194  0.37979  0.01871  1.0000
  C   C2898     1.0  0.86836  0.39163  0.02748  1.0000
  C   C2899     1.0  0.87720  0.40694  0.01584  1.0000
  H   H2336     1.0  0.68390  0.14366  0.23444  1.0000
  H   H2337     1.0  0.85553  0.36771  0.02773  1.0000
  H   H2338     1.0  0.86674  0.38877  0.04320  1.0000
  C   C2900     1.0  0.78373  0.38211  0.14832  1.0000
  C   C2901     1.0  0.79759  0.36745  0.15721  1.0000
  C   C2902     1.0  0.81740  0.36437  0.14773  1.0000
  C   C2903     1.0  0.82349  0.37644  0.12975  1.0000
  C   C2904     1.0  0.80973  0.39149  0.12115  1.0000
  C   C2905     1.0  0.78980  0.39399  0.13021  1.0000
  H   H2339     1.0  0.79297  0.35818  0.17112  1.0000
  H   H2340     1.0  0.82804  0.35265  0.15434  1.0000
  H   H2341     1.0  0.81436  0.40078  0.10725  1.0000
  H   H2342     1.0  0.77907  0.40534  0.12336  1.0000
  H   H2343     1.0  0.95302  0.35061  0.22438  1.0000
  H   H2344     1.0  0.70106  0.28039  0.22093  1.0000
  C   C2906     1.0  0.88139  0.33066  0.21194  1.0000
  S   S395      1.0  0.69979  0.48781  0.23022  1.0000
  C   C2907     1.0  0.88665  0.36377  0.20512  1.0000
  C   C2908     1.0  0.88653  0.48280  0.15216  1.0000
  C   C2909     1.0  0.89754  0.39787  0.22089  1.0000
  Fe  Fe198     1.0  0.75812  0.35492  0.23189  1.0000
  C   C2910     1.0  0.74308  0.16082  0.22420  1.0000
  H   H2345     1.0  0.82987  0.48216  0.20550  1.0000
  H   H2346     1.0  0.87948  0.44553  0.13554  1.0000
  C   C2911     1.0  0.93173  0.43155  0.13120  1.0000
  C   C2912     1.0  0.92741  0.46693  0.10408  1.0000
  C   C2913     1.0  0.92237  0.45059  0.10091  1.0000
  C   C2914     1.0  0.92469  0.43280  0.11440  1.0000
  C   C2915     1.0  0.69802  0.46368  0.23134  1.0000
  C   C2916     1.0  0.86785  0.33536  0.06534  1.0000
  H   H2347     1.0  0.91731  0.45154  0.08775  1.0000
  H   H2348     1.0  0.86901  0.47304  0.10966  1.0000
  C   C2917     1.0  0.81505  0.44987  0.98638  1.0000
  H   H2349     1.0  0.81958  0.42382  0.22249  1.0000
  C   C2918     1.0  0.70630  0.12235  0.17578  1.0000
  C   C2919     1.0  0.77924  0.47500  0.11019  1.0000
  H   H2350     1.0  0.99203  0.43791  0.21522  1.0000
  C   C2920     1.0  0.77502  0.48038  0.12838  1.0000
  C   C2921     1.0  0.70907  0.30750  0.20413  1.0000
  C   C2922     1.0  0.70842  0.32135  0.18664  1.0000
  C   C2923     1.0  0.69868  0.31922  0.17297  1.0000
  C   C2924     1.0  0.68902  0.30366  0.17698  1.0000
  C   C2925     1.0  0.68968  0.28983  0.19445  1.0000
  C   C2926     1.0  0.70012  0.29147  0.20773  1.0000
  H   H2351     1.0  0.71560  0.33354  0.18353  1.0000
  S   S396      1.0  0.72052  0.30997  0.22196  1.0000
  H   H2352     1.0  0.89104  0.45148  0.16270  1.0000
  H   H2353     1.0  0.66746  0.17123  0.13588  1.0000
  H   H2354     1.0  0.74014  0.35999  0.14005  1.0000
  H   H2355     1.0  0.92645  0.48036  0.09318  1.0000
  C   C2927     1.0  0.81270  0.48614  0.01372  1.0000
  Fe  Fe199     1.0  0.95444  0.45877  0.19321  1.0000
  C   C2928     1.0  0.84259  0.46521  0.03395  1.0000
  H   H2356     1.0  0.94141  0.44701  0.14776  1.0000
  C   C2929     1.0  0.86000  0.35258  0.07261  1.0000
  S   S397      1.0  0.95214  0.42962  0.21333  1.0000
  H   H2357     1.0  0.94464  0.37661  0.14816  1.0000
  C   C2930     1.0  0.71593  0.44762  0.14996  1.0000
  S   S398      1.0  0.96540  0.48148  0.20132  1.0000
  C   C2931     1.0  0.87530  0.37920  0.14919  1.0000
  C   C2932     1.0  0.89182  0.38623  0.14850  1.0000
  C   C2933     1.0  0.89005  0.40132  0.15814  1.0000
  C   C2934     1.0  0.87181  0.40918  0.16874  1.0000
  C   C2935     1.0  0.85504  0.40244  0.16916  1.0000
  C   C2936     1.0  0.85694  0.38736  0.15935  1.0000
  P   P97       1.0  0.83199  0.41031  0.18487  1.0000
  C   C2937     1.0  0.81171  0.41667  0.17256  1.0000
  C   C2938     1.0  0.81442  0.42414  0.15237  1.0000
  C   C2939     1.0  0.79833  0.43042  0.14319  1.0000
  C   C2940     1.0  0.77943  0.42958  0.15412  1.0000
  C   C2941     1.0  0.77664  0.42206  0.17423  1.0000
  C   C2942     1.0  0.79272  0.41569  0.18347  1.0000
  H   H2358     1.0  0.87663  0.36776  0.14138  1.0000
  H   H2359     1.0  0.90592  0.38030  0.14009  1.0000
  H   H2360     1.0  0.90285  0.40693  0.15732  1.0000
  H   H2361     1.0  0.87102  0.42020  0.17681  1.0000
  H   H2362     1.0  0.82885  0.42534  0.14372  1.0000
  H   H2363     1.0  0.80054  0.43582  0.12754  1.0000
  H   H2364     1.0  0.76698  0.43446  0.14695  1.0000
  H   H2365     1.0  0.76201  0.42107  0.18257  1.0000
  H   H2366     1.0  0.79035  0.41008  0.19911  1.0000
  H   H2367     1.0  0.72562  0.45772  0.14728  1.0000
  C   C2943     1.0  0.71295  0.12565  0.14062  1.0000
  H   H2368     1.0  0.86891  0.35838  0.07889  1.0000
  C   C2944     1.0  0.96085  0.38818  0.16223  1.0000
  H   H2369     1.0  0.71871  0.44815  0.11949  1.0000
  C   C2945     1.0  0.89061  0.43350  0.21578  1.0000
  C   C2946     1.0  0.83064  0.46836  0.20165  1.0000
  C   C2947     1.0  0.69278  0.13008  0.14094  1.0000
  H   H2370     1.0  0.91767  0.41651  0.20324  1.0000
  H   H2371     1.0  0.73885  0.41037  0.98914  1.0000
  H   H2372     1.0  0.97342  0.39959  0.17998  1.0000
  H   H2373     1.0  0.71145  0.11924  0.18934  1.0000
  C   C2948     1.0  0.87385  0.47602  0.12140  1.0000
  C   C2949     1.0  0.87888  0.39792  0.23293  1.0000
  H   H2374     1.0  0.92043  0.36825  0.17813  1.0000
  H   H2375     1.0  0.87367  0.32035  0.21021  1.0000
  H   H2376     1.0  0.68778  0.13276  0.12736  1.0000
  C   C2950     1.0  0.66929  0.39287  0.18683  1.0000
  C   C2951     1.0  0.71178  0.45163  0.21954  1.0000
  H   H2377     1.0  0.84176  0.44737  0.16199  1.0000
  C   C2952     1.0  0.88604  0.46371  0.15155  1.0000
  C   C2953     1.0  0.90592  0.33760  0.22530  1.0000
  C   C2954     1.0  0.87688  0.35038  0.20279  1.0000
  H   H2378     1.0  0.81406  0.34607  0.21521  1.0000
  C   C2955     1.0  0.83180  0.43277  0.19179  1.0000
  C   C2956     1.0  0.82135  0.37438  0.20230  1.0000
  C   C2957     1.0  0.93408  0.46579  0.12106  1.0000
  C   C2958     1.0  0.82715  0.47876  0.04233  1.0000
  H   H2379     1.0  0.72333  0.12513  0.12685  1.0000
  H   H2380     1.0  0.86567  0.35535  0.19401  1.0000
  H   H2381     1.0  0.86247  0.44679  0.23138  1.0000
  S   S399      1.0  0.93978  0.48665  0.12491  1.0000
  H   H2382     1.0  0.69728  0.42455  0.12558  1.0000
  C   C2959     1.0  0.93322  0.37886  0.19657  1.0000
  C   C2960     1.0  0.67026  0.36573  0.21483  1.0000
  C   C2961     1.0  0.90133  0.35749  0.21626  1.0000
  C   C2962     1.0  0.82981  0.38908  0.20433  1.0000
  P   P98       1.0  0.91449  0.37479  0.21837  1.0000
  C   C2963     1.0  0.80397  0.36358  0.00749  1.0000
  H   H2383     1.0  0.72384  0.45717  0.20926  1.0000
  H   H2384     1.0  0.84563  0.39672  0.22192  1.0000
  H   H2385     1.0  0.88286  0.37902  0.19812  1.0000
  Fe  Fe200     1.0  0.94991  0.48256  0.15305  1.0000
  C   C2964     1.0  0.82497  0.43525  0.21118  1.0000
  C   C2965     1.0  0.88641  0.48891  0.05539  1.0000
  C   C2966     1.0  0.71196  0.44226  0.13433  1.0000
  C   C2967     1.0  0.94589  0.37932  0.16187  1.0000
  C   C2968     1.0  0.75451  0.16891  0.20672  1.0000
  H   H2386     1.0  0.78249  0.45625  0.21643  1.0000
  H   H2387     1.0  0.89668  0.48791  0.08109  1.0000
  H   H2388     1.0  0.82025  0.40041  0.00253  1.0000
  H   H2389     1.0  0.82416  0.39699  0.03784  1.0000
  C   C2969     1.0  0.83689  0.46627  0.18217  1.0000
  C   C2970     1.0  0.71971  0.12181  0.15802  1.0000
  H   H2390     1.0  0.75972  0.18200  0.20575  1.0000
  C   C2971     1.0  0.87259  0.39884  0.98670  1.0000
  C   C2972     1.0  0.75246  0.14326  0.19172  1.0000
  H   H2391     1.0  0.93368  0.41784  0.14158  1.0000
  H   H2392     1.0  0.85407  0.45687  0.04189  1.0000
  C   C2973     1.0  0.90326  0.41587  0.21221  1.0000
  H   H2393     1.0  0.77560  0.42883  0.08880  1.0000
  H   H2394     1.0  0.75612  0.13646  0.17912  1.0000
  C   C2974     1.0  0.74101  0.13513  0.20918  1.0000
  C   C2975     1.0  0.69461  0.23919  0.22432  1.0000
  H   H2395     1.0  0.86221  0.31422  0.05223  1.0000
  C   C2976     1.0  0.83731  0.44861  0.17722  1.0000
  H   H2396     1.0  0.89554  0.44718  0.20970  1.0000
  H   H2397     1.0  0.81484  0.37624  0.18979  1.0000
  C   C2977     1.0  0.83868  0.38584  0.22035  1.0000
  H   H2398     1.0  0.73533  0.11831  0.15775  1.0000
  C   C2978     1.0  0.78400  0.36770  0.00714  1.0000
  H   H2399     1.0  0.94949  0.39113  0.21017  1.0000
  C   C2979     1.0  0.70780  0.43959  0.16913  1.0000
  C   C2980     1.0  0.69570  0.42616  0.17278  1.0000
  C   C2981     1.0  0.69122  0.42103  0.15711  1.0000
  C   C2982     1.0  0.69974  0.42898  0.13786  1.0000
  P   P99       1.0  0.67666  0.40275  0.16112  1.0000
  C   C2983     1.0  0.69219  0.38376  0.14859  1.0000
  C   C2984     1.0  0.71221  0.37822  0.14934  1.0000
  C   C2985     1.0  0.72472  0.36405  0.13927  1.0000
  C   C2986     1.0  0.71734  0.35526  0.12834  1.0000
  C   C2987     1.0  0.69741  0.36062  0.12754  1.0000
  C   C2988     1.0  0.68483  0.37481  0.13764  1.0000
  H   H2400     1.0  0.85490  0.45106  0.00953  1.0000
  C   C2989     1.0  0.71009  0.43220  0.22128  1.0000
  H   H2401     1.0  0.76125  0.32035  0.10056  1.0000
  H   H2402     1.0  0.79759  0.44780  0.06308  1.0000
  C   C2990     1.0  0.67921  0.13083  0.15870  1.0000
  H   H2403     1.0  0.72080  0.42290  0.21226  1.0000
  H   H2404     1.0  0.77745  0.39416  0.08898  1.0000
  S   S400      1.0  0.75056  0.48691  0.14015  1.0000
  H   H2405     1.0  0.71126  0.44352  0.18117  1.0000
  H   H2406     1.0  0.69046  0.41953  0.18782  1.0000
  C   C2991     1.0  0.94853  0.38743  0.19685  1.0000
  H   H2407     1.0  0.72700  0.34410  0.12071  1.0000
  H   H2408     1.0  0.69166  0.35350  0.11934  1.0000
  H   H2409     1.0  0.66951  0.37870  0.13676  1.0000
  H   H2410     1.0  0.76795  0.16649  0.17690  1.0000
  H   H2411     1.0  0.75457  0.37543  0.02338  1.0000
  H   H2412     1.0  0.78490  0.40896  0.00137  1.0000
  S   S401      1.0  0.75282  0.48245  0.19533  1.0000
  H   H2413     1.0  0.76515  0.37543  0.05345  1.0000
  H   H2414     1.0  0.68384  0.23896  0.21631  1.0000
  C   C2992     1.0  0.96217  0.39222  0.17973  1.0000
  C   C2993     1.0  0.89589  0.32427  0.22321  1.0000
  C   C2994     1.0  0.82129  0.35702  0.21644  1.0000
  H   H2415     1.0  0.82153  0.47819  0.13270  1.0000
  C   C2995     1.0  0.79614  0.36689  0.04149  1.0000
  H   H2416     1.0  0.68241  0.27769  0.19756  1.0000
  P   P100      1.0  0.80372  0.36732  0.06343  1.0000
  C   C2996     1.0  0.79019  0.35427  0.08530  1.0000
  C   C2997     1.0  0.82893  0.35500  0.06380  1.0000
  C   C2998     1.0  0.84061  0.36235  0.07192  1.0000
  H   H2417     1.0  0.83912  0.42636  0.99417  1.0000
  H   H2418     1.0  0.88654  0.42203  0.98643  1.0000
  C   C2999     1.0  0.85615  0.32764  0.05776  1.0000
  C   C3000     1.0  0.83666  0.33725  0.05726  1.0000
  C   C3001     1.0  0.79232  0.35558  0.10370  1.0000
  C   C3002     1.0  0.78277  0.34486  0.12080  1.0000
  C   C3003     1.0  0.77143  0.33229  0.11969  1.0000
  C   C3004     1.0  0.76968  0.33044  0.10143  1.0000
  C   C3005     1.0  0.77913  0.34127  0.08427  1.0000
  C   C3006     1.0  0.80114  0.39290  0.06350  1.0000
  C   C3007     1.0  0.78722  0.40213  0.07768  1.0000
  C   C3008     1.0  0.78599  0.42188  0.07753  1.0000
  C   C3009     1.0  0.79836  0.43259  0.06305  1.0000
  C   C3010     1.0  0.81194  0.42359  0.04867  1.0000
  C   C3011     1.0  0.81334  0.40383  0.04890  1.0000
  C   C3012     1.0  0.82389  0.43027  0.99292  1.0000
  C   C3013     1.0  0.93209  0.37469  0.17894  1.0000
  H   H2419     1.0  0.71828  0.38497  0.15760  1.0000
  H   H2420     1.0  0.66361  0.06564  0.15810  1.0000
  C   C3014     1.0  0.87216  0.43332  0.22798  1.0000
  H   H2421     1.0  0.76423  0.32383  0.13299  1.0000
  H   H2422     1.0  0.92647  0.46413  0.22524  1.0000
  H   H2423     1.0  0.77815  0.33905  0.07032  1.0000
  H   H2424     1.0  0.71874  0.23730  0.19969  1.0000
  H   H2425     1.0  0.82771  0.33091  0.05162  1.0000
  H   H2426     1.0  0.80164  0.36467  0.10481  1.0000
  H   H2427     1.0  0.78438  0.34614  0.13494  1.0000
  H   H2428     1.0  0.67431  0.09689  0.15167  1.0000
  C   C3015     1.0  0.81003  0.36338  0.02449  1.0000
  H   H2429     1.0  0.82559  0.36065  0.02413  1.0000
  H   H2430     1.0  0.84103  0.47847  0.17087  1.0000
  Fe  Fe201     1.0  0.98371  0.48391  0.17093  1.0000
  H   H2431     1.0  0.68387  0.36269  0.18541  1.0000
  C   C3016     1.0  0.77005  0.37198  0.02375  1.0000
  S   S402      1.0  0.85453  0.36893  0.98808  1.0000
  C   C3017     1.0  0.79322  0.42039  0.99721  1.0000
  S   S403      1.0  0.92882  0.47998  0.18194  1.0000
  H   H2432     1.0  0.67605  0.12700  0.19006  1.0000
  C   C3018     1.0  0.84316  0.46214  0.01545  1.0000
  C   C3019     1.0  0.87956  0.46035  0.13625  1.0000
  C   C3020     1.0  0.79870  0.47120  0.09990  1.0000
  S   S404      1.0  0.83749  0.47203  0.09347  1.0000
  C   C3021     1.0  0.81310  0.41557  0.99803  1.0000
  H   H2433     1.0  0.73604  0.12200  0.20987  1.0000
  Fe  Fe202     1.0  0.71836  0.37966  0.22524  1.0000
  H   H2434     1.0  0.80187  0.46781  0.08553  1.0000
  C   C3022     1.0  0.71427  0.23814  0.21502  1.0000
  H   H2435     1.0  0.76343  0.43315  0.21380  1.0000
  S   S405      1.0  0.67607  0.30180  0.16010  1.0000
  S   S406      1.0  0.97462  0.45942  0.16378  1.0000
  C   C3023     1.0  0.67499  0.37280  0.19465  1.0000
  H   H2436     1.0  0.81904  0.45476  0.23115  1.0000
  C   C3024     1.0  0.87947  0.41039  0.99544  1.0000
  C   C3025     1.0  0.82456  0.45291  0.21612  1.0000
  C   C3026     1.0  0.77193  0.45078  0.22893  1.0000
  C   C3027     1.0  0.68614  0.12681  0.17614  1.0000
  H   H2437     1.0  0.67588  0.35048  0.22095  1.0000
  H   H2438     1.0  0.89909  0.47829  0.05004  1.0000
  H   H2439     1.0  0.81484  0.36066  0.99448  1.0000
  H   H2440     1.0  0.78710  0.48502  0.15084  1.0000
  H   H2441     1.0  0.86834  0.47568  0.20871  1.0000
  C   C3028     1.0  0.81392  0.47259  0.10790  1.0000
  H   H2442     1.0  0.70141  0.17371  0.23099  1.0000
  C   C3029     1.0  0.73609  0.14397  0.22551  1.0000
  C   C3030     1.0  0.82985  0.35410  0.23256  1.0000
  H   H2443     1.0  0.89949  0.30894  0.23020  1.0000
  C   C3031     1.0  0.76136  0.43764  0.22749  1.0000
  C   C3032     1.0  0.79029  0.48115  0.13667  1.0000
  C   C3033     1.0  0.80976  0.47718  0.12644  1.0000
  H   H2444     1.0  0.82674  0.48106  0.05670  1.0000
  C   C3034     1.0  0.67837  0.11659  0.23222  1.0000
  C   C3035     1.0  0.68501  0.09628  0.23444  1.0000
  H   H2445     1.0  0.66128  0.44039  0.13596  1.0000
  C   C3036     1.0  0.69446  0.42496  0.23457  1.0000
  C   C3037     1.0  0.83850  0.36853  0.23454  1.0000
  C   C3038     1.0  0.93234  0.43260  0.23308  1.0000
  H   H2446     1.0  0.91725  0.33231  0.23390  1.0000
  C   C3039     1.0  0.86415  0.48873  0.23360  1.0000
  C   C3040     1.0  0.95962  0.10569  0.44148  1.0000
  H   H2447     1.0  0.84167  0.14667  0.38987  1.0000
  H   H2448     1.0  0.68425  0.31717  0.26704  1.0000
  H   H2449     1.0  0.77668  0.46783  0.24687  1.0000
  S   S407      1.0  0.69390  0.11562  0.32715  1.0000
  H   H2450     1.0  0.92130  0.47764  0.29842  1.0000
  C   C3041     1.0  0.72474  0.47150  0.29157  1.0000
  H   H2451     1.0  0.83020  0.16182  0.47723  1.0000
  C   C3042     1.0  0.73413  0.06979  0.44208  1.0000
  C   C3043     1.0  0.67512  0.14095  0.35237  1.0000
  H   H2452     1.0  0.76537  0.06884  0.43132  1.0000
  H   H2453     1.0  0.66894  0.19640  0.28192  1.0000
  Fe  Fe203     1.0  0.85232  0.38146  0.31824  1.0000
  S   S408      1.0  0.82008  0.39221  0.31901  1.0000
  S   S409      1.0  0.86447  0.34972  0.32990  1.0000
  Fe  Fe204     1.0  0.86196  0.42097  0.29780  1.0000
  S   S410      1.0  0.83051  0.43511  0.29687  1.0000
  S   S411      1.0  0.88269  0.44162  0.28563  1.0000
  Fe  Fe205     1.0  0.82410  0.41852  0.32759  1.0000
  S   S412      1.0  0.80138  0.43185  0.35091  1.0000
  Fe  Fe206     1.0  0.82931  0.40784  0.28834  1.0000
  S   S413      1.0  0.81345  0.41267  0.26399  1.0000
  S   S414      1.0  0.85568  0.40641  0.32957  1.0000
  S   S415      1.0  0.86148  0.39493  0.28647  1.0000
  Fe  Fe207     1.0  0.71546  0.16213  0.40528  1.0000
  S   S416      1.0  0.74729  0.16102  0.39129  1.0000
  S   S417      1.0  0.69033  0.16403  0.39068  1.0000
  Fe  Fe208     1.0  0.72103  0.16602  0.44471  1.0000
  S   S418      1.0  0.75325  0.16490  0.43424  1.0000
  Fe  Fe209     1.0  0.74544  0.18498  0.40678  1.0000
  S   S419      1.0  0.75849  0.21178  0.39253  1.0000
  Fe  Fe210     1.0  0.75299  0.14100  0.41968  1.0000
  S   S420      1.0  0.77918  0.11582  0.41823  1.0000
  S   S421      1.0  0.71306  0.18808  0.41830  1.0000
  S   S422      1.0  0.72122  0.14001  0.43273  1.0000
  Fe  Fe211     1.0  0.82328  0.28566  0.42462  1.0000
  S   S423      1.0  0.84875  0.26256  0.41429  1.0000
  S   S424      1.0  0.80885  0.31283  0.40566  1.0000
  H   H2454     1.0  0.89906  0.46856  0.25344  1.0000
  S   S425      1.0  0.84405  0.23978  0.46041  1.0000
  Fe  Fe212     1.0  0.85940  0.26284  0.44084  1.0000
  S   S426      1.0  0.89092  0.26146  0.44044  1.0000
  Fe  Fe213     1.0  0.83105  0.24146  0.43474  1.0000
  S   S427      1.0  0.82991  0.21304  0.42795  1.0000
  S   S428      1.0  0.83561  0.28798  0.44940  1.0000
  S   S429      1.0  0.80466  0.26444  0.44325  1.0000
  C   C3044     1.0  0.68506  0.18715  0.25515  1.0000
  H   H2455     1.0  0.73060  0.48609  0.31163  1.0000
  C   C3045     1.0  0.93262  0.21176  0.44449  1.0000
  C   C3046     1.0  0.92166  0.23029  0.43773  1.0000
  H   H2456     1.0  0.94624  0.20590  0.43536  1.0000
  H   H2457     1.0  0.92698  0.23879  0.42356  1.0000
  C   C3047     1.0  0.78328  0.10268  0.44136  1.0000
  C   C3048     1.0  0.76787  0.22488  0.45828  1.0000
  C   C3049     1.0  0.76824  0.10419  0.45783  1.0000
  C   C3050     1.0  0.84166  0.33990  0.41515  1.0000
  H   H2458     1.0  0.75414  0.11377  0.45641  1.0000
  C   C3051     1.0  0.77910  0.21198  0.40135  1.0000
  C   C3052     1.0  0.78959  0.19465  0.41110  1.0000
  C   C3053     1.0  0.80530  0.19512  0.41903  1.0000
  C   C3054     1.0  0.81043  0.21296  0.41750  1.0000
  C   C3055     1.0  0.80019  0.23028  0.40753  1.0000
  C   C3056     1.0  0.78477  0.22976  0.39913  1.0000
  H   H2459     1.0  0.78576  0.18085  0.41231  1.0000
  H   H2460     1.0  0.81333  0.18169  0.42658  1.0000
  H   H2461     1.0  0.80408  0.24402  0.40648  1.0000
  H   H2462     1.0  0.77675  0.24322  0.39156  1.0000
  C   C3057     1.0  0.84863  0.33944  0.35059  1.0000
  C   C3058     1.0  0.83208  0.35130  0.35992  1.0000
  C   C3059     1.0  0.81974  0.34292  0.37661  1.0000
  C   C3060     1.0  0.82408  0.32271  0.38424  1.0000
  C   C3061     1.0  0.84061  0.31085  0.37492  1.0000
  C   C3062     1.0  0.85280  0.31918  0.35805  1.0000
  H   H2463     1.0  0.82906  0.36699  0.35464  1.0000
  H   H2464     1.0  0.80716  0.35219  0.38396  1.0000
  H   H2465     1.0  0.84404  0.29527  0.38069  1.0000
  H   H2466     1.0  0.86558  0.30995  0.35091  1.0000
  C   C3063     1.0  0.70287  0.08736  0.24027  1.0000
  C   C3064     1.0  0.79602  0.36125  0.27360  1.0000
  C   C3065     1.0  0.80401  0.37611  0.27604  1.0000
  C   C3066     1.0  0.80251  0.39409  0.26278  1.0000
  C   C3067     1.0  0.77227  0.40482  0.31587  1.0000
  C   C3068     1.0  0.71955  0.48381  0.30519  1.0000
  H   H2467     1.0  0.79777  0.34719  0.28343  1.0000
  H   H2468     1.0  0.81169  0.37350  0.28783  1.0000
  C   C3069     1.0  0.75490  0.45038  0.26262  1.0000
  C   C3070     1.0  0.76048  0.03557  0.46231  1.0000
  C   C3071     1.0  0.73886  0.01855  0.39636  1.0000
  H   H2469     1.0  0.76179  0.13174  0.25083  1.0000
  C   C3072     1.0  0.81248  0.46743  0.33455  1.0000
  C   C3073     1.0  0.79867  0.45738  0.34776  1.0000
  C   C3074     1.0  0.78233  0.46777  0.35888  1.0000
  C   C3075     1.0  0.78185  0.47112  0.29051  1.0000
  H   H2470     1.0  0.77940  0.22945  0.46199  1.0000
  H   H2471     1.0  0.82534  0.45945  0.32617  1.0000
  H   H2472     1.0  0.77167  0.46009  0.36914  1.0000
  H   H2473     1.0  0.72583  0.17333  0.29616  1.0000
  H   H2474     1.0  0.79354  0.14053  0.43841  1.0000
  H   H2475     1.0  0.66838  0.43171  0.25624  1.0000
  C   C3076     1.0  0.80131  0.33127  0.45729  1.0000
  C   C3077     1.0  0.78464  0.38260  0.24517  1.0000
  C   C3078     1.0  0.75072  0.07512  0.42866  1.0000
  C   C3079     1.0  0.78928  0.08000  0.47805  1.0000
  C   C3080     1.0  0.90089  0.43766  0.26486  1.0000
  C   C3081     1.0  0.69273  0.12916  0.34478  1.0000
  C   C3082     1.0  0.70990  0.12823  0.35115  1.0000
  C   C3083     1.0  0.70943  0.13891  0.36516  1.0000
  C   C3084     1.0  0.69175  0.15046  0.37299  1.0000
  H   H2476     1.0  0.73519  0.03321  0.38770  1.0000
  H   H2477     1.0  0.77783  0.13336  0.47132  1.0000
  H   H2478     1.0  0.72361  0.11928  0.34517  1.0000
  H   H2479     1.0  0.72275  0.13840  0.36976  1.0000
  C   C3085     1.0  0.76916  0.40818  0.33475  1.0000
  C   C3086     1.0  0.67104  0.32055  0.26116  1.0000
  H   H2480     1.0  0.81220  0.00096  0.46023  1.0000
  H   H2481     1.0  0.68205  0.19598  0.34216  1.0000
  H   H2482     1.0  0.67662  0.22877  0.32045  1.0000
  C   C3087     1.0  0.75302  0.44178  0.32388  1.0000
  C   C3088     1.0  0.76060  0.20837  0.46966  1.0000
  C   C3089     1.0  0.67465  0.15155  0.36643  1.0000
  S   S430      1.0  0.67118  0.10953  0.28689  1.0000
  C   C3090     1.0  0.77688  0.04267  0.46213  1.0000
  C   C3091     1.0  0.70226  0.24157  0.25446  1.0000
  H   H2483     1.0  0.67999  0.16442  0.30313  1.0000
  C   C3092     1.0  0.94958  0.11233  0.47420  1.0000
  H   H2484     1.0  0.73537  0.42996  0.27404  1.0000
  H   H2485     1.0  0.70230  0.07552  0.44841  1.0000
  C   C3093     1.0  0.71399  0.09870  0.24413  1.0000
  C   C3094     1.0  0.72957  0.28315  0.29238  1.0000
  C   C3095     1.0  0.96548  0.05872  0.48030  1.0000
  C   C3096     1.0  0.95384  0.46855  0.25683  1.0000
  C   C3097     1.0  0.79280  0.39724  0.24746  1.0000
  H   H2486     1.0  0.69877  0.10068  0.41829  1.0000
  H   H2487     1.0  0.73731  0.29274  0.29540  1.0000
  H   H2488     1.0  0.83792  0.19837  0.46748  1.0000
  H   H2489     1.0  0.74083  0.41918  0.24299  1.0000
  H   H2490     1.0  0.72819  0.10966  0.39486  1.0000
  C   C3098     1.0  0.78151  0.00321  0.46115  1.0000
  H   H2491     1.0  0.91395  0.31350  0.43119  1.0000
  C   C3099     1.0  0.90660  0.45394  0.25141  1.0000
  C   C3100     1.0  0.90846  0.20843  0.47469  1.0000
  C   C3101     1.0  0.75948  0.42663  0.33876  1.0000
  H   H2492     1.0  0.72835  0.29936  0.26297  1.0000
  C   C3102     1.0  0.86627  0.41559  0.23638  1.0000
  H   H2493     1.0  0.96791  0.09635  0.43129  1.0000
  H   H2494     1.0  0.91677  0.25667  0.46960  1.0000
  C   C3103     1.0  0.71015  0.46983  0.28269  1.0000
  C   C3104     1.0  0.68236  0.45643  0.24449  1.0000
  C   C3105     1.0  0.79235  0.48524  0.28951  1.0000
  H   H2495     1.0  0.76453  0.99350  0.43184  1.0000
  C   C3106     1.0  0.92668  0.41620  0.24649  1.0000
  C   C3107     1.0  0.83601  0.14449  0.40549  1.0000
  H   H2496     1.0  0.67327  0.24216  0.25045  1.0000
  S   S431      1.0  0.72745  0.35021  0.24394  1.0000
  C   C3108     1.0  0.91446  0.36842  0.25827  1.0000
  C   C3109     1.0  0.85967  0.36925  0.38934  1.0000
  C   C3110     1.0  0.83497  0.35937  0.41768  1.0000
  C   C3111     1.0  0.84444  0.37396  0.40493  1.0000
  P   P101      1.0  0.81522  0.36538  0.43781  1.0000
  C   C3112     1.0  0.79877  0.34867  0.44308  1.0000
  C   C3113     1.0  0.82515  0.36295  0.45918  1.0000
  C   C3114     1.0  0.84507  0.36277  0.45736  1.0000
  C   C3115     1.0  0.78379  0.35249  0.43255  1.0000
  C   C3116     1.0  0.77144  0.33928  0.43637  1.0000
  C   C3117     1.0  0.93309  0.47949  0.28576  1.0000
  C   C3118     1.0  0.90183  0.31085  0.44326  1.0000
  H   H2497     1.0  0.75053  0.00959  0.46249  1.0000
  C   C3119     1.0  0.80183  0.39022  0.43076  1.0000
  C   C3120     1.0  0.79490  0.40280  0.44418  1.0000
  C   C3121     1.0  0.78495  0.42212  0.43844  1.0000
  C   C3122     1.0  0.78181  0.42901  0.41931  1.0000
  C   C3123     1.0  0.78849  0.41655  0.40596  1.0000
  C   C3124     1.0  0.79846  0.39726  0.41160  1.0000
  H   H2498     1.0  0.86633  0.38068  0.37901  1.0000
  H   H2499     1.0  0.83985  0.38905  0.40674  1.0000
  H   H2500     1.0  0.85471  0.36469  0.44313  1.0000
  H   H2501     1.0  0.78186  0.36533  0.42103  1.0000
  H   H2502     1.0  0.76034  0.34200  0.42777  1.0000
  H   H2503     1.0  0.93465  0.40162  0.24472  1.0000
  H   H2504     1.0  0.79725  0.39786  0.45901  1.0000
  H   H2505     1.0  0.77978  0.43182  0.44878  1.0000
  H   H2506     1.0  0.77431  0.44404  0.41474  1.0000
  H   H2507     1.0  0.78613  0.42193  0.39111  1.0000
  H   H2508     1.0  0.80370  0.38793  0.40088  1.0000
  C   C3125     1.0  0.81421  0.27614  0.37367  1.0000
  C   C3126     1.0  0.83255  0.26354  0.37033  1.0000
  C   C3127     1.0  0.84425  0.26518  0.35154  1.0000
  C   C3128     1.0  0.83748  0.27921  0.33601  1.0000
  C   C3129     1.0  0.81892  0.29171  0.33921  1.0000
  C   C3130     1.0  0.80724  0.28989  0.35815  1.0000
  P   P102      1.0  0.80919  0.30811  0.31880  1.0000
  C   C3131     1.0  0.79777  0.29470  0.30839  1.0000
  C   C3132     1.0  0.79128  0.32861  0.32715  1.0000
  C   C3133     1.0  0.79448  0.33691  0.34137  1.0000
  C   C3134     1.0  0.78041  0.35226  0.34845  1.0000
  C   C3135     1.0  0.76309  0.35962  0.34123  1.0000
  C   C3136     1.0  0.75996  0.35177  0.32676  1.0000
  C   C3137     1.0  0.77392  0.33625  0.31981  1.0000
  C   C3138     1.0  0.79443  0.30171  0.28924  1.0000
  C   C3139     1.0  0.78555  0.29148  0.28113  1.0000
  C   C3140     1.0  0.78005  0.27404  0.29203  1.0000
  C   C3141     1.0  0.78315  0.26700  0.31116  1.0000
  C   C3142     1.0  0.79191  0.27730  0.31936  1.0000
  C   C3143     1.0  0.82919  0.31719  0.30096  1.0000
  C   C3144     1.0  0.83529  0.33352  0.30276  1.0000
  C   C3145     1.0  0.85081  0.34042  0.28902  1.0000
  C   C3146     1.0  0.86051  0.33102  0.27348  1.0000
  C   C3147     1.0  0.85474  0.31460  0.27169  1.0000
  C   C3148     1.0  0.83925  0.30762  0.28544  1.0000
  H   H2509     1.0  0.80537  0.27539  0.38832  1.0000
  H   H2510     1.0  0.83770  0.25252  0.38231  1.0000
  H   H2511     1.0  0.85854  0.25552  0.34904  1.0000
  H   H2512     1.0  0.84665  0.28013  0.32153  1.0000
  H   H2513     1.0  0.79270  0.29898  0.36105  1.0000
  H   H2514     1.0  0.80780  0.33135  0.34716  1.0000
  H   H2515     1.0  0.78301  0.35839  0.35956  1.0000
  H   H2516     1.0  0.75220  0.37155  0.34668  1.0000
  H   H2517     1.0  0.74674  0.35773  0.32084  1.0000
  H   H2518     1.0  0.77112  0.33046  0.30859  1.0000
  H   H2519     1.0  0.79863  0.31516  0.28055  1.0000
  H   H2520     1.0  0.78287  0.29724  0.26639  1.0000
  H   H2521     1.0  0.77330  0.26604  0.28567  1.0000
  H   H2522     1.0  0.77878  0.25353  0.31971  1.0000
  H   H2523     1.0  0.79405  0.27160  0.33424  1.0000
  H   H2524     1.0  0.82833  0.34095  0.31480  1.0000
  H   H2525     1.0  0.85544  0.35296  0.29068  1.0000
  H   H2526     1.0  0.87257  0.33641  0.26295  1.0000
  H   H2527     1.0  0.86233  0.30722  0.25972  1.0000
  H   H2528     1.0  0.83525  0.29466  0.28400  1.0000
  C   C3149     1.0  0.73974  0.09543  0.29551  1.0000
  C   C3150     1.0  0.75878  0.09800  0.29338  1.0000
  C   C3151     1.0  0.76667  0.11098  0.27712  1.0000
  C   C3152     1.0  0.75546  0.12155  0.26307  1.0000
  C   C3153     1.0  0.73630  0.11903  0.26510  1.0000
  C   C3154     1.0  0.72861  0.10578  0.28140  1.0000
  H   H2529     1.0  0.97426  0.48636  0.23957  1.0000
  C   C3155     1.0  0.78632  0.36449  0.25810  1.0000
  C   C3156     1.0  0.80713  0.19842  0.47807  1.0000
  H   H2530     1.0  0.94058  0.07258  0.46628  1.0000
  H   H2531     1.0  0.66183  0.14176  0.34757  1.0000
  H   H2532     1.0  0.96750  0.33711  0.25382  1.0000
  H   H2533     1.0  0.81315  0.32754  0.46512  1.0000
  H   H2534     1.0  0.73331  0.08582  0.30837  1.0000
  H   H2535     1.0  0.76728  0.09012  0.30447  1.0000
  H   H2536     1.0  0.78139  0.11306  0.27556  1.0000
  C   C3157     1.0  0.76856  0.45735  0.24633  1.0000
  H   H2537     1.0  0.77167  0.16930  0.46616  1.0000
  C   C3158     1.0  0.72448  0.28692  0.27415  1.0000
  C   C3159     1.0  0.75519  0.99612  0.42142  1.0000
  H   H2538     1.0  0.70231  0.13761  0.28873  1.0000
  H   H2539     1.0  0.93198  0.45358  0.27674  1.0000
  H   H2540     1.0  0.81858  0.06913  0.46314  1.0000
  H   H2541     1.0  0.81532  0.13617  0.46140  1.0000
  H   H2542     1.0  0.89960  0.16939  0.47247  1.0000
  C   C3160     1.0  0.82563  0.19978  0.47973  1.0000
  C   C3161     1.0  0.89057  0.16979  0.46238  1.0000
  H   H2543     1.0  0.67975  0.20093  0.24587  1.0000
  C   C3162     1.0  0.74852  0.08926  0.41159  1.0000
  P   P103      1.0  0.97842  0.07858  0.46997  1.0000
  H   H2544     1.0  0.79763  0.36077  0.47970  1.0000
  P   P104      1.0  0.72097  0.13384  0.24803  1.0000
  C   C3163     1.0  0.93622  0.13551  0.44760  1.0000
  H   H2545     1.0  0.92704  0.14942  0.44230  1.0000
  H   H2546     1.0  0.89969  0.37713  0.25998  1.0000
  H   H2547     1.0  0.91417  0.36329  0.28907  1.0000
  C   C3164     1.0  0.85726  0.33516  0.39989  1.0000
  C   C3165     1.0  0.86605  0.34986  0.38679  1.0000
  C   C3166     1.0  0.96137  0.10044  0.46120  1.0000
  H   H2548     1.0  0.86214  0.32012  0.39786  1.0000
  C   C3167     1.0  0.68507  0.16662  0.28739  1.0000
  C   C3168     1.0  0.94181  0.34934  0.27330  1.0000
  H   H2549     1.0  0.67398  0.28291  0.28843  1.0000
  C   C3169     1.0  0.89698  0.22668  0.46748  1.0000
  C   C3170     1.0  0.69740  0.17165  0.24677  1.0000
  H   H2550     1.0  0.87985  0.32881  0.42725  1.0000
  C   C3171     1.0  0.77966  0.48812  0.35669  1.0000
  C   C3172     1.0  0.88257  0.31944  0.44102  1.0000
  C   C3173     1.0  0.90545  0.29852  0.46093  1.0000
  H   H2551     1.0  0.72871  0.26406  0.32081  1.0000
  C   C3174     1.0  0.73750  0.21429  0.44838  1.0000
  H   H2552     1.0  0.87749  0.34626  0.37441  1.0000
  H   H2553     1.0  0.94815  0.34336  0.28623  1.0000
  H   H2554     1.0  0.78026  0.39069  0.31255  1.0000
  H   H2555     1.0  0.80650  0.14566  0.40292  1.0000
  C   C3175     1.0  0.93715  0.12985  0.46740  1.0000
  C   C3176     1.0  0.75629  0.43862  0.30478  1.0000
  C   C3177     1.0  0.76483  0.47651  0.28261  1.0000
  P   P105      1.0  0.73645  0.05175  0.46448  1.0000
  H   H2556     1.0  0.78707  0.45609  0.29749  1.0000
  C   C3178     1.0  0.92268  0.36057  0.27491  1.0000
  C   C3179     1.0  0.72469  0.26702  0.30668  1.0000
  H   H2557     1.0  0.92048  0.29214  0.46241  1.0000
  H   H2558     1.0  0.74640  0.45614  0.32716  1.0000
  H   H2559     1.0  0.85196  0.32232  0.45473  1.0000
  C   C3180     1.0  0.80980  0.48790  0.33235  1.0000
  C   C3181     1.0  0.71536  0.07901  0.43814  1.0000
  H   H2560     1.0  0.77495  0.39677  0.34610  1.0000
  C   C3182     1.0  0.81621  0.14397  0.41280  1.0000
  C   C3183     1.0  0.80885  0.14113  0.43294  1.0000
  H   H2561     1.0  0.67965  0.47819  0.28093  1.0000
  H   H2562     1.0  0.76135  0.09363  0.40150  1.0000
  C   C3184     1.0  0.76614  0.42001  0.30089  1.0000
  C   C3185     1.0  0.88171  0.15406  0.46444  1.0000
  C   C3186     1.0  0.71787  0.03749  0.46954  1.0000
  C   C3187     1.0  0.71325  0.09326  0.42111  1.0000
  H   H2563     1.0  0.72137  0.03589  0.43926  1.0000
  C   C3188     1.0  0.94185  0.23822  0.48058  1.0000
  C   C3189     1.0  0.69942  0.02052  0.45790  1.0000
  H   H2564     1.0  0.95822  0.45814  0.24720  1.0000
  C   C3190     1.0  0.69779  0.15129  0.27909  1.0000
  H   H2565     1.0  0.86668  0.47485  0.24387  1.0000
  C   C3191     1.0  0.79543  0.03027  0.46135  1.0000
  C   C3192     1.0  0.70422  0.15367  0.25872  1.0000
  P   P106      1.0  0.69468  0.24384  0.27986  1.0000
  C   C3193     1.0  0.70917  0.25857  0.28460  1.0000
  C   C3194     1.0  0.69827  0.21981  0.29561  1.0000
  C   C3195     1.0  0.68730  0.21679  0.31486  1.0000
  C   C3196     1.0  0.69031  0.19830  0.32721  1.0000
  C   C3197     1.0  0.70422  0.18270  0.32044  1.0000
  C   C3198     1.0  0.71516  0.18554  0.30134  1.0000
  C   C3199     1.0  0.71222  0.20401  0.28894  1.0000
  H   H2566     1.0  0.71034  0.27806  0.25610  1.0000
  S   S432      1.0  0.69167  0.40087  0.23713  1.0000
  C   C3200     1.0  0.71449  0.25478  0.30285  1.0000
  C   C3201     1.0  0.94721  0.12328  0.43469  1.0000
  H   H2567     1.0  0.71355  0.46146  0.27137  1.0000
  C   C3202     1.0  0.93907  0.46593  0.27349  1.0000
  H   H2568     1.0  0.72425  0.00567  0.38182  1.0000
  C   C3203     1.0  0.82121  0.13882  0.44586  1.0000
  C   C3204     1.0  0.72983  0.09836  0.40785  1.0000
  C   C3205     1.0  0.72210  0.24016  0.24508  1.0000
  H   H2569     1.0  0.70654  0.16841  0.33003  1.0000
  C   C3206     1.0  0.84509  0.13153  0.48028  1.0000
  H   H2570     1.0  0.72085  0.20583  0.27422  1.0000
  H   H2571     1.0  0.80536  0.19569  0.46458  1.0000
  C   C3207     1.0  0.74498  0.20352  0.46490  1.0000
  H   H2572     1.0  0.71070  0.24253  0.31423  1.0000
  H   H2573     1.0  0.69611  0.01631  0.44590  1.0000
  H   H2574     1.0  0.83463  0.32837  0.42464  1.0000
  H   H2575     1.0  0.76989  0.41726  0.28621  1.0000
  C   C3208     1.0  0.66989  0.31022  0.24771  1.0000
  C   C3209     1.0  0.66898  0.25552  0.28542  1.0000
  C   C3210     1.0  0.88976  0.29443  0.47638  1.0000
  P   P107      1.0  0.85774  0.13463  0.45502  1.0000
  C   C3211     1.0  0.87491  0.11240  0.45005  1.0000
  C   C3212     1.0  0.84108  0.13946  0.43863  1.0000
  C   C3213     1.0  0.84846  0.14205  0.41836  1.0000
  C   C3214     1.0  0.81307  0.36057  0.47792  1.0000
  H   H2576     1.0  0.73948  0.23857  0.42389  1.0000
  H   H2577     1.0  0.76480  0.31162  0.45320  1.0000
  C   C3215     1.0  0.76291  0.01565  0.46193  1.0000
  C   C3216     1.0  0.89527  0.11108  0.44619  1.0000
  C   C3217     1.0  0.90822  0.09386  0.44178  1.0000
  C   C3218     1.0  0.90095  0.07792  0.44111  1.0000
  C   C3219     1.0  0.88070  0.07921  0.44471  1.0000
  C   C3220     1.0  0.86772  0.09638  0.44916  1.0000
  C   C3221     1.0  0.87000  0.15459  0.45134  1.0000
  C   C3222     1.0  0.79778  0.01056  0.46076  1.0000
  C   C3223     1.0  0.75027  0.01506  0.41042  1.0000
  C   C3224     1.0  0.88779  0.18614  0.44726  1.0000
  C   C3225     1.0  0.87596  0.18691  0.43438  1.0000
  C   C3226     1.0  0.86693  0.17131  0.43649  1.0000
  C   C3227     1.0  0.78885  0.31816  0.46117  1.0000
  S   S433      1.0  0.77795  0.34535  0.25392  1.0000
  P   P108      1.0  0.75009  0.45893  0.28516  1.0000
  H   H2578     1.0  0.90653  0.40614  0.27282  1.0000
  H   H2579     1.0  0.67161  0.46571  0.25355  1.0000
  H   H2580     1.0  0.86387  0.14207  0.41253  1.0000
  H   H2581     1.0  0.71373  0.10387  0.28362  1.0000
  C   C3228     1.0  0.77398  0.32212  0.45065  1.0000
  H   H2582     1.0  0.94682  0.23070  0.46840  1.0000
  H   H2583     1.0  0.90123  0.12321  0.44658  1.0000
  H   H2584     1.0  0.92388  0.09282  0.43906  1.0000
  H   H2585     1.0  0.91095  0.06443  0.43814  1.0000
  H   H2586     1.0  0.87502  0.06673  0.44463  1.0000
  H   H2587     1.0  0.85205  0.09704  0.45218  1.0000
  C   C3229     1.0  0.71429  0.27473  0.27028  1.0000
  H   H2588     1.0  0.70785  0.07156  0.24224  1.0000
  H   H2589     1.0  0.89458  0.19838  0.44559  1.0000
  H   H2590     1.0  0.87331  0.19989  0.42304  1.0000
  H   H2591     1.0  0.85715  0.17279  0.42681  1.0000
  C   C3230     1.0  0.75998  0.23595  0.44207  1.0000
  C   C3231     1.0  0.74502  0.23048  0.43694  1.0000
  H   H2592     1.0  0.72586  0.21003  0.44446  1.0000
  H   H2593     1.0  0.76579  0.24853  0.43319  1.0000
  H   H2594     1.0  0.92857  0.13928  0.47744  1.0000
  C   C3232     1.0  0.71368  0.03167  0.45416  1.0000
  H   H2595     1.0  0.75786  0.42945  0.35319  1.0000
  H   H2596     1.0  0.86843  0.35881  0.47259  1.0000
  C   C3233     1.0  0.90370  0.23771  0.44904  1.0000
  H   H2597     1.0  0.88315  0.23234  0.47631  1.0000
  Fe  Fe214     1.0  0.81920  0.26478  0.46720  1.0000
  C   C3234     1.0  0.85293  0.35947  0.47406  1.0000
  C   C3235     1.0  0.74533  0.43617  0.26142  1.0000
  C   C3236     1.0  0.80156  0.09029  0.44333  1.0000
  H   H2598     1.0  0.80793  0.03593  0.46149  1.0000
  C   C3237     1.0  0.91075  0.41873  0.26228  1.0000
  C   C3238     1.0  0.80464  0.07906  0.46174  1.0000
  H   H2599     1.0  0.81326  0.08925  0.43058  1.0000
  C   C3239     1.0  0.92621  0.20089  0.46302  1.0000
  C   C3240     1.0  0.86690  0.31583  0.45649  1.0000
  H   H2600     1.0  0.73849  0.19142  0.47398  1.0000
  C   C3241     1.0  0.96261  0.48477  0.25237  1.0000
  H   H2601     1.0  0.80550  0.48106  0.29557  1.0000
  C   C3242     1.0  0.68861  0.24102  0.24388  1.0000
  H   H2602     1.0  0.73298  0.24049  0.25289  1.0000
  H   H2603     1.0  0.87421  0.38428  0.24012  1.0000
  C   C3243     1.0  0.94747  0.05969  0.47554  1.0000
  H   H2604     1.0  0.72774  0.09148  0.24871  1.0000
  S   S434      1.0  0.94004  0.17728  0.47006  1.0000
  Fe  Fe215     1.0  0.66646  0.11667  0.31658  1.0000
  C   C3244     1.0  0.87048  0.30363  0.47422  1.0000
  H   H2605     1.0  0.68202  0.29863  0.24364  1.0000
  C   C3245     1.0  0.77340  0.16066  0.48049  1.0000
  C   C3246     1.0  0.68050  0.43721  0.24599  1.0000
  H   H2606     1.0  0.85204  0.41557  0.24599  1.0000
  H   H2607     1.0  0.94624  0.12758  0.41939  1.0000
  S   S435      1.0  0.70512  0.17368  0.47402  1.0000
  C   C3247     1.0  0.67890  0.18462  0.27545  1.0000
  H   H2608     1.0  0.77522  0.05784  0.46274  1.0000
  H   H2609     1.0  0.88387  0.14153  0.47633  1.0000
  H   H2610     1.0  0.75559  0.02698  0.41254  1.0000
  C   C3248     1.0  0.92216  0.45144  0.23547  1.0000
  C   C3249     1.0  0.74844  0.42996  0.24387  1.0000
  C   C3250     1.0  0.69069  0.47955  0.28799  1.0000
  C   C3251     1.0  0.95268  0.34586  0.25504  1.0000
  C   C3252     1.0  0.73265  0.00303  0.39311  1.0000
  H   H2611     1.0  0.66094  0.16051  0.37239  1.0000
  C   C3253     1.0  0.77125  0.09282  0.47611  1.0000
  H   H2612     1.0  0.92384  0.04497  0.47960  1.0000
  H   H2613     1.0  0.79105  0.30463  0.47197  1.0000
  C   C3254     1.0  0.92484  0.25301  0.48125  1.0000
  C   C3255     1.0  0.68929  0.01503  0.47702  1.0000
  H   H2614     1.0  0.79217  0.41083  0.23689  1.0000
  H   H2615     1.0  0.82905  0.34101  0.24390  1.0000
  H   H2616     1.0  0.84454  0.36661  0.24735  1.0000
  C   C3256     1.0  0.94446  0.35365  0.23837  1.0000
  H   H2617     1.0  0.67809  0.00655  0.47989  1.0000
  C   C3257     1.0  0.70713  0.11908  0.24243  1.0000
  H   H2618     1.0  0.71394  0.09081  0.47177  1.0000
  C   C3258     1.0  0.92533  0.36519  0.23981  1.0000
  H   H2619     1.0  0.73965  0.16773  0.23670  1.0000
  C   C3259     1.0  0.93787  0.04402  0.48311  1.0000
  C   C3260     1.0  0.68946  0.12798  0.23602  1.0000
  H   H2620     1.0  0.73089  0.13542  0.48143  1.0000
  C   C3261     1.0  0.66322  0.27479  0.28870  1.0000
  C   C3262     1.0  0.73293  0.06430  0.48427  1.0000
  C   C3263     1.0  0.72070  0.08305  0.48412  1.0000
  C   C3264     1.0  0.77744  0.14020  0.48315  1.0000
  Fe  Fe216     1.0  0.80523  0.42009  0.70115  1.0000
  S   S436      1.0  0.83338  0.42227  0.67949  1.0000
  H   H2621     1.0  0.70707  0.11975  0.58129  1.0000
  C   C3265     1.0  0.89468  0.38587  0.67121  1.0000
  S   S437      1.0  0.85075  0.37541  0.65775  1.0000
  H   H2622     1.0  0.81696  0.48225  0.68884  1.0000
  H   H2623     1.0  0.71567  0.09597  0.66247  1.0000
  H   H2624     1.0  0.74319  0.42074  0.71186  1.0000
  C   C3266     1.0  0.67900  0.13443  0.66033  1.0000
  H   H2625     1.0  0.81170  0.35497  0.50904  1.0000
  C   C3267     1.0  0.82831  0.20298  0.49709  1.0000
  C   C3268     1.0  0.76254  0.24755  0.53375  1.0000
  C   C3269     1.0  0.69397  0.12661  0.59040  1.0000
  C   C3270     1.0  0.95504  0.27811  0.53500  1.0000
  H   H2626     1.0  0.89331  0.31342  0.67549  1.0000
  H   H2627     1.0  0.72400  0.09022  0.52794  1.0000
  C   C3271     1.0  0.68046  0.22762  0.59057  1.0000
  Fe  Fe217     1.0  0.77159  0.16336  0.57782  1.0000
  S   S438      1.0  0.76476  0.15203  0.61013  1.0000
  S   S439      1.0  0.79010  0.18610  0.56374  1.0000
  Fe  Fe218     1.0  0.74752  0.13787  0.56980  1.0000
  S   S440      1.0  0.73877  0.12499  0.60178  1.0000
  S   S441      1.0  0.73870  0.12460  0.54899  1.0000
  Fe  Fe219     1.0  0.73424  0.15572  0.60597  1.0000
  S   S442      1.0  0.70958  0.17397  0.62379  1.0000
  Fe  Fe220     1.0  0.77031  0.12259  0.60238  1.0000
  S   S443      1.0  0.78760  0.09609  0.61953  1.0000
  S   S444      1.0  0.74053  0.16890  0.57393  1.0000
  S   S445      1.0  0.77951  0.13359  0.57024  1.0000
  Fe  Fe221     1.0  0.83069  0.29065  0.62086  1.0000
  S   S446      1.0  0.84501  0.25866  0.62288  1.0000
  S   S447      1.0  0.82277  0.30193  0.64915  1.0000
  Fe  Fe222     1.0  0.82663  0.29506  0.57865  1.0000
  S   S448      1.0  0.84017  0.26353  0.57790  1.0000
  S   S449      1.0  0.81905  0.31381  0.55033  1.0000
  Fe  Fe223     1.0  0.82170  0.25743  0.60787  1.0000
  S   S450      1.0  0.80398  0.23383  0.61992  1.0000
  Fe  Fe224     1.0  0.86200  0.26807  0.59263  1.0000
  S   S451      1.0  0.89412  0.25837  0.58002  1.0000
  S   S452      1.0  0.80627  0.28874  0.60769  1.0000
  S   S453      1.0  0.84962  0.30022  0.59165  1.0000
  H   H2628     1.0  0.68554  0.01649  0.50724  1.0000
  H   H2629     1.0  0.75167  0.08727  0.65024  1.0000
  S   S454      1.0  0.83382  0.06035  0.52406  1.0000
  Fe  Fe225     1.0  0.94198  0.16396  0.50143  1.0000
  S   S455      1.0  0.91918  0.15145  0.52548  1.0000
  H   H2630     1.0  0.76536  0.06370  0.62831  1.0000
  S   S456      1.0  0.95533  0.13267  0.54998  1.0000
  Fe  Fe226     1.0  0.94244  0.12409  0.52898  1.0000
  S   S457      1.0  0.93545  0.09382  0.53760  1.0000
  Fe  Fe227     1.0  0.93317  0.16088  0.54508  1.0000
  S   S458      1.0  0.91369  0.16956  0.57260  1.0000
  S   S459      1.0  0.95392  0.17617  0.52065  1.0000
  S   S460      1.0  0.79104  0.06356  0.50040  1.0000
  H   H2631     1.0  0.69923  0.21715  0.65854  1.0000
  C   C3272     1.0  0.91162  0.10049  0.51098  1.0000
  C   C3273     1.0  0.92054  0.08709  0.52557  1.0000
  C   C3274     1.0  0.91782  0.06772  0.53063  1.0000
  C   C3275     1.0  0.90652  0.06166  0.52095  1.0000
  H   H2632     1.0  0.68974  0.15308  0.56887  1.0000
  C   C3276     1.0  0.90580  0.47968  0.67867  1.0000
  H   H2633     1.0  0.92466  0.05730  0.54192  1.0000
  Fe  Fe228     1.0  0.97493  0.14690  0.52401  1.0000
  C   C3277     1.0  0.89957  0.23379  0.57776  1.0000
  C   C3278     1.0  0.91527  0.22710  0.56337  1.0000
  C   C3279     1.0  0.91943  0.20753  0.56121  1.0000
  C   C3280     1.0  0.90836  0.19443  0.57402  1.0000
  C   C3281     1.0  0.89305  0.20105  0.58874  1.0000
  C   C3282     1.0  0.88833  0.22077  0.59033  1.0000
  H   H2634     1.0  0.92402  0.23711  0.55377  1.0000
  H   H2635     1.0  0.93140  0.20253  0.54992  1.0000
  H   H2636     1.0  0.88469  0.19098  0.59886  1.0000
  H   H2637     1.0  0.87623  0.22580  0.60153  1.0000
  C   C3283     1.0  0.80048  0.07702  0.60697  1.0000
  C   C3284     1.0  0.80695  0.05832  0.61774  1.0000
  C   C3285     1.0  0.73717  0.05939  0.62710  1.0000
  C   C3286     1.0  0.81955  0.04556  0.58780  1.0000
  C   C3287     1.0  0.81378  0.06443  0.57698  1.0000
  C   C3288     1.0  0.80439  0.08015  0.58654  1.0000
  H   H2638     1.0  0.80420  0.05576  0.63353  1.0000
  H   H2639     1.0  0.81606  0.06688  0.56131  1.0000
  H   H2640     1.0  0.79994  0.09455  0.57804  1.0000
  C   C3289     1.0  0.79348  0.19977  0.57930  1.0000
  C   C3290     1.0  0.79096  0.19260  0.59947  1.0000
  C   C3291     1.0  0.79385  0.20341  0.61171  1.0000
  C   C3292     1.0  0.79948  0.22146  0.60391  1.0000
  C   C3293     1.0  0.80190  0.22884  0.58373  1.0000
  C   C3294     1.0  0.79903  0.21792  0.57143  1.0000
  H   H2641     1.0  0.78733  0.17846  0.60568  1.0000
  H   H2642     1.0  0.79206  0.19755  0.62725  1.0000
  H   H2643     1.0  0.80626  0.24276  0.57757  1.0000
  H   H2644     1.0  0.80107  0.22359  0.55582  1.0000
  H   H2645     1.0  0.77185  0.99566  0.66735  1.0000
  C   C3295     1.0  0.67022  0.12536  0.62089  1.0000
  H   H2646     1.0  0.92192  0.45036  0.68781  1.0000
  H   H2647     1.0  0.83244  0.08920  0.66541  1.0000
  C   C3296     1.0  0.80840  0.27694  0.51250  1.0000
  C   C3297     1.0  0.81712  0.29311  0.50374  1.0000
  C   C3298     1.0  0.82043  0.30440  0.51538  1.0000
  C   C3299     1.0  0.81551  0.29925  0.53582  1.0000
  C   C3300     1.0  0.80752  0.28263  0.54457  1.0000
  C   C3301     1.0  0.80376  0.27165  0.53295  1.0000
  S   S461      1.0  0.80251  0.26350  0.49834  1.0000
  H   H2648     1.0  0.82701  0.31696  0.50856  1.0000
  H   H2649     1.0  0.80390  0.27843  0.56031  1.0000
  H   H2650     1.0  0.79735  0.25898  0.53985  1.0000
  C   C3302     1.0  0.74188  0.08075  0.64592  1.0000
  C   C3303     1.0  0.72163  0.08569  0.65272  1.0000
  H   H2651     1.0  0.77054  0.24353  0.51996  1.0000
  H   H2652     1.0  0.82097  0.12724  0.53551  1.0000
  C   C3304     1.0  0.89260  0.44053  0.72585  1.0000
  H   H2653     1.0  0.67016  0.19032  0.63935  1.0000
  C   C3305     1.0  0.91985  0.46575  0.68800  1.0000
  C   C3306     1.0  0.73419  0.13077  0.51131  1.0000
  C   C3307     1.0  0.72976  0.13874  0.52809  1.0000
  C   C3308     1.0  0.71773  0.15736  0.52818  1.0000
  C   C3309     1.0  0.71058  0.16816  0.51136  1.0000
  C   C3310     1.0  0.74094  0.28578  0.59417  1.0000
  H   H2654     1.0  0.74350  0.11634  0.51121  1.0000
  H   H2655     1.0  0.71394  0.16342  0.54120  1.0000
  H   H2656     1.0  0.70158  0.18273  0.51134  1.0000
  H   H2657     1.0  0.72849  0.19916  0.63492  1.0000
  P   P109      1.0  0.90719  0.34533  0.68231  1.0000
  C   C3311     1.0  0.73272  0.16403  0.66711  1.0000
  H   H2658     1.0  0.75932  0.33260  0.59218  1.0000
  C   C3312     1.0  0.82767  0.12845  0.52012  1.0000
  C   C3313     1.0  0.88878  0.33948  0.70381  1.0000
  H   H2659     1.0  0.84196  0.16230  0.53314  1.0000
  H   H2660     1.0  0.69340  0.08105  0.65244  1.0000
  H   H2661     1.0  0.94632  0.19542  0.61895  1.0000
  H   H2662     1.0  0.88620  0.30727  0.64618  1.0000
  C   C3314     1.0  0.66693  0.15451  0.59503  1.0000
  H   H2663     1.0  0.91343  0.11551  0.50718  1.0000
  C   C3315     1.0  0.84285  0.35495  0.65564  1.0000
  C   C3316     1.0  0.84689  0.34991  0.63726  1.0000
  C   C3317     1.0  0.84102  0.33357  0.63507  1.0000
  C   C3318     1.0  0.83101  0.32218  0.65129  1.0000
  C   C3319     1.0  0.82708  0.32715  0.66971  1.0000
  C   C3320     1.0  0.83296  0.34349  0.67188  1.0000
  H   H2664     1.0  0.85452  0.35875  0.62464  1.0000
  H   H2665     1.0  0.84407  0.32991  0.62082  1.0000
  H   H2666     1.0  0.81939  0.31838  0.68234  1.0000
  H   H2667     1.0  0.82967  0.34733  0.68607  1.0000
  C   C3321     1.0  0.77065  0.46369  0.69755  1.0000
  C   C3322     1.0  0.78149  0.47121  0.70641  1.0000
  H   H2668     1.0  0.97869  0.08036  0.53802  1.0000
  H   H2669     1.0  0.87126  0.02547  0.56555  1.0000
  H   H2670     1.0  0.67044  0.28885  0.56841  1.0000
  C   C3323     1.0  0.66089  0.14650  0.66655  1.0000
  C   C3324     1.0  0.76091  0.07356  0.58317  1.0000
  C   C3325     1.0  0.87176  0.03884  0.56947  1.0000
  C   C3326     1.0  0.98787  0.08395  0.48859  1.0000
  H   H2671     1.0  0.74650  0.47049  0.68280  1.0000
  C   C3327     1.0  0.87064  0.07380  0.56080  1.0000
  Fe  Fe229     1.0  0.86282  0.04841  0.50619  1.0000
  C   C3328     1.0  0.93045  0.47150  0.69849  1.0000
  C   C3329     1.0  0.79118  0.20016  0.49383  1.0000
  H   H2672     1.0  0.66339  0.18244  0.50331  1.0000
  C   C3330     1.0  0.69230  0.20927  0.58848  1.0000
  H   H2673     1.0  0.70835  0.10694  0.49945  1.0000
  C   C3331     1.0  0.74962  0.06749  0.63336  1.0000
  C   C3332     1.0  0.86987  0.05654  0.55587  1.0000
  C   C3333     1.0  0.97934  0.07876  0.50847  1.0000
  C   C3334     1.0  0.70429  0.22561  0.70446  1.0000
  H   H2674     1.0  0.83891  0.47589  0.71219  1.0000
  H   H2675     1.0  0.75615  0.08208  0.59448  1.0000
  C   C3335     1.0  0.69078  0.16278  0.63919  1.0000
  C   C3336     1.0  0.76946  0.08240  0.56445  1.0000
  C   C3337     1.0  0.94718  0.26627  0.55225  1.0000
  Fe  Fe230     1.0  0.83891  0.38935  0.68447  1.0000
  C   C3338     1.0  0.75145  0.24479  0.62424  1.0000
  H   H2676     1.0  0.69494  0.10194  0.61446  1.0000
  C   C3339     1.0  0.70911  0.07730  0.64699  1.0000
  H   H2677     1.0  0.81520  0.15933  0.51243  1.0000
  C   C3340     1.0  0.69739  0.27798  0.57918  1.0000
  C   C3341     1.0  0.84440  0.12718  0.57470  1.0000
  C   C3342     1.0  0.70775  0.03181  0.48873  1.0000
  S   S462      1.0  0.86748  0.01937  0.52688  1.0000
  C   C3343     1.0  0.74780  0.16056  0.67728  1.0000
  H   H2678     1.0  0.67270  0.16508  0.69390  1.0000
  H   H2679     1.0  0.72227  0.35316  0.68579  1.0000
  Fe  Fe231     1.0  0.82068  0.04734  0.50675  1.0000
  H   H2680     1.0  0.71950  0.22730  0.60892  1.0000
  C   C3344     1.0  0.87247  0.31534  0.53871  1.0000
  C   C3345     1.0  0.81648  0.04270  0.60819  1.0000
  H   H2681     1.0  0.76199  0.15174  0.67223  1.0000
  P   P110      1.0  0.68690  0.19743  0.69885  1.0000
  H   H2682     1.0  0.90577  0.42502  0.68089  1.0000
  C   C3346     1.0  0.68374  0.21743  0.66094  1.0000
  H   H2683     1.0  0.77128  0.09735  0.56162  1.0000
  H   H2684     1.0  0.68144  0.11882  0.66625  1.0000
  C   C3347     1.0  0.72598  0.17953  0.70059  1.0000
  H   H2685     1.0  0.77920  0.04440  0.54130  1.0000
  H   H2686     1.0  0.98765  0.04067  0.49647  1.0000
  H   H2687     1.0  0.90494  0.04655  0.52459  1.0000
  C   C3348     1.0  0.95056  0.29901  0.69904  1.0000
  H   H2688     1.0  0.83515  0.12260  0.58864  1.0000
  H   H2689     1.0  0.82119  0.02825  0.61667  1.0000
  C   C3349     1.0  0.89215  0.29602  0.51473  1.0000
  C   C3350     1.0  0.68403  0.19417  0.58734  1.0000
  S   S463      1.0  0.82985  0.02510  0.57656  1.0000
  C   C3351     1.0  0.88835  0.32365  0.53740  1.0000
  C   C3352     1.0  0.73831  0.24439  0.61301  1.0000
  C   C3353     1.0  0.69396  0.14255  0.64658  1.0000
  H   H2690     1.0  0.70792  0.20649  0.58813  1.0000
  H   H2691     1.0  0.76362  0.02865  0.57412  1.0000
  S   S464      1.0  0.81772  0.41791  0.72714  1.0000
  H   H2692     1.0  0.89715  0.47484  0.67125  1.0000
  C   C3354     1.0  0.93225  0.07796  0.58969  1.0000
  C   C3355     1.0  0.84780  0.20051  0.57898  1.0000
  C   C3356     1.0  0.85831  0.18846  0.56577  1.0000
  C   C3357     1.0  0.86572  0.16866  0.57271  1.0000
  C   C3358     1.0  0.86246  0.16087  0.59279  1.0000
  C   C3359     1.0  0.85290  0.17314  0.60614  1.0000
  C   C3360     1.0  0.84528  0.19297  0.59908  1.0000
  P   P111      1.0  0.85002  0.16332  0.63210  1.0000
  C   C3361     1.0  0.83001  0.15040  0.63986  1.0000
  C   C3362     1.0  0.87251  0.14713  0.63814  1.0000
  C   C3363     1.0  0.87238  0.13510  0.65683  1.0000
  C   C3364     1.0  0.88978  0.12299  0.66182  1.0000
  C   C3365     1.0  0.90752  0.12299  0.64829  1.0000
  C   C3366     1.0  0.90790  0.13530  0.62986  1.0000
  C   C3367     1.0  0.89055  0.14740  0.62486  1.0000
  C   C3368     1.0  0.82114  0.14593  0.65974  1.0000
  C   C3369     1.0  0.80608  0.13542  0.66571  1.0000
  C   C3370     1.0  0.79970  0.12940  0.65189  1.0000
  C   C3371     1.0  0.80824  0.13402  0.63210  1.0000
  C   C3372     1.0  0.82324  0.14452  0.62608  1.0000
  C   C3373     1.0  0.84544  0.18351  0.64429  1.0000
  C   C3374     1.0  0.82621  0.19255  0.65189  1.0000
  C   C3375     1.0  0.82281  0.20900  0.66015  1.0000
  C   C3376     1.0  0.83853  0.21670  0.66064  1.0000
  C   C3377     1.0  0.85771  0.20794  0.65288  1.0000
  C   C3378     1.0  0.86117  0.19144  0.64469  1.0000
  H   H2693     1.0  0.84179  0.21581  0.57379  1.0000
  H   H2694     1.0  0.86090  0.19444  0.55020  1.0000
  H   H2695     1.0  0.87439  0.15947  0.56253  1.0000
  H   H2696     1.0  0.86776  0.14542  0.59801  1.0000
  H   H2697     1.0  0.83766  0.20278  0.60898  1.0000
  H   H2698     1.0  0.85892  0.13509  0.66765  1.0000
  H   H2699     1.0  0.92168  0.13571  0.61944  1.0000
  H   H2700     1.0  0.89147  0.15714  0.61071  1.0000
  H   H2701     1.0  0.82574  0.15069  0.67060  1.0000
  H   H2702     1.0  0.79938  0.13190  0.68107  1.0000
  H   H2703     1.0  0.78819  0.12106  0.65638  1.0000
  H   H2704     1.0  0.80338  0.12926  0.62138  1.0000
  H   H2705     1.0  0.82937  0.14798  0.61063  1.0000
  H   H2706     1.0  0.81377  0.18752  0.65066  1.0000
  H   H2707     1.0  0.80790  0.21642  0.66522  1.0000
  H   H2708     1.0  0.83580  0.22989  0.66637  1.0000
  H   H2709     1.0  0.86983  0.21434  0.65265  1.0000
  H   H2710     1.0  0.87607  0.18529  0.63813  1.0000
  C   C3379     1.0  0.87721  0.26319  0.51083  1.0000
  P   P112      1.0  0.89428  0.27906  0.49943  1.0000
  C   C3380     1.0  0.85246  0.24650  0.50958  1.0000
  C   C3381     1.0  0.85180  0.23735  0.52922  1.0000
  C   C3382     1.0  0.86435  0.24056  0.53946  1.0000
  C   C3383     1.0  0.87686  0.25353  0.53038  1.0000
  C   C3384     1.0  0.87430  0.30162  0.52741  1.0000
  C   C3385     1.0  0.67265  0.17474  0.64523  1.0000
  H   H2711     1.0  0.87577  0.05513  0.60810  1.0000
  C   C3386     1.0  0.89781  0.07495  0.50618  1.0000
  H   H2712     1.0  0.84157  0.22782  0.53641  1.0000
  H   H2713     1.0  0.86447  0.23322  0.55450  1.0000
  H   H2714     1.0  0.88628  0.25599  0.53868  1.0000
  H   H2715     1.0  0.85866  0.31950  0.54852  1.0000
  H   H2716     1.0  0.86171  0.29550  0.52858  1.0000
  H   H2717     1.0  0.78217  0.20362  0.52389  1.0000
  C   C3387     1.0  0.90053  0.09434  0.50111  1.0000
  C   C3388     1.0  0.91966  0.39479  0.69009  1.0000
  C   C3389     1.0  0.96392  0.02625  0.50046  1.0000
  C   C3390     1.0  0.66492  0.28170  0.59992  1.0000
  H   H2718     1.0  0.78190  0.30534  0.57773  1.0000
  C   C3391     1.0  0.89204  0.32000  0.64510  1.0000
  H   H2719     1.0  0.94081  0.46062  0.70634  1.0000
  H   H2720     1.0  0.84706  0.35365  0.50562  1.0000
  C   C3392     1.0  0.67386  0.20872  0.67918  1.0000
  C   C3393     1.0  0.76710  0.32343  0.65526  1.0000
  C   C3394     1.0  0.74827  0.32583  0.65193  1.0000
  C   C3395     1.0  0.73214  0.33644  0.66308  1.0000
  C   C3396     1.0  0.73481  0.34440  0.67777  1.0000
  C   C3397     1.0  0.75360  0.34133  0.68174  1.0000
  C   C3398     1.0  0.76980  0.33136  0.66990  1.0000
  P   P113      1.0  0.75750  0.35263  0.69968  1.0000
  C   C3399     1.0  0.75416  0.31954  0.59291  1.0000
  H   H2721     1.0  0.94315  0.06438  0.59093  1.0000
  C   C3400     1.0  0.68407  0.14555  0.58342  1.0000
  C   C3401     1.0  0.71680  0.06425  0.63416  1.0000
  C   C3402     1.0  0.74756  0.21263  0.64344  1.0000
  H   H2722     1.0  0.71301  0.30070  0.60894  1.0000
  H   H2723     1.0  0.70002  0.26446  0.62748  1.0000
  C   C3403     1.0  0.84252  0.08871  0.61686  1.0000
  H   H2724     1.0  0.78272  0.07890  0.53497  1.0000
  H   H2725     1.0  0.95253  0.23713  0.52412  1.0000
  H   H2726     1.0  0.92102  0.11368  0.65215  1.0000
  H   H2727     1.0  0.88686  0.33417  0.54633  1.0000
  C   C3404     1.0  0.76506  0.37498  0.68579  1.0000
  C   C3405     1.0  0.75158  0.39305  0.68416  1.0000
  C   C3406     1.0  0.75785  0.41020  0.67337  1.0000
  C   C3407     1.0  0.77743  0.40933  0.66375  1.0000
  C   C3408     1.0  0.79068  0.39126  0.66455  1.0000
  C   C3409     1.0  0.78449  0.37416  0.67551  1.0000
  H   H2728     1.0  0.77976  0.31561  0.64636  1.0000
  H   H2729     1.0  0.74629  0.31972  0.64050  1.0000
  H   H2730     1.0  0.71759  0.33874  0.66018  1.0000
  H   H2731     1.0  0.81887  0.08159  0.64065  1.0000
  H   H2732     1.0  0.78462  0.32980  0.67181  1.0000
  H   H2733     1.0  0.70800  0.13327  0.64201  1.0000
  C   C3410     1.0  0.75502  0.47624  0.68951  1.0000
  Fe  Fe232     1.0  0.83727  0.03051  0.54349  1.0000
  C   C3411     1.0  0.72814  0.30134  0.60233  1.0000
  H   H2734     1.0  0.94633  0.29218  0.52942  1.0000
  H   H2735     1.0  0.97962  0.32824  0.66667  1.0000
  C   C3412     1.0  0.77597  0.07195  0.54939  1.0000
  H   H2736     1.0  0.88955  0.11371  0.67626  1.0000
  H   H2737     1.0  0.78788  0.02082  0.59577  1.0000
  C   C3413     1.0  0.95196  0.23261  0.49593  1.0000
  H   H2738     1.0  0.73634  0.39398  0.69133  1.0000
  H   H2739     1.0  0.74772  0.42431  0.67279  1.0000
  H   H2740     1.0  0.78241  0.42271  0.65595  1.0000
  H   H2741     1.0  0.80590  0.39056  0.65711  1.0000
  H   H2742     1.0  0.79490  0.36032  0.67609  1.0000
  C   C3414     1.0  0.68708  0.11652  0.60912  1.0000
  H   H2743     1.0  0.76085  0.27843  0.52247  1.0000
  S   S465      1.0  0.96429  0.13561  0.50331  1.0000
  C   C3415     1.0  0.86382  0.11692  0.56970  1.0000
  C   C3416     1.0  0.75583  0.22906  0.63955  1.0000
  H   H2744     1.0  0.87606  0.14371  0.52371  1.0000
  H   H2745     1.0  0.72335  0.18483  0.71399  1.0000
  C   C3417     1.0  0.70593  0.27081  0.59578  1.0000
  C   C3418     1.0  0.67061  0.22598  0.72138  1.0000
  C   C3419     1.0  0.74858  0.20713  0.51027  1.0000
  H   H2746     1.0  0.70680  0.05798  0.62992  1.0000
  C   C3420     1.0  0.77546  0.15774  0.51411  1.0000
  C   C3421     1.0  0.77985  0.13727  0.51655  1.0000
  C   C3422     1.0  0.68761  0.21734  0.70944  1.0000
  H   H2747     1.0  0.84295  0.24379  0.50156  1.0000
  H   H2748     1.0  0.76637  0.22932  0.64781  1.0000
  C   C3423     1.0  0.74334  0.22768  0.50759  1.0000
  C   C3424     1.0  0.72717  0.23674  0.52001  1.0000
  C   C3425     1.0  0.71608  0.22534  0.53519  1.0000
  C   C3426     1.0  0.72120  0.20490  0.53792  1.0000
  C   C3427     1.0  0.73748  0.19583  0.52560  1.0000
  H   H2749     1.0  0.84152  0.33333  0.71759  1.0000
  C   C3428     1.0  0.74360  0.25782  0.56993  1.0000
  C   C3429     1.0  0.72965  0.22802  0.61736  1.0000
  H   H2750     1.0  0.75595  0.16514  0.70224  1.0000
  C   C3430     1.0  0.81248  0.20465  0.51287  1.0000
  C   C3431     1.0  0.79405  0.20304  0.51131  1.0000
  H   H2751     1.0  0.98190  0.29578  0.68938  1.0000
  C   C3432     1.0  0.77190  0.16964  0.49611  1.0000
  H   H2752     1.0  0.77511  0.16425  0.52619  1.0000
  H   H2753     1.0  0.78222  0.12809  0.53050  1.0000
  H   H2754     1.0  0.68775  0.26107  0.73179  1.0000
  C   C3433     1.0  0.84824  0.11348  0.49336  1.0000
  H   H2755     1.0  0.70643  0.27955  0.56462  1.0000
  H   H2756     1.0  0.93819  0.01550  0.50185  1.0000
  H   H2757     1.0  0.72328  0.25260  0.51779  1.0000
  H   H2758     1.0  0.70349  0.23232  0.54474  1.0000
  H   H2759     1.0  0.71245  0.19603  0.54944  1.0000
  H   H2760     1.0  0.74115  0.18006  0.52787  1.0000
  C   C3434     1.0  0.87424  0.05570  0.59342  1.0000
  C   C3435     1.0  0.94940  0.17891  0.59697  1.0000
  H   H2761     1.0  0.89015  0.11519  0.54703  1.0000
  H   H2762     1.0  0.81447  0.20709  0.52638  1.0000
  C   C3436     1.0  0.90791  0.30478  0.51309  1.0000
  C   C3437     1.0  0.92806  0.25670  0.51260  1.0000
  C   C3438     1.0  0.90604  0.31847  0.52450  1.0000
  H   H2763     1.0  0.92240  0.26310  0.52548  1.0000
  C   C3439     1.0  0.76514  0.04370  0.57161  1.0000
  H   H2764     1.0  0.79341  0.46151  0.71292  1.0000
  H   H2765     1.0  0.90642  0.33960  0.72399  1.0000
  C   C3440     1.0  0.90240  0.34968  0.62581  1.0000
  C   C3441     1.0  0.71520  0.16026  0.49448  1.0000
  H   H2766     1.0  0.89187  0.33035  0.61440  1.0000
  C   C3442     1.0  0.73479  0.31812  0.60176  1.0000
  H   H2767     1.0  0.88089  0.39733  0.72754  1.0000
  C   C3443     1.0  0.94508  0.24187  0.51193  1.0000
  C   C3444     1.0  0.95834  0.24805  0.55951  1.0000
  C   C3445     1.0  0.97408  0.27175  0.52496  1.0000
  C   C3446     1.0  0.77389  0.05256  0.55299  1.0000
  H   H2768     1.0  0.91906  0.30600  0.70576  1.0000
  H   H2769     1.0  0.75167  0.23672  0.49575  1.0000
  H   H2770     1.0  0.71736  0.24745  0.70892  1.0000
  C   C3447     1.0  0.75881  0.05405  0.58694  1.0000
  P   P114      1.0  0.74772  0.04217  0.61094  1.0000
  C   C3448     1.0  0.74747  0.27242  0.55316  1.0000
  C   C3449     1.0  0.69374  0.26949  0.61446  1.0000
  C   C3450     1.0  0.96766  0.30520  0.68807  1.0000
  H   H2771     1.0  0.86806  0.05685  0.54136  1.0000
  C   C3451     1.0  0.74441  0.16821  0.69408  1.0000
  C   C3452     1.0  0.89526  0.33302  0.62716  1.0000
  C   C3453     1.0  0.66999  0.16482  0.70943  1.0000
  C   C3454     1.0  0.96638  0.32349  0.67530  1.0000
  C   C3455     1.0  0.74886  0.23807  0.56819  1.0000
  C   C3456     1.0  0.76568  0.02313  0.62234  1.0000
  H   H2772     1.0  0.86648  0.34071  0.68802  1.0000
  C   C3457     1.0  0.69892  0.01694  0.60171  1.0000
  H   H2773     1.0  0.68693  0.23915  0.59166  1.0000
  H   H2774     1.0  0.83650  0.08509  0.60625  1.0000
  Fe  Fe233     1.0  0.84653  0.41735  0.70588  1.0000
  H   H2775     1.0  0.77079  0.27515  0.57975  1.0000
  H   H2776     1.0  0.90469  0.35987  0.61195  1.0000
  S   S466      1.0  0.80966  0.38751  0.70411  1.0000
  C   C3458     1.0  0.90676  0.40988  0.68039  1.0000
  H   H2777     1.0  0.75154  0.20020  0.65483  1.0000
  C   C3459     1.0  0.83255  0.08662  0.63636  1.0000
  S   S467      1.0  0.77598  0.43880  0.69602  1.0000
  H   H2778     1.0  0.66400  0.27378  0.63098  1.0000
  C   C3460     1.0  0.97193  0.18754  0.56653  1.0000
  C   C3461     1.0  0.84162  0.48580  0.69822  1.0000
  C   C3462     1.0  0.84019  0.09093  0.65031  1.0000
  C   C3463     1.0  0.84805  0.14959  0.54325  1.0000
  H   H2779     1.0  0.82173  0.15159  0.56558  1.0000
  C   C3464     1.0  0.67490  0.17915  0.71623  1.0000
  H   H2780     1.0  0.88864  0.45608  0.71989  1.0000
  H   H2781     1.0  0.91178  0.36637  0.64103  1.0000
  C   C3465     1.0  0.76696  0.30409  0.58485  1.0000
  C   C3466     1.0  0.67369  0.22634  0.64566  1.0000
  C   C3467     1.0  0.95364  0.19308  0.60440  1.0000
  C   C3468     1.0  0.66380  0.19736  0.58817  1.0000
  C   C3469     1.0  0.96707  0.20447  0.59291  1.0000
  H   H2782     1.0  0.96482  0.22077  0.49558  1.0000
  H   H2783     1.0  0.72486  0.33016  0.60792  1.0000
  H   H2784     1.0  0.90984  0.06409  0.58858  1.0000
  P   P115      1.0  0.76799  0.19605  0.49253  1.0000
  H   H2785     1.0  0.93229  0.27107  0.55996  1.0000
  C   C3470     1.0  0.92015  0.37521  0.69030  1.0000
  C   C3471     1.0  0.72872  0.03208  0.60747  1.0000
  H   H2786     1.0  0.71797  0.05804  0.58701  1.0000
  C   C3472     1.0  0.83664  0.14356  0.56157  1.0000
  H   H2787     1.0  0.87451  0.02478  0.59899  1.0000
  C   C3473     1.0  0.86038  0.09499  0.61118  1.0000
  C   C3474     1.0  0.78554  0.34533  0.72231  1.0000
  C   C3475     1.0  0.73459  0.21206  0.63224  1.0000
  Fe  Fe234     1.0  0.85180  0.00963  0.50892  1.0000
  C   C3476     1.0  0.89584  0.32370  0.66173  1.0000
  C   C3477     1.0  0.71187  0.42482  0.72229  1.0000
  H   H2788     1.0  0.74765  0.02180  0.65148  1.0000
  C   C3478     1.0  0.71622  0.04337  0.59473  1.0000
  C   C3479     1.0  0.89924  0.09556  0.58588  1.0000
  H   H2789     1.0  0.76203  0.21780  0.54899  1.0000
  H   H2790     1.0  0.93867  0.17036  0.60561  1.0000
  C   C3480     1.0  0.88317  0.42752  0.72221  1.0000
  P   P116      1.0  0.87404  0.09558  0.58635  1.0000
  C   C3481     1.0  0.91329  0.07790  0.58819  1.0000
  C   C3482     1.0  0.79309  0.99334  0.64054  1.0000
  H   H2791     1.0  0.68159  0.23222  0.63141  1.0000
  C   C3483     1.0  0.76054  0.28710  0.58584  1.0000
  C   C3484     1.0  0.71436  0.17541  0.67355  1.0000
  C   C3485     1.0  0.93725  0.09558  0.58916  1.0000
  S   S468      1.0  0.85463  0.38466  0.70911  1.0000
  H   H2792     1.0  0.70946  0.41915  0.71078  1.0000
  H   H2793     1.0  0.66495  0.11765  0.63553  1.0000
  C   C3486     1.0  0.90463  0.11323  0.58476  1.0000
  P   P117      1.0  0.73229  0.26468  0.59332  1.0000
  C   C3487     1.0  0.82096  0.35738  0.49457  1.0000
  C   C3488     1.0  0.71134  0.00559  0.61436  1.0000
  H   H2794     1.0  0.70273  0.17751  0.66576  1.0000
  C   C3489     1.0  0.92337  0.11317  0.58685  1.0000
  C   C3490     1.0  0.98584  0.08389  0.52280  1.0000
  H   H2795     1.0  0.95201  0.09569  0.59005  1.0000
  H   H2796     1.0  0.91824  0.32513  0.52331  1.0000
  C   C3491     1.0  0.75802  0.23306  0.55012  1.0000
  C   C3492     1.0  0.71099  0.18367  0.69003  1.0000
  H   H2797     1.0  0.97879  0.18495  0.55202  1.0000
  H   H2798     1.0  0.88344  0.41710  0.66448  1.0000
  C   C3493     1.0  0.90238  0.34076  0.66066  1.0000
  C   C3494     1.0  0.78126  0.31671  0.71344  1.0000
  H   H2799     1.0  0.89441  0.12709  0.58233  1.0000
  C   C3495     1.0  0.85780  0.09747  0.64475  1.0000
  S   S469      1.0  0.86625  0.43673  0.70655  1.0000
  C   C3496     1.0  0.86781  0.09970  0.62524  1.0000
  H   H2800     1.0  0.75873  0.25696  0.62103  1.0000
  H   H2801     1.0  0.73514  0.15783  0.65427  1.0000
  C   C3497     1.0  0.87369  0.03845  0.58832  1.0000
  C   C3498     1.0  0.75704  0.26725  0.53520  1.0000
  C   C3499     1.0  0.89417  0.40542  0.67109  1.0000
  H   H2802     1.0  0.92722  0.12691  0.58618  1.0000
  H   H2803     1.0  0.74358  0.28779  0.55398  1.0000
  H   H2804     1.0  0.86959  0.08719  0.54979  1.0000
  C   C3500     1.0  0.86724  0.13918  0.53799  1.0000
  C   C3501     1.0  0.90614  0.35345  0.64244  1.0000
  C   C3502     1.0  0.87518  0.12303  0.55123  1.0000
  C   C3503     1.0  0.87296  0.07349  0.57961  1.0000
  H   H2805     1.0  0.86383  0.10048  0.65565  1.0000
  H   H2806     1.0  0.78158  0.36093  0.72222  1.0000
  H   H2807     1.0  0.88149  0.10463  0.62138  1.0000
  H   H2808     1.0  0.74650  0.22632  0.58065  1.0000
  C   C3504     1.0  0.89253  0.33765  0.72244  1.0000
  H   H2809     1.0  0.95153  0.28476  0.70881  1.0000
  H   H2810     1.0  0.69349  0.17999  0.58601  1.0000
  H   H2811     1.0  0.88428  0.38270  0.66461  1.0000
  C   C3505     1.0  0.67695  0.28330  0.58128  1.0000
  H   H2812     1.0  0.92964  0.36374  0.69860  1.0000
  H   H2813     1.0  0.68742  0.01108  0.59951  1.0000
  H   H2814     1.0  0.74570  0.05724  0.52836  1.0000
  C   C3506     1.0  0.91797  0.26256  0.49711  1.0000
  C   C3507     1.0  0.87023  0.33802  0.70219  1.0000
  C   C3508     1.0  0.77644  0.33712  0.71229  1.0000
  H   H2815     1.0  0.90334  0.19999  0.48896  1.0000
  C   C3509     1.0  0.93080  0.32971  0.68489  1.0000
  H   H2816     1.0  0.85821  0.30120  0.48617  1.0000
  H   H2817     1.0  0.81146  0.99482  0.61168  1.0000
  H   H2818     1.0  0.92865  0.39831  0.69816  1.0000
  C   C3510     1.0  0.78381  0.01532  0.61130  1.0000
  H   H2819     1.0  0.84261  0.20430  0.49821  1.0000
  C   C3511     1.0  0.97372  0.04178  0.49269  1.0000
  C   C3512     1.0  0.90798  0.37061  0.68042  1.0000
  C   C3513     1.0  0.78089  0.12850  0.50108  1.0000
  H   H2820     1.0  0.84247  0.09806  0.52331  1.0000
  S   S470      1.0  0.82205  0.01809  0.52748  1.0000
  C   C3514     1.0  0.94801  0.33566  0.67361  1.0000
  H   H2821     1.0  0.94720  0.34972  0.66350  1.0000
  C   C3515     1.0  0.73084  0.42566  0.72290  1.0000
  H   H2822     1.0  0.72519  0.33203  0.71915  1.0000
  C   C3516     1.0  0.95874  0.17599  0.57816  1.0000
  C   C3517     1.0  0.73831  0.06422  0.51625  1.0000
  C   C3518     1.0  0.82437  0.14647  0.50713  1.0000
  C   C3519     1.0  0.72621  0.01310  0.61725  1.0000
  C   C3520     1.0  0.69347  0.02065  0.49242  1.0000
  C   C3521     1.0  0.97753  0.24152  0.54953  1.0000
  H   H2823     1.0  0.95170  0.23918  0.57277  1.0000
  H   H2824     1.0  0.98333  0.21111  0.52384  1.0000
  C   C3522     1.0  0.71737  0.09226  0.49989  1.0000
  P   P118      1.0  0.99223  0.21795  0.55858  1.0000
  C   C3523     1.0  0.73657  0.35700  0.71928  1.0000
  C   C3524     1.0  0.84092  0.35661  0.49265  1.0000
  C   C3525     1.0  0.85593  0.33401  0.71897  1.0000
  C   C3526     1.0  0.79739  0.00046  0.62037  1.0000
  H   H2825     1.0  0.70948  0.99093  0.62193  1.0000
  H   H2826     1.0  0.78398  0.11263  0.50309  1.0000
  H   H2827     1.0  0.97007  0.21553  0.59881  1.0000
  C   C3527     1.0  0.93217  0.31116  0.69738  1.0000
  C   C3528     1.0  0.67332  0.27484  0.61650  1.0000
  C   C3529     1.0  0.98530  0.25355  0.53219  1.0000
  C   C3530     1.0  0.72718  0.14159  0.49442  1.0000
  C   C3531     1.0  0.86525  0.25925  0.50030  1.0000
  C   C3532     1.0  0.70137  0.03582  0.59189  1.0000
  H   H2828     1.0  0.99046  0.14484  0.56069  1.0000
  H   H2829     1.0  0.75132  0.04059  0.50101  1.0000
  C   C3533     1.0  0.83966  0.11198  0.51324  1.0000
  H   H2830     1.0  0.71715  0.22015  0.69421  1.0000
  C   C3534     1.0  0.72614  0.08283  0.51597  1.0000
  H   H2831     1.0  0.74543  0.38095  0.72555  1.0000
  H   H2832     1.0  0.92157  0.30106  0.50293  1.0000
  H   H2833     1.0  0.97014  0.01338  0.51029  1.0000
  C   C3535     1.0  0.70439  0.24126  0.71260  1.0000
  H   H2834     1.0  0.98016  0.28092  0.51154  1.0000
  H   H2835     1.0  0.75943  0.09366  0.48870  1.0000
  H   H2836     1.0  0.77398  0.30987  0.70646  1.0000
  S   S471      1.0  0.88542  0.06723  0.49232  1.0000
  C   C3536     1.0  0.94597  0.02739  0.49568  1.0000
  H   H2837     1.0  0.69179  0.04461  0.58204  1.0000
  H   H2838     1.0  0.71495  0.47734  0.73411  1.0000
  H   H2839     1.0  0.71077  0.03604  0.50085  1.0000
  C   C3537     1.0  0.76149  0.01594  0.64264  1.0000
  C   C3538     1.0  0.72331  0.34434  0.72593  1.0000
  C   C3539     1.0  0.97609  0.20203  0.57374  1.0000
  H   H2840     1.0  0.96712  0.07141  0.51300  1.0000
  H   H2841     1.0  0.89409  0.10460  0.48948  1.0000
  Fe  Fe235     1.0  0.82468  0.38555  0.72836  1.0000
  H   H2842     1.0  0.73571  0.00403  0.62702  1.0000
  C   C3540     1.0  0.74163  0.05492  0.50055  1.0000
  C   C3541     1.0  0.79563  0.30488  0.72375  1.0000
  H   H2843     1.0  0.95543  0.16502  0.57239  1.0000
  C   C3542     1.0  0.80487  0.31325  0.73340  1.0000
  C   C3543     1.0  0.77514  0.00109  0.65168  1.0000
  H   H2844     1.0  0.85741  0.10061  0.48832  1.0000
  C   C3544     1.0  0.88809  0.40747  0.73029  1.0000
  C   C3545     1.0  0.73466  0.37181  0.72948  1.0000
  C   C3546     1.0  0.79969  0.33343  0.73279  1.0000
  H   H2845     1.0  0.66330  0.21176  0.51522  1.0000
  C   C3547     1.0  0.67076  0.24148  0.72962  1.0000
  S   S472      1.0  0.84929  0.03805  0.48675  1.0000
  H   H2846     1.0  0.86592  0.26570  0.48492  1.0000
  C   C3548     1.0  0.66150  0.14997  0.72263  1.0000
  C   C3549     1.0  0.83288  0.14792  0.48726  1.0000
  H   H2847     1.0  0.82106  0.29707  0.48804  1.0000
  C   C3550     1.0  0.68770  0.24903  0.72537  1.0000
  H   H2848     1.0  0.95009  0.10819  0.48960  1.0000
  H   H2849     1.0  0.79960  0.28922  0.72425  1.0000
  C   C3551     1.0  0.66148  0.33212  0.81626  1.0000
  C   C3552     1.0  0.86689  0.45563  0.81478  1.0000
  S   S473      1.0  0.81890  0.36471  0.75711  1.0000
  H   H2850     1.0  0.94393  0.47116  0.94922  1.0000
  H   H2851     1.0  0.68663  0.44427  0.76191  1.0000
  Fe  Fe236     1.0  0.70022  0.34330  0.85852  1.0000
  S   S474      1.0  0.69098  0.37310  0.84058  1.0000
  S   S475      1.0  0.68066  0.32126  0.86712  1.0000
  Fe  Fe237     1.0  0.73890  0.35175  0.86109  1.0000
  S   S476      1.0  0.73281  0.38213  0.84297  1.0000
  S   S477      1.0  0.76860  0.34071  0.86972  1.0000
  Fe  Fe238     1.0  0.70226  0.38417  0.86090  1.0000
  S   S478      1.0  0.68418  0.41085  0.87258  1.0000
  Fe  Fe239     1.0  0.72211  0.36843  0.82422  1.0000
  S   S479      1.0  0.72779  0.37823  0.79159  1.0000
  S   S480      1.0  0.70901  0.35465  0.88067  1.0000
  S   S481      1.0  0.73078  0.33764  0.84053  1.0000
  C   C3553     1.0  0.86583  0.48671  0.74593  1.0000
  H   H2852     1.0  0.68961  0.48088  0.94854  1.0000
  C   C3554     1.0  0.70829  0.39477  0.93188  1.0000
  P   P119      1.0  0.72229  0.44959  0.77089  1.0000
  Fe  Fe240     1.0  0.93734  0.42934  0.76838  1.0000
  S   S482      1.0  0.91220  0.45122  0.78105  1.0000
  S   S483      1.0  0.93145  0.40474  0.75813  1.0000
  S   S484      1.0  0.94530  0.47232  0.78656  1.0000
  Fe  Fe241     1.0  0.92973  0.44803  0.80354  1.0000
  S   S485      1.0  0.91349  0.44896  0.83451  1.0000
  Fe  Fe242     1.0  0.92946  0.47369  0.76298  1.0000
  C   C3555     1.0  0.73011  0.44335  0.89430  1.0000
  Fe  Fe243     1.0  0.86222  0.37982  0.91372  1.0000
  S   S486      1.0  0.86464  0.39917  0.93249  1.0000
  S   S487      1.0  0.88736  0.37245  0.88901  1.0000
  Fe  Fe244     1.0  0.81997  0.37760  0.93344  1.0000
  S   S488      1.0  0.81889  0.39732  0.95360  1.0000
  S   S489      1.0  0.79204  0.36702  0.93679  1.0000
  Fe  Fe245     1.0  0.83474  0.41524  0.92714  1.0000
  S   S490      1.0  0.82898  0.44817  0.91740  1.0000
  Fe  Fe246     1.0  0.84877  0.37957  0.95729  1.0000
  S   S491      1.0  0.83328  0.39718  0.90669  1.0000
  S   S492      1.0  0.84890  0.35840  0.93902  1.0000
  C   C3556     1.0  0.93841  0.40463  0.90350  1.0000
  H   H2853     1.0  0.95854  0.47457  0.82387  1.0000
  H   H2854     1.0  0.80661  0.33990  0.74050  1.0000
  C   C3557     1.0  0.90550  0.42765  0.84861  1.0000
  C   C3558     1.0  0.89092  0.42907  0.86553  1.0000
  C   C3559     1.0  0.88480  0.41225  0.87754  1.0000
  C   C3560     1.0  0.89389  0.39377  0.87320  1.0000
  C   C3561     1.0  0.90863  0.39230  0.85638  1.0000
  C   C3562     1.0  0.91411  0.40927  0.84382  1.0000
  H   H2855     1.0  0.88426  0.44320  0.86938  1.0000
  H   H2856     1.0  0.87330  0.41360  0.89035  1.0000
  H   H2857     1.0  0.91578  0.37801  0.85307  1.0000
  H   H2858     1.0  0.92544  0.40805  0.83082  1.0000
  H   H2859     1.0  0.91475  0.44366  0.73938  1.0000
  C   C3563     1.0  0.95443  0.48116  0.83661  1.0000
  H   H2860     1.0  0.81220  0.47595  0.77496  1.0000
  C   C3564     1.0  0.80384  0.45852  0.91992  1.0000
  H   H2861     1.0  0.90684  0.44144  0.94167  1.0000
  C   C3565     1.0  0.67978  0.26108  0.85491  1.0000
  H   H2862     1.0  0.84688  0.48170  0.91139  1.0000
  C   C3566     1.0  0.71908  0.37466  0.74530  1.0000
  H   H2863     1.0  0.84415  0.42832  0.74671  1.0000
  C   C3567     1.0  0.68594  0.46843  0.94550  1.0000
  H   H2864     1.0  0.76029  0.22478  0.76139  1.0000
  C   C3568     1.0  0.77460  0.35017  0.88731  1.0000
  C   C3569     1.0  0.79429  0.35045  0.88619  1.0000
  C   C3570     1.0  0.79974  0.35656  0.90074  1.0000
  C   C3571     1.0  0.78558  0.36187  0.91683  1.0000
  C   C3572     1.0  0.76586  0.36191  0.91775  1.0000
  C   C3573     1.0  0.76031  0.35633  0.90295  1.0000
  H   H2865     1.0  0.80543  0.34566  0.87417  1.0000
  H   H2866     1.0  0.81500  0.35637  0.89991  1.0000
  H   H2867     1.0  0.75490  0.36592  0.93018  1.0000
  H   H2868     1.0  0.74513  0.35600  0.90407  1.0000
  C   C3574     1.0  0.69390  0.43209  0.86306  1.0000
  C   C3575     1.0  0.68650  0.44806  0.87243  1.0000
  C   C3576     1.0  0.69339  0.46550  0.86459  1.0000
  C   C3577     1.0  0.70752  0.46711  0.84729  1.0000
  C   C3578     1.0  0.71487  0.45121  0.83784  1.0000
  C   C3579     1.0  0.70820  0.43365  0.84583  1.0000
  H   H2869     1.0  0.67545  0.44691  0.88575  1.0000
  H   H2870     1.0  0.68757  0.47781  0.87174  1.0000
  H   H2871     1.0  0.72576  0.45240  0.82439  1.0000
  H   H2872     1.0  0.71357  0.42165  0.83822  1.0000
  C   C3580     1.0  0.74647  0.42053  0.79368  1.0000
  C   C3581     1.0  0.85714  0.44787  0.95532  1.0000
  H   H2873     1.0  0.68265  0.26758  0.88148  1.0000
  H   H2874     1.0  0.90686  0.38493  0.74740  1.0000
  C   C3582     1.0  0.86941  0.46700  0.97083  1.0000
  C   C3583     1.0  0.67692  0.43660  0.93670  1.0000
  C   C3584     1.0  0.88854  0.46011  0.96130  1.0000
  C   C3585     1.0  0.88521  0.48621  0.74657  1.0000
  C   C3586     1.0  0.66767  0.28738  0.77223  1.0000
  H   H2875     1.0  0.74141  0.46320  0.86873  1.0000
  C   C3587     1.0  0.79353  0.36826  0.76651  1.0000
  C   C3588     1.0  0.78634  0.35682  0.78442  1.0000
  C   C3589     1.0  0.76614  0.36000  0.79232  1.0000
  C   C3590     1.0  0.75305  0.37409  0.78192  1.0000
  C   C3591     1.0  0.76016  0.38497  0.76366  1.0000
  C   C3592     1.0  0.78040  0.38233  0.75611  1.0000
  H   H2876     1.0  0.79637  0.34559  0.79228  1.0000
  H   H2877     1.0  0.76072  0.35141  0.80636  1.0000
  H   H2878     1.0  0.75007  0.39587  0.75566  1.0000
  H   H2879     1.0  0.75352  0.48340  0.80507  1.0000
  H   H2880     1.0  0.95010  0.38454  0.86686  1.0000
  H   H2881     1.0  0.69669  0.47806  0.79497  1.0000
  C   C3593     1.0  0.74021  0.44814  0.87504  1.0000
  H   H2882     1.0  0.84516  0.44300  0.95274  1.0000
  H   H2883     1.0  0.96783  0.40948  0.89715  1.0000
  H   H2884     1.0  0.73446  0.47721  0.78596  1.0000
  H   H2885     1.0  0.70302  0.41724  0.79294  1.0000
  C   C3594     1.0  0.91856  0.41341  0.90451  1.0000
  C   C3595     1.0  0.71827  0.43929  0.75226  1.0000
  H   H2886     1.0  0.90293  0.48242  0.85481  1.0000
  H   H2887     1.0  0.67281  0.23790  0.78045  1.0000
  H   H2888     1.0  0.96542  0.43849  0.83268  1.0000
  H   H2889     1.0  0.71455  0.34761  0.95782  1.0000
  H   H2890     1.0  0.93702  0.46028  0.85353  1.0000
  C   C3596     1.0  0.84195  0.47756  0.83309  1.0000
  H   H2891     1.0  0.97915  0.36578  0.84795  1.0000
  H   H2892     1.0  0.73340  0.41575  0.80254  1.0000
  H   H2893     1.0  0.71780  0.38602  0.75322  1.0000
  H   H2894     1.0  0.79457  0.43545  0.76209  1.0000
  H   H2895     1.0  0.82644  0.46296  0.74481  1.0000
  C   C3597     1.0  0.74826  0.43366  0.86385  1.0000
  H   H2896     1.0  0.69144  0.40589  0.90914  1.0000
  H   H2897     1.0  0.86231  0.45298  0.84581  1.0000
  C   C3598     1.0  0.92652  0.44575  0.89555  1.0000
  H   H2898     1.0  0.81130  0.47467  0.94744  1.0000
  C   C3599     1.0  0.96891  0.42264  0.83649  1.0000
  C   C3600     1.0  0.69612  0.39339  0.92015  1.0000
  C   C3601     1.0  0.74550  0.43639  0.77765  1.0000
  H   H2899     1.0  0.71603  0.45378  0.93860  1.0000
  H   H2900     1.0  0.89509  0.47231  0.74967  1.0000
  C   C3602     1.0  0.87626  0.44124  0.94560  1.0000
  C   C3603     1.0  0.69030  0.37583  0.92219  1.0000
  H   H2901     1.0  0.75568  0.43748  0.84879  1.0000
  P   P120      1.0  0.71652  0.41736  0.92793  1.0000
  C   C3604     1.0  0.73404  0.43305  0.73766  1.0000
  C   C3605     1.0  0.66268  0.16348  0.74964  1.0000
  C   C3606     1.0  0.85916  0.48228  0.89907  1.0000
  C   C3607     1.0  0.75468  0.41242  0.93324  1.0000
  H   H2902     1.0  0.90071  0.46448  0.96399  1.0000
  C   C3608     1.0  0.72912  0.41334  0.96245  1.0000
  H   H2903     1.0  0.77876  0.20760  0.78781  1.0000
  H   H2904     1.0  0.95757  0.44562  0.88988  1.0000
  C   C3609     1.0  0.70558  0.36243  0.75143  1.0000
  H   H2905     1.0  0.66313  0.47914  0.90364  1.0000
  C   C3610     1.0  0.81937  0.46066  0.77598  1.0000
  C   C3611     1.0  0.93578  0.48223  0.86963  1.0000
  C   C3612     1.0  0.67604  0.25191  0.77998  1.0000
  C   C3613     1.0  0.68066  0.42824  0.81582  1.0000
  C   C3614     1.0  0.70909  0.36051  0.94756  1.0000
  H   H2906     1.0  0.94236  0.45746  0.92192  1.0000
  C   C3615     1.0  0.94206  0.47322  0.85339  1.0000
  C   C3616     1.0  0.96032  0.39217  0.85572  1.0000
  H   H2907     1.0  0.87904  0.44305  0.81449  1.0000
  H   H2908     1.0  0.86960  0.48809  0.84949  1.0000
  C   C3617     1.0  0.67104  0.33308  0.83061  1.0000
  C   C3618     1.0  0.97690  0.37926  0.77575  1.0000
  C   C3619     1.0  0.73103  0.48459  0.77178  1.0000
  H   H2909     1.0  0.69382  0.36438  0.76405  1.0000
  H   H2910     1.0  0.75993  0.45147  0.94884  1.0000
  H   H2911     1.0  0.84856  0.32935  0.75043  1.0000
  H   H2912     1.0  0.94323  0.42087  0.85936  1.0000
  H   H2913     1.0  0.76532  0.39743  0.81007  1.0000
  C   C3620     1.0  0.85754  0.46132  0.83249  1.0000
  H   H2914     1.0  0.67565  0.18861  0.74225  1.0000
  C   C3621     1.0  0.85602  0.48536  0.88012  1.0000
  C   C3622     1.0  0.73607  0.40951  0.89117  1.0000
  H   H2915     1.0  0.89714  0.44020  0.90122  1.0000
  C   C3623     1.0  0.86054  0.46613  0.79757  1.0000
  C   C3624     1.0  0.70216  0.44778  0.79180  1.0000
  C   C3625     1.0  0.98540  0.41214  0.82570  1.0000
  C   C3626     1.0  0.77686  0.48285  0.90783  1.0000
  C   C3627     1.0  0.67714  0.46229  0.81681  1.0000
  H   H2916     1.0  0.69283  0.34556  0.93696  1.0000
  C   C3628     1.0  0.75601  0.22938  0.77531  1.0000
  C   C3629     1.0  0.76642  0.21971  0.79017  1.0000
  C   C3630     1.0  0.76097  0.22573  0.80808  1.0000
  C   C3631     1.0  0.74506  0.24136  0.81120  1.0000
  C   C3632     1.0  0.73436  0.25099  0.79643  1.0000
  C   C3633     1.0  0.74009  0.24501  0.77837  1.0000
  P   P121      1.0  0.71420  0.27165  0.80000  1.0000
  C   C3634     1.0  0.69514  0.27083  0.78826  1.0000
  C   C3635     1.0  0.70418  0.27004  0.82591  1.0000
  C   C3636     1.0  0.68732  0.26227  0.83487  1.0000
  C   C3637     1.0  0.72421  0.47483  0.76118  1.0000
  C   C3638     1.0  0.68891  0.26774  0.86613  1.0000
  C   C3639     1.0  0.70562  0.27553  0.85734  1.0000
  C   C3640     1.0  0.71328  0.27663  0.83736  1.0000
  C   C3641     1.0  0.68302  0.28821  0.78041  1.0000
  H   H2917     1.0  0.81595  0.30414  0.74146  1.0000
  C   C3642     1.0  0.67153  0.17815  0.73648  1.0000
  H   H2918     1.0  0.66394  0.34145  0.80192  1.0000
  C   C3643     1.0  0.69148  0.25265  0.78805  1.0000
  C   C3644     1.0  0.72301  0.29424  0.79006  1.0000
  C   C3645     1.0  0.73996  0.29505  0.77525  1.0000
  C   C3646     1.0  0.74721  0.31234  0.76857  1.0000
  C   C3647     1.0  0.73765  0.32885  0.77663  1.0000
  C   C3648     1.0  0.72064  0.32824  0.79112  1.0000
  C   C3649     1.0  0.71328  0.31107  0.79769  1.0000
  H   H2919     1.0  0.97908  0.36508  0.80534  1.0000
  C   C3650     1.0  0.90725  0.43355  0.73703  1.0000
  H   H2920     1.0  0.76910  0.21832  0.81959  1.0000
  H   H2921     1.0  0.74121  0.24580  0.82515  1.0000
  H   H2922     1.0  0.73227  0.25250  0.76666  1.0000
  C   C3651     1.0  0.67152  0.44430  0.82468  1.0000
  H   H2923     1.0  0.88034  0.47609  0.91706  1.0000
  C   C3652     1.0  0.66411  0.26926  0.77212  1.0000
  H   H2924     1.0  0.71218  0.28143  0.86592  1.0000
  H   H2925     1.0  0.72610  0.28297  0.83082  1.0000
  H   H2926     1.0  0.68481  0.30240  0.78126  1.0000
  H   H2927     1.0  0.90776  0.40431  0.90813  1.0000
  C   C3653     1.0  0.77031  0.45801  0.93695  1.0000
  C   C3654     1.0  0.70776  0.34718  0.74185  1.0000
  H   H2928     1.0  0.70007  0.23905  0.79477  1.0000
  H   H2929     1.0  0.74781  0.28237  0.76905  1.0000
  H   H2930     1.0  0.76042  0.31293  0.75737  1.0000
  H   H2931     1.0  0.74340  0.34216  0.77169  1.0000
  H   H2932     1.0  0.71329  0.34105  0.79744  1.0000
  H   H2933     1.0  0.70023  0.31075  0.80908  1.0000
  H   H2934     1.0  0.67965  0.25746  0.82649  1.0000
  H   H2935     1.0  0.98589  0.45913  0.80388  1.0000
  C   C3655     1.0  0.76863  0.41039  0.94430  1.0000
  C   C3656     1.0  0.71984  0.48460  0.74282  1.0000
  C   C3657     1.0  0.69237  0.46408  0.80041  1.0000
  H   H2936     1.0  0.73491  0.39440  0.89718  1.0000
  C   C3658     1.0  0.73479  0.41402  0.94221  1.0000
  H   H2937     1.0  0.71381  0.41459  0.96958  1.0000
  H   H2938     1.0  0.86756  0.46153  0.78384  1.0000
  C   C3659     1.0  0.66808  0.32096  0.84917  1.0000
  C   C3660     1.0  0.69689  0.35933  0.93580  1.0000
  C   C3661     1.0  0.72782  0.42401  0.90248  1.0000
  H   H2939     1.0  0.86089  0.47311  0.74883  1.0000
  C   C3662     1.0  0.76304  0.44176  0.76638  1.0000
  H   H2940     1.0  0.94291  0.38877  0.90650  1.0000
  C   C3663     1.0  0.77012  0.48421  0.82557  1.0000
  C   C3664     1.0  0.89200  0.44710  0.94878  1.0000
  C   C3665     1.0  0.69588  0.42996  0.79943  1.0000
  H   H2941     1.0  0.67643  0.41425  0.82211  1.0000
  H   H2942     1.0  0.75968  0.41254  0.91775  1.0000
  C   C3666     1.0  0.78114  0.43138  0.77100  1.0000
  C   C3667     1.0  0.97686  0.38161  0.84497  1.0000
  C   C3668     1.0  0.74622  0.41435  0.87194  1.0000
  S   S493      1.0  0.73813  0.48268  0.92498  1.0000
  H   H2943     1.0  0.96436  0.37344  0.77604  1.0000
  C   C3669     1.0  0.76464  0.41009  0.79814  1.0000
  H   H2944     1.0  0.72431  0.45477  0.90272  1.0000
  C   C3670     1.0  0.85364  0.46043  0.96840  1.0000
  H   H2945     1.0  0.72456  0.37859  0.95460  1.0000
  C   C3671     1.0  0.79045  0.45006  0.93527  1.0000
  H   H2946     1.0  0.78391  0.40916  0.93712  1.0000
  C   C3672     1.0  0.78196  0.41544  0.78675  1.0000
  H   H2947     1.0  0.78578  0.39139  0.74238  1.0000
  C   C3673     1.0  0.95240  0.41631  0.89828  1.0000
  C   C3674     1.0  0.87187  0.48586  0.86424  1.0000
  H   H2948     1.0  0.68096  0.34295  0.82717  1.0000
  Fe  Fe247     1.0  0.96799  0.44859  0.77371  1.0000
  C   C3675     1.0  0.76347  0.47405  0.92299  1.0000
  H   H2949     1.0  0.87886  0.43135  0.93576  1.0000
  C   C3676     1.0  0.71471  0.37819  0.94570  1.0000
  C   C3677     1.0  0.70096  0.45310  0.93965  1.0000
  C   C3678     1.0  0.98529  0.37458  0.79228  1.0000
  C   C3679     1.0  0.89306  0.39970  0.80471  1.0000
  C   C3680     1.0  0.89792  0.38260  0.81843  1.0000
  C   C3681     1.0  0.88311  0.37470  0.83237  1.0000
  C   C3682     1.0  0.86341  0.38366  0.83230  1.0000
  C   C3683     1.0  0.85841  0.40063  0.81828  1.0000
  C   C3684     1.0  0.87340  0.40875  0.80464  1.0000
  P   P122      1.0  0.83294  0.41248  0.81895  1.0000
  C   C3685     1.0  0.83049  0.42863  0.79553  1.0000
  C   C3686     1.0  0.81974  0.39332  0.82199  1.0000
  C   C3687     1.0  0.82692  0.37930  0.81006  1.0000
  C   C3688     1.0  0.81661  0.36480  0.81178  1.0000
  C   C3689     1.0  0.79914  0.36399  0.82557  1.0000
  C   C3690     1.0  0.79212  0.37758  0.83776  1.0000
  C   C3691     1.0  0.80245  0.39198  0.83623  1.0000
  C   C3692     1.0  0.82103  0.44849  0.79421  1.0000
  C   C3693     1.0  0.83737  0.43384  0.76000  1.0000
  C   C3694     1.0  0.83877  0.42148  0.77817  1.0000
  C   C3695     1.0  0.82384  0.42545  0.83897  1.0000
  C   C3696     1.0  0.83607  0.42486  0.85158  1.0000
  C   C3697     1.0  0.82869  0.43411  0.86756  1.0000
  C   C3698     1.0  0.80898  0.44350  0.87140  1.0000
  C   C3699     1.0  0.79677  0.44440  0.85887  1.0000
  C   C3700     1.0  0.80419  0.43564  0.84257  1.0000
  H   H2950     1.0  0.90455  0.40608  0.79422  1.0000
  H   H2951     1.0  0.91320  0.37577  0.81852  1.0000
  H   H2952     1.0  0.88687  0.36188  0.84353  1.0000
  H   H2953     1.0  0.85208  0.37754  0.84338  1.0000
  H   H2954     1.0  0.87007  0.42211  0.79399  1.0000
  H   H2955     1.0  0.84058  0.37931  0.79952  1.0000
  H   H2956     1.0  0.82219  0.35421  0.80234  1.0000
  H   H2957     1.0  0.79113  0.35270  0.82707  1.0000
  H   H2958     1.0  0.77875  0.37673  0.84866  1.0000
  H   H2959     1.0  0.79688  0.40161  0.84651  1.0000
  H   H2960     1.0  0.81530  0.45495  0.80699  1.0000
  C   C3701     1.0  0.69664  0.43707  0.93515  1.0000
  H   H2961     1.0  0.84690  0.40657  0.77846  1.0000
  H   H2962     1.0  0.85132  0.41728  0.84928  1.0000
  H   H2963     1.0  0.83817  0.43364  0.87726  1.0000
  H   H2964     1.0  0.80309  0.44978  0.88426  1.0000
  H   H2965     1.0  0.78149  0.45169  0.86203  1.0000
  H   H2966     1.0  0.79446  0.43635  0.83304  1.0000
  H   H2967     1.0  0.78759  0.46977  0.98153  1.0000
  H   H2968     1.0  0.68110  0.37496  0.91279  1.0000
  H   H2969     1.0  0.79604  0.40698  0.78987  1.0000
  C   C3702     1.0  0.91260  0.43387  0.90056  1.0000
  C   C3703     1.0  0.94651  0.43678  0.89415  1.0000
  C   C3704     1.0  0.82750  0.45336  0.75891  1.0000
  H   H2970     1.0  0.76285  0.45375  0.75375  1.0000
  H   H2971     1.0  0.79561  0.43747  0.94593  1.0000
  H   H2972     1.0  0.67038  0.47460  0.82399  1.0000
  C   C3705     1.0  0.89092  0.48264  0.86734  1.0000
  S   S494      1.0  0.95349  0.45197  0.74848  1.0000
  S   S495      1.0  0.95366  0.42400  0.79262  1.0000
  C   C3706     1.0  0.95639  0.41268  0.85150  1.0000
  H   H2973     1.0  0.84134  0.48699  0.87785  1.0000
  C   C3707     1.0  0.66637  0.46772  0.94727  1.0000
  H   H2974     1.0  0.76165  0.47561  0.83767  1.0000
  H   H2975     1.0  0.75234  0.40309  0.86332  1.0000
  P   P123      1.0  0.91903  0.47226  0.89083  1.0000
  C   C3708     1.0  0.69915  0.43885  0.75129  1.0000
  H   H2976     1.0  0.83443  0.48118  0.84711  1.0000
  C   C3709     1.0  0.93283  0.47137  0.92408  1.0000
  C   C3710     1.0  0.76301  0.40944  0.96444  1.0000
  H   H2977     1.0  0.69763  0.33731  0.74710  1.0000
  C   C3711     1.0  0.87820  0.47906  0.90222  1.0000
  C   C3712     1.0  0.89429  0.47894  0.88640  1.0000
  C   C3713     1.0  0.91966  0.48152  0.91167  1.0000
  H   H2978     1.0  0.87427  0.40167  0.97099  1.0000
  H   H2979     1.0  0.74887  0.43383  0.73756  1.0000
  H   H2980     1.0  0.88088  0.33283  0.75352  1.0000
  H   H2981     1.0  0.66646  0.25560  0.86161  1.0000
  C   C3714     1.0  0.91253  0.41351  0.74473  1.0000
  S   S496      1.0  0.71617  0.48889  0.83743  1.0000
  C   C3715     1.0  0.79710  0.47531  0.90655  1.0000
  C   C3716     1.0  0.74323  0.41098  0.97355  1.0000
  C   C3717     1.0  0.84527  0.48273  0.79801  1.0000
  H   H2982     1.0  0.97678  0.39670  0.74670  1.0000
  C   C3718     1.0  0.98389  0.39243  0.75915  1.0000
  C   C3719     1.0  0.90288  0.40045  0.74141  1.0000
  H   H2983     1.0  0.86702  0.47711  0.98043  1.0000
  H   H2984     1.0  0.80744  0.48203  0.89476  1.0000
  C   C3720     1.0  0.93382  0.47915  0.93961  1.0000
  H   H2985     1.0  0.67300  0.42454  0.93335  1.0000
  C   C3721     1.0  0.87813  0.33379  0.73919  1.0000
  C   C3722     1.0  0.98969  0.39158  0.83004  1.0000
  C   C3723     1.0  0.69601  0.43145  0.73648  1.0000
  H   H2986     1.0  0.77408  0.40747  0.97283  1.0000
  C   C3724     1.0  0.85988  0.33184  0.73746  1.0000
  H   H2987     1.0  0.68125  0.43096  0.73595  1.0000
  P   P124      1.0  0.82901  0.46867  0.98126  1.0000
  H   H2988     1.0  0.78919  0.48705  0.84274  1.0000
  C   C3725     1.0  0.66186  0.45186  0.94278  1.0000
  C   C3726     1.0  0.76547  0.48867  0.80711  1.0000
  C   C3727     1.0  0.83624  0.48885  0.81572  1.0000
  C   C3728     1.0  0.85380  0.51630  0.06928  1.0000
  C   C3729     1.0  0.66518  0.77637  0.22443  1.0000
  C   C3730     1.0  0.96719  0.52535  0.21922  1.0000
  S   S497      1.0  0.73564  0.52367  0.21126  1.0000
  Fe  Fe248     1.0  0.73289  0.53796  0.18038  1.0000
  C   C3731     1.0  0.88522  0.53131  0.09446  1.0000
  S   S498      1.0  0.72198  0.57049  0.17295  1.0000
  Fe  Fe249     1.0  0.76468  0.50762  0.19762  1.0000
  H   H2989     1.0  0.89670  0.55860  0.21750  1.0000
  H   H2990     1.0  0.87225  0.49215  0.03151  1.0000
  S   S499      1.0  0.76293  0.52359  0.16671  1.0000
  S   S500      1.0  0.71761  0.51590  0.17721  1.0000
  C   C3732     1.0  0.67398  0.59666  0.20766  1.0000
  H   H2991     1.0  0.79095  0.55390  0.13492  1.0000
  C   C3733     1.0  0.97512  0.52952  0.19918  1.0000
  C   C3734     1.0  0.89417  0.56211  0.07609  1.0000
  C   C3735     1.0  0.87226  0.59251  0.20109  1.0000
  S   S501      1.0  0.96087  0.50717  0.15741  1.0000
  C   C3736     1.0  0.84006  0.57449  0.21494  1.0000
  H   H2992     1.0  0.93399  0.52891  0.09004  1.0000
  C   C3737     1.0  0.88005  0.55053  0.08394  1.0000
  Fe  Fe250     1.0  0.72343  0.49990  0.20678  1.0000
  C   C3738     1.0  0.80385  0.54204  0.17629  1.0000
  C   C3739     1.0  0.85707  0.52426  0.22698  1.0000
  C   C3740     1.0  0.82233  0.53804  0.18101  1.0000
  S   S502      1.0  0.79008  0.50369  0.21227  1.0000
  C   C3741     1.0  0.68586  0.53386  0.13716  1.0000
  C   C3742     1.0  0.70053  0.57481  0.19052  1.0000
  H   H2993     1.0  0.72410  0.56452  0.13324  1.0000
  C   C3743     1.0  0.88077  0.49850  0.13735  1.0000
  H   H2994     1.0  0.69707  0.60626  0.18421  1.0000
  H   H2995     1.0  0.69971  0.54414  0.20014  1.0000
  H   H2996     1.0  0.96704  0.52871  0.18873  1.0000
  H   H2997     1.0  0.90919  0.50881  0.10419  1.0000
  C   C3744     1.0  0.74290  0.60582  0.20998  1.0000
  S   S503      1.0  0.92392  0.53077  0.19668  1.0000
  C   C3745     1.0  0.66415  0.75692  0.23331  1.0000
  H   H2998     1.0  0.82900  0.50747  0.10782  1.0000
  C   C3746     1.0  0.72527  0.57993  0.22704  1.0000
  H   H2999     1.0  0.85523  0.57010  0.14967  1.0000
  H   H3000     1.0  0.67208  0.51887  0.17481  1.0000
  C   C3747     1.0  0.67610  0.56160  0.21669  1.0000
  C   C3748     1.0  0.79095  0.52279  0.22316  1.0000
  C   C3749     1.0  0.88497  0.49430  0.07306  1.0000
  H   H3001     1.0  0.89013  0.57694  0.06799  1.0000
  Fe  Fe251     1.0  0.94171  0.50288  0.18723  1.0000
  C   C3750     1.0  0.73574  0.58964  0.20983  1.0000
  H   H3002     1.0  0.82403  0.58458  0.18207  1.0000
  H   H3003     1.0  0.81982  0.56699  0.13428  1.0000
  H   H3004     1.0  0.88363  0.57184  0.18213  1.0000
  C   C3751     1.0  0.85521  0.56792  0.20004  1.0000
  H   H3005     1.0  0.70229  0.70063  0.22342  1.0000
  H   H3006     1.0  0.79815  0.53012  0.17484  1.0000
  H   H3007     1.0  0.73836  0.58454  0.19635  1.0000
  H   H3008     1.0  0.73471  0.53317  0.12145  1.0000
  H   H3009     1.0  0.66855  0.50097  0.20881  1.0000
  C   C3752     1.0  0.91892  0.53511  0.08836  1.0000
  C   C3753     1.0  0.90476  0.52369  0.09651  1.0000
  H   H3010     1.0  0.77780  0.56391  0.17144  1.0000
  H   H3011     1.0  0.75102  0.61323  0.19660  1.0000
  C   C3754     1.0  0.84077  0.54474  0.12033  1.0000
  C   C3755     1.0  0.87140  0.57699  0.19318  1.0000
  C   C3756     1.0  0.66646  0.58046  0.21930  1.0000
  C   C3757     1.0  0.85510  0.51060  0.05178  1.0000
  C   C3758     1.0  0.81857  0.57248  0.18067  1.0000
  C   C3759     1.0  0.82979  0.55318  0.18351  1.0000
  H   H3012     1.0  0.79572  0.52378  0.12212  1.0000
  C   C3760     1.0  0.82186  0.55416  0.12820  1.0000
  H   H3013     1.0  0.79105  0.59111  0.17489  1.0000
  H   H3014     1.0  0.67553  0.52479  0.13861  1.0000
  C   C3761     1.0  0.69114  0.59383  0.19323  1.0000
  C   C3762     1.0  0.77840  0.55555  0.23036  1.0000
  C   C3763     1.0  0.66207  0.52610  0.18599  1.0000
  C   C3764     1.0  0.85707  0.59895  0.21594  1.0000
  C   C3765     1.0  0.87135  0.49680  0.04490  1.0000
  C   C3766     1.0  0.80825  0.52984  0.12140  1.0000
  H   H3015     1.0  0.79993  0.49928  0.03907  1.0000
  P   P125      1.0  0.85359  0.54798  0.19000  1.0000
  C   C3767     1.0  0.87212  0.54663  0.16795  1.0000
  C   C3768     1.0  0.86905  0.55970  0.15036  1.0000
  C   C3769     1.0  0.88412  0.55986  0.13370  1.0000
  C   C3770     1.0  0.90228  0.54698  0.13456  1.0000
  C   C3771     1.0  0.90529  0.53374  0.15189  1.0000
  C   C3772     1.0  0.89037  0.53366  0.16857  1.0000
  H   H3016     1.0  0.71966  0.56761  0.22641  1.0000
  C   C3773     1.0  0.71336  0.55613  0.13399  1.0000
  C   C3774     1.0  0.85748  0.52485  0.20727  1.0000
  C   C3775     1.0  0.79246  0.56108  0.17431  1.0000
  C   C3776     1.0  0.99348  0.53455  0.19263  1.0000
  C   C3777     1.0  0.80559  0.54676  0.12864  1.0000
  C   C3778     1.0  0.86850  0.50777  0.08035  1.0000
  C   C3779     1.0  0.86161  0.50710  0.20086  1.0000
  H   H3017     1.0  0.67589  0.78293  0.22715  1.0000
  C   C3780     1.0  0.84345  0.52812  0.11244  1.0000
  H   H3018     1.0  0.88189  0.57018  0.12023  1.0000
  H   H3019     1.0  0.91420  0.54740  0.12196  1.0000
  H   H3020     1.0  0.91941  0.52382  0.15257  1.0000
  H   H3021     1.0  0.89343  0.52389  0.18208  1.0000
  C   C3781     1.0  0.82711  0.52055  0.11338  1.0000
  C   C3782     1.0  0.67974  0.55144  0.14419  1.0000
  C   C3783     1.0  0.70558  0.52740  0.12887  1.0000
  C   C3784     1.0  0.69289  0.55881  0.20223  1.0000
  C   C3785     1.0  0.91068  0.52808  0.22087  1.0000
  H   H3022     1.0  0.86522  0.55641  0.08150  1.0000
  H   H3023     1.0  0.86254  0.50709  0.18567  1.0000
  C   C3786     1.0  0.69369  0.56253  0.14252  1.0000
  H   H3024     1.0  0.92297  0.49728  0.22905  1.0000
  H   H3025     1.0  0.84128  0.52726  0.07412  1.0000
  H   H3026     1.0  0.88143  0.51317  0.13794  1.0000
  C   C3787     1.0  0.87489  0.49516  0.12158  1.0000
  C   C3788     1.0  0.79989  0.57634  0.17635  1.0000
  H   H3027     1.0  0.67040  0.54905  0.22559  1.0000
  H   H3028     1.0  0.71043  0.51346  0.12418  1.0000
  H   H3029     1.0  0.85322  0.55033  0.12054  1.0000
  H   H3030     1.0  0.66270  0.58388  0.17813  1.0000
  H   H3031     1.0  0.84343  0.51674  0.04365  1.0000
  H   H3032     1.0  0.76557  0.54292  0.21384  1.0000
  C   C3789     1.0  0.91362  0.55438  0.07827  1.0000
  C   C3790     1.0  0.89795  0.54451  0.22733  1.0000
  P   P126      1.0  0.86770  0.51560  0.10246  1.0000
  H   H3033     1.0  0.92463  0.56323  0.07202  1.0000
  H   H3034     1.0  0.80074  0.49394  0.00630  1.0000
  H   H3035     1.0  0.83037  0.52303  0.18312  1.0000
  H   H3036     1.0  0.68968  0.57585  0.14821  1.0000
  H   H3037     1.0  0.88496  0.59920  0.19599  1.0000
  C   C3791     1.0  0.71933  0.53852  0.12731  1.0000
  C   C3792     1.0  0.80611  0.52024  0.23310  1.0000
  Fe  Fe252     1.0  0.74795  0.50012  0.16596  1.0000
  C   C3793     1.0  0.73962  0.61236  0.22740  1.0000
  H   H3038     1.0  0.82758  0.56755  0.22047  1.0000
  H   H3039     1.0  0.74525  0.62486  0.22754  1.0000
  C   C3794     1.0  0.77709  0.54056  0.22178  1.0000
  H   H3040     1.0  0.95290  0.52150  0.22399  1.0000
  C   C3795     1.0  0.84094  0.58997  0.22281  1.0000
  H   H3041     1.0  0.68936  0.67375  0.21881  1.0000
  H   H3042     1.0  0.76780  0.56927  0.22910  1.0000
  H   H3043     1.0  0.85788  0.61075  0.22228  1.0000
  H   H3044     1.0  0.66663  0.61130  0.20969  1.0000
  C   C3796     1.0  0.69522  0.67199  0.23173  1.0000
  H   H3045     1.0  0.85438  0.53755  0.23243  1.0000
  C   C3797     1.0  0.91302  0.50999  0.23387  1.0000
  C   C3798     1.0  0.97773  0.52590  0.23290  1.0000
  H   H3046     1.0  0.82913  0.59480  0.23440  1.0000
  H   H3047     1.0  0.81695  0.50662  0.23419  1.0000
  C   C3799     1.0  0.81211  0.48910  0.03231  1.0000
  C   C3800     1.0  0.86501  0.48917  0.21393  1.0000
  C   C3801     1.0  0.70256  0.68710  0.23430  1.0000
  H   H3048     1.0  0.86193  0.67535  0.32543  1.0000
  Fe  Fe253     1.0  0.84902  0.54239  0.29080  1.0000
  S   S504      1.0  0.83642  0.54829  0.32114  1.0000
  S   S505      1.0  0.87893  0.52304  0.28458  1.0000
  Fe  Fe254     1.0  0.81199  0.56299  0.27564  1.0000
  S   S506      1.0  0.79655  0.57096  0.30458  1.0000
  H   H3049     1.0  0.76330  0.91425  0.43031  1.0000
  Fe  Fe255     1.0  0.82453  0.57867  0.30554  1.0000
  S   S507      1.0  0.82101  0.60628  0.31709  1.0000
  S   S508      1.0  0.83904  0.57343  0.27522  1.0000
  C   C3802     1.0  0.73521  0.67036  0.34594  1.0000
  C   C3803     1.0  0.68301  0.52490  0.25981  1.0000
  C   C3804     1.0  0.80163  0.57347  0.35989  1.0000
  Fe  Fe256     1.0  0.85545  0.86912  0.45616  1.0000
  S   S509      1.0  0.83941  0.89653  0.43914  1.0000
  S   S510      1.0  0.88767  0.85803  0.44494  1.0000
  H   H3050     1.0  0.90470  0.49459  0.26351  1.0000
  C   C3805     1.0  0.82023  0.93547  0.40308  1.0000
  Fe  Fe257     1.0  0.81591  0.87942  0.44455  1.0000
  S   S511      1.0  0.80153  0.88486  0.41884  1.0000
  C   C3806     1.0  0.88720  0.54286  0.24660  1.0000
  S   S512      1.0  0.83311  0.85129  0.45934  1.0000
  Fe  Fe258     1.0  0.90745  0.66676  0.38205  1.0000
  S   S513      1.0  0.87886  0.68178  0.39802  1.0000
  S   S514      1.0  0.93616  0.66709  0.38961  1.0000
  Fe  Fe259     1.0  0.88713  0.64781  0.36091  1.0000
  S   S515      1.0  0.85718  0.66147  0.37544  1.0000
  S   S516      1.0  0.89182  0.62801  0.33930  1.0000
  Fe  Fe260     1.0  0.86898  0.68864  0.36946  1.0000
  S   S517      1.0  0.84942  0.71699  0.35784  1.0000
  Fe  Fe261     1.0  0.86942  0.65342  0.40262  1.0000
  S   S518      1.0  0.85033  0.64156  0.43069  1.0000
  S   S519      1.0  0.89847  0.67583  0.35270  1.0000
  S   S520      1.0  0.89872  0.63748  0.38883  1.0000
  Fe  Fe262     1.0  0.73533  0.78819  0.38559  1.0000
  S   S521      1.0  0.73834  0.76213  0.41026  1.0000
  S   S522      1.0  0.73185  0.78730  0.35561  1.0000
  Fe  Fe263     1.0  0.73716  0.81637  0.41001  1.0000
  S   S523      1.0  0.74000  0.79275  0.43676  1.0000
  S   S524      1.0  0.73457  0.84846  0.40894  1.0000
  Fe  Fe264     1.0  0.76096  0.77512  0.41566  1.0000
  S   S525      1.0  0.78816  0.75536  0.42439  1.0000
  Fe  Fe265     1.0  0.71706  0.78193  0.42900  1.0000
  S   S526      1.0  0.69124  0.77064  0.44922  1.0000
  S   S527      1.0  0.76007  0.79961  0.38936  1.0000
  S   S528      1.0  0.71214  0.80720  0.40390  1.0000
  Fe  Fe266     1.0  0.82495  0.90479  0.46813  1.0000
  C   C3807     1.0  0.69837  0.55534  0.26378  1.0000
  H   H3051     1.0  0.94932  0.83528  0.45806  1.0000
  H   H3052     1.0  0.67591  0.60193  0.25194  1.0000
  H   H3053     1.0  0.73974  0.63395  0.26376  1.0000
  C   C3808     1.0  0.93975  0.68723  0.39720  1.0000
  C   C3809     1.0  0.93138  0.70661  0.38949  1.0000
  C   C3810     1.0  0.94781  0.71881  0.40833  1.0000
  C   C3811     1.0  0.95577  0.69943  0.41641  1.0000
  C   C3812     1.0  0.95213  0.68374  0.41051  1.0000
  H   H3054     1.0  0.96518  0.69650  0.42681  1.0000
  H   H3055     1.0  0.95875  0.66881  0.41647  1.0000
  C   C3813     1.0  0.83153  0.72706  0.37625  1.0000
  C   C3814     1.0  0.81716  0.74372  0.37126  1.0000
  C   C3815     1.0  0.80337  0.75230  0.38598  1.0000
  C   C3816     1.0  0.80439  0.74455  0.40564  1.0000
  C   C3817     1.0  0.81883  0.72804  0.41055  1.0000
  C   C3818     1.0  0.83197  0.71899  0.39595  1.0000
  H   H3056     1.0  0.81677  0.75002  0.35603  1.0000
  H   H3057     1.0  0.79230  0.76513  0.38207  1.0000
  H   H3058     1.0  0.81991  0.72225  0.42569  1.0000
  H   H3059     1.0  0.84282  0.70614  0.39998  1.0000
  H   H3060     1.0  0.71509  0.69703  0.25295  1.0000
  H   H3061     1.0  0.69547  0.74162  0.42232  1.0000
  H   H3062     1.0  0.72892  0.98238  0.45755  1.0000
  H   H3063     1.0  0.68629  0.81834  0.30816  1.0000
  C   C3819     1.0  0.68350  0.74631  0.41448  1.0000
  C   C3820     1.0  0.69011  0.59346  0.27688  1.0000
  C   C3821     1.0  0.66324  0.80432  0.36342  1.0000
  C   C3822     1.0  0.84089  0.73172  0.48257  1.0000
  H   H3064     1.0  0.71754  0.77310  0.47273  1.0000
  H   H3065     1.0  0.90109  0.56195  0.26910  1.0000
  C   C3823     1.0  0.70065  0.84911  0.46414  1.0000
  C   C3824     1.0  0.73762  0.98405  0.40406  1.0000
  C   C3825     1.0  0.72488  0.56135  0.28402  1.0000
  C   C3826     1.0  0.67739  0.76623  0.40673  1.0000
  C   C3827     1.0  0.86164  0.63793  0.45053  1.0000
  S   S529      1.0  0.79436  0.57176  0.25164  1.0000
  H   H3066     1.0  0.78337  0.98778  0.46115  1.0000
  C   C3828     1.0  0.80250  0.53948  0.37592  1.0000
  C   C3829     1.0  0.70981  0.68500  0.25113  1.0000
  C   C3830     1.0  0.66150  0.77260  0.39711  1.0000
  C   C3831     1.0  0.82207  0.68662  0.45373  1.0000
  C   C3832     1.0  0.89749  0.83477  0.45778  1.0000
  C   C3833     1.0  0.70065  0.83418  0.45502  1.0000
  C   C3834     1.0  0.90785  0.70215  0.47123  1.0000
  H   H3067     1.0  0.74130  0.89297  0.43115  1.0000
  C   C3835     1.0  0.92504  0.80694  0.46125  1.0000
  C   C3836     1.0  0.91670  0.82523  0.45080  1.0000
  H   H3068     1.0  0.68765  0.81361  0.36823  1.0000
  H   H3069     1.0  0.75319  0.64127  0.34609  1.0000
  H   H3070     1.0  0.94000  0.79985  0.45603  1.0000
  H   H3071     1.0  0.92517  0.83202  0.43731  1.0000
  H   H3072     1.0  0.97170  0.55578  0.26750  1.0000
  H   H3073     1.0  0.68899  0.64325  0.24417  1.0000
  C   C3837     1.0  0.98386  0.81533  0.47508  1.0000
  H   H3074     1.0  0.77257  0.55207  0.28870  1.0000
  H   H3075     1.0  0.68502  0.77658  0.40845  1.0000
  C   C3838     1.0  0.69758  0.74251  0.35451  1.0000
  C   C3839     1.0  0.75718  0.55141  0.29233  1.0000
  C   C3840     1.0  0.78414  0.87284  0.41651  1.0000
  C   C3841     1.0  0.77971  0.85559  0.42932  1.0000
  C   C3842     1.0  0.76501  0.84728  0.42676  1.0000
  C   C3843     1.0  0.75474  0.85639  0.41154  1.0000
  C   C3844     1.0  0.75943  0.87343  0.39881  1.0000
  C   C3845     1.0  0.77421  0.88142  0.40109  1.0000
  H   H3076     1.0  0.78744  0.84876  0.44119  1.0000
  H   H3077     1.0  0.76126  0.83421  0.43682  1.0000
  H   H3078     1.0  0.75149  0.88060  0.38714  1.0000
  H   H3079     1.0  0.77762  0.89466  0.39111  1.0000
  C   C3846     1.0  0.71953  0.94714  0.43594  1.0000
  H   H3080     1.0  0.82764  0.94657  0.42473  1.0000
  H   H3081     1.0  0.77903  0.55801  0.36210  1.0000
  C   C3847     1.0  0.84096  0.61126  0.32380  1.0000
  C   C3848     1.0  0.86026  0.60616  0.31366  1.0000
  C   C3849     1.0  0.87565  0.61148  0.31852  1.0000
  C   C3850     1.0  0.87197  0.62156  0.33381  1.0000
  C   C3851     1.0  0.85270  0.62627  0.34421  1.0000
  C   C3852     1.0  0.83726  0.62140  0.33904  1.0000
  H   H3082     1.0  0.86327  0.59845  0.30183  1.0000
  H   H3083     1.0  0.89049  0.60777  0.31041  1.0000
  H   H3084     1.0  0.84963  0.63397  0.35602  1.0000
  H   H3085     1.0  0.82238  0.62556  0.34688  1.0000
  C   C3853     1.0  0.67441  0.73251  0.41186  1.0000
  C   C3854     1.0  0.89308  0.53847  0.31996  1.0000
  H   H3086     1.0  0.88989  0.64147  0.43259  1.0000
  C   C3855     1.0  0.90932  0.92134  0.46984  1.0000
  C   C3856     1.0  0.72924  0.60265  0.24465  1.0000
  H   H3087     1.0  0.71304  0.51004  0.25203  1.0000
  H   H3088     1.0  0.70548  0.90565  0.43544  1.0000
  H   H3089     1.0  0.83537  0.93009  0.39653  1.0000
  H   H3090     1.0  0.82748  0.65754  0.29514  1.0000
  C   C3857     1.0  0.82831  0.66437  0.30656  1.0000
  C   C3858     1.0  0.84852  0.94054  0.48013  1.0000
  C   C3859     1.0  0.71826  0.75294  0.37005  1.0000
  C   C3860     1.0  0.71968  0.76930  0.35483  1.0000
  C   C3861     1.0  0.71106  0.77150  0.33882  1.0000
  C   C3862     1.0  0.69947  0.75851  0.33894  1.0000
  C   C3863     1.0  0.70010  0.49371  0.31028  1.0000
  H   H3091     1.0  0.72523  0.75074  0.38220  1.0000
  H   H3092     1.0  0.71287  0.78361  0.32659  1.0000
  C   C3864     1.0  0.85070  0.63467  0.46967  1.0000
  C   C3865     1.0  0.69496  0.65482  0.24606  1.0000
  C   C3866     1.0  0.81368  0.80612  0.45878  1.0000
  C   C3867     1.0  0.79589  0.80057  0.46117  1.0000
  C   C3868     1.0  0.79131  0.79564  0.44563  1.0000
  C   C3869     1.0  0.80405  0.79713  0.42740  1.0000
  C   C3870     1.0  0.82151  0.80364  0.42455  1.0000
  C   C3871     1.0  0.82663  0.80734  0.44060  1.0000
  P   P127      1.0  0.83733  0.80663  0.40061  1.0000
  C   C3872     1.0  0.85472  0.78359  0.39899  1.0000
  C   C3873     1.0  0.82238  0.81387  0.38225  1.0000
  C   C3874     1.0  0.82859  0.80656  0.36491  1.0000
  C   C3875     1.0  0.81643  0.81176  0.35125  1.0000
  C   C3876     1.0  0.79825  0.82464  0.35458  1.0000
  C   C3877     1.0  0.79233  0.83259  0.37142  1.0000
  C   C3878     1.0  0.80441  0.82736  0.38512  1.0000
  C   C3879     1.0  0.87350  0.78066  0.40299  1.0000
  C   C3880     1.0  0.88727  0.76322  0.40081  1.0000
  C   C3881     1.0  0.88226  0.74840  0.39507  1.0000
  C   C3882     1.0  0.86348  0.75095  0.39164  1.0000
  C   C3883     1.0  0.84960  0.76830  0.39391  1.0000
  C   C3884     1.0  0.84955  0.82670  0.39646  1.0000
  C   C3885     1.0  0.84083  0.84262  0.40583  1.0000
  C   C3886     1.0  0.85075  0.85767  0.40319  1.0000
  C   C3887     1.0  0.86919  0.85722  0.39086  1.0000
  C   C3888     1.0  0.87751  0.84197  0.38068  1.0000
  C   C3889     1.0  0.86761  0.82691  0.38324  1.0000
  C   C3890     1.0  0.80719  0.53513  0.24192  1.0000
  C   C3891     1.0  0.76749  0.62164  0.27218  1.0000
  H   H3093     1.0  0.77781  0.79075  0.44766  1.0000
  H   H3094     1.0  0.80014  0.79333  0.41551  1.0000
  H   H3095     1.0  0.84032  0.81171  0.43894  1.0000
  H   H3096     1.0  0.84271  0.79676  0.36191  1.0000
  H   H3097     1.0  0.82106  0.80566  0.33815  1.0000
  H   H3098     1.0  0.78869  0.82844  0.34416  1.0000
  H   H3099     1.0  0.77821  0.84256  0.37406  1.0000
  H   H3100     1.0  0.79956  0.83364  0.39810  1.0000
  H   H3101     1.0  0.87759  0.79181  0.40773  1.0000
  H   H3102     1.0  0.90187  0.76113  0.40350  1.0000
  H   H3103     1.0  0.89289  0.73488  0.39333  1.0000
  H   H3104     1.0  0.85986  0.73948  0.38696  1.0000
  H   H3105     1.0  0.83500  0.76981  0.39146  1.0000
  H   H3106     1.0  0.82637  0.84352  0.41517  1.0000
  H   H3107     1.0  0.84405  0.86976  0.41068  1.0000
  H   H3108     1.0  0.87689  0.86882  0.38908  1.0000
  H   H3109     1.0  0.89163  0.84182  0.37079  1.0000
  H   H3110     1.0  0.87412  0.81537  0.37499  1.0000
  C   C3892     1.0  0.90227  0.69415  0.43738  1.0000
  C   C3893     1.0  0.91532  0.68069  0.44824  1.0000
  C   C3894     1.0  0.75581  0.64784  0.29765  1.0000
  H   H3111     1.0  0.96890  0.80732  0.39908  1.0000
  C   C3895     1.0  0.89416  0.71549  0.46077  1.0000
  C   C3896     1.0  0.89178  0.71152  0.44354  1.0000
  H   H3112     1.0  0.67410  0.74833  0.24289  1.0000
  C   C3897     1.0  0.89004  0.55712  0.32396  1.0000
  C   C3898     1.0  0.88760  0.75928  0.45456  1.0000
  C   C3899     1.0  0.87548  0.77782  0.45613  1.0000
  C   C3900     1.0  0.88201  0.79492  0.44571  1.0000
  C   C3901     1.0  0.90062  0.79363  0.43359  1.0000
  C   C3902     1.0  0.91270  0.77526  0.43191  1.0000
  C   C3903     1.0  0.90617  0.75812  0.44224  1.0000
  H   H3113     1.0  0.86555  0.51709  0.36159  1.0000
  H   H3114     1.0  0.92507  0.53255  0.26053  1.0000
  C   C3904     1.0  0.81121  0.67117  0.31947  1.0000
  P   P128      1.0  0.85383  0.55242  0.37810  1.0000
  C   C3905     1.0  0.85470  0.73944  0.46693  1.0000
  C   C3906     1.0  0.78011  0.62211  0.28383  1.0000
  H   H3115     1.0  0.67945  0.71704  0.41749  1.0000
  C   C3907     1.0  0.81635  0.74260  0.46244  1.0000
  C   C3908     1.0  0.83001  0.75007  0.44673  1.0000
  C   C3909     1.0  0.84906  0.74859  0.44897  1.0000
  H   H3116     1.0  0.90038  0.69104  0.42414  1.0000
  H   H3117     1.0  0.67714  0.51344  0.25757  1.0000
  H   H3118     1.0  0.70690  0.72653  0.38127  1.0000
  H   H3119     1.0  0.70253  0.54754  0.30486  1.0000
  H   H3120     1.0  0.88171  0.72164  0.43492  1.0000
  C   C3910     1.0  0.86784  0.50445  0.43160  1.0000
  H   H3121     1.0  0.90561  0.63662  0.46076  1.0000
  H   H3122     1.0  0.90575  0.80688  0.42567  1.0000
  H   H3123     1.0  0.92722  0.77425  0.42269  1.0000
  H   H3124     1.0  0.91570  0.74400  0.44068  1.0000
  S   S530      1.0  0.82325  0.53160  0.28873  1.0000
  C   C3911     1.0  0.87273  0.52822  0.35142  1.0000
  H   H3125     1.0  0.83824  0.51545  0.44578  1.0000
  C   C3912     1.0  0.73525  0.90817  0.43230  1.0000
  C   C3913     1.0  0.70330  0.52310  0.25645  1.0000
  H   H3126     1.0  0.80160  0.74376  0.46067  1.0000
  H   H3127     1.0  0.82582  0.75686  0.43277  1.0000
  H   H3128     1.0  0.85946  0.75436  0.43659  1.0000
  H   H3129     1.0  0.79604  0.52666  0.37977  1.0000
  H   H3130     1.0  0.97303  0.79240  0.46928  1.0000
  Fe  Fe267     1.0  0.80970  0.54014  0.31763  1.0000
  H   H3131     1.0  0.89668  0.49715  0.41395  1.0000
  H   H3132     1.0  0.96793  0.82929  0.42051  1.0000
  H   H3133     1.0  0.69866  0.62437  0.35262  1.0000
  C   C3914     1.0  0.79329  0.55279  0.24070  1.0000
  C   C3915     1.0  0.85241  0.68326  0.46413  1.0000
  C   C3916     1.0  0.98035  0.86668  0.43636  1.0000
  C   C3917     1.0  0.69704  0.81613  0.46626  1.0000
  C   C3918     1.0  0.73458  0.68964  0.34682  1.0000
  C   C3919     1.0  0.97932  0.80331  0.40866  1.0000
  C   C3920     1.0  0.95423  0.84881  0.45086  1.0000
  H   H3134     1.0  0.79399  0.51566  0.28011  1.0000
  P   P129      1.0  0.70874  0.57419  0.26718  1.0000
  C   C3921     1.0  0.77046  0.70370  0.42459  1.0000
  C   C3922     1.0  0.75881  0.69029  0.42658  1.0000
  C   C3923     1.0  0.75534  0.67687  0.44424  1.0000
  H   H3135     1.0  0.77324  0.71421  0.41102  1.0000
  H   H3136     1.0  0.75252  0.69031  0.41445  1.0000
  H   H3137     1.0  0.74629  0.66648  0.44580  1.0000
  Fe  Fe268     1.0  0.99195  0.73907  0.46473  1.0000
  H   H3138     1.0  0.87747  0.55565  0.25146  1.0000
  C   C3924     1.0  0.85638  0.57441  0.38397  1.0000
  C   C3925     1.0  0.87507  0.57843  0.38110  1.0000
  C   C3926     1.0  0.87716  0.59503  0.38633  1.0000
  C   C3927     1.0  0.86071  0.60740  0.39502  1.0000
  C   C3928     1.0  0.84210  0.60331  0.39836  1.0000
  C   C3929     1.0  0.83991  0.58681  0.39296  1.0000
  C   C3930     1.0  0.86989  0.54684  0.35568  1.0000
  H   H3139     1.0  0.66779  0.56955  0.27208  1.0000
  C   C3931     1.0  0.79333  0.49825  0.34340  1.0000
  C   C3932     1.0  0.87833  0.56136  0.34166  1.0000
  H   H3140     1.0  0.92876  0.67456  0.47320  1.0000
  H   H3141     1.0  0.89155  0.59841  0.38357  1.0000
  H   H3142     1.0  0.86237  0.62012  0.39928  1.0000
  H   H3143     1.0  0.82947  0.61294  0.40525  1.0000
  H   H3144     1.0  0.82543  0.58367  0.39604  1.0000
  C   C3933     1.0  0.67598  0.61340  0.30162  1.0000
  H   H3145     1.0  0.66638  0.84489  0.43495  1.0000
  H   H3146     1.0  0.87551  0.57609  0.34415  1.0000
  C   C3934     1.0  0.70774  0.73927  0.36956  1.0000
  C   C3935     1.0  0.71098  0.53825  0.25840  1.0000
  H   H3147     1.0  0.76298  0.73064  0.46004  1.0000
  C   C3936     1.0  0.68158  0.66299  0.30859  1.0000
  C   C3937     1.0  0.78594  0.50474  0.28068  1.0000
  H   H3148     1.0  0.79447  0.61237  0.28297  1.0000
  H   H3149     1.0  0.75068  0.68644  0.26990  1.0000
  C   C3938     1.0  0.74906  0.63440  0.27312  1.0000
  C   C3939     1.0  0.84926  0.51684  0.43241  1.0000
  C   C3940     1.0  0.70211  0.65270  0.26294  1.0000
  C   C3941     1.0  0.67037  0.54161  0.26565  1.0000
  C   C3942     1.0  0.75311  0.95712  0.45780  1.0000
  H   H3150     1.0  0.69692  0.80465  0.45916  1.0000
  C   C3943     1.0  0.84775  0.67431  0.32364  1.0000
  H   H3151     1.0  0.76185  0.87282  0.46216  1.0000
  C   C3944     1.0  0.95611  0.49891  0.26419  1.0000
  C   C3945     1.0  0.69391  0.63512  0.34029  1.0000
  H   H3152     1.0  0.72103  0.70057  0.34629  1.0000
  H   H3153     1.0  0.76824  0.71476  0.37787  1.0000
  H   H3154     1.0  0.79342  0.95821  0.44006  1.0000
  H   H3155     1.0  0.73137  0.73586  0.29811  1.0000
  H   H3156     1.0  0.79016  0.84720  0.48341  1.0000
  H   H3157     1.0  0.77572  0.77061  0.34174  1.0000
  H   H3158     1.0  0.90319  0.92664  0.44100  1.0000
  H   H3159     1.0  0.77211  0.61135  0.26238  1.0000
  C   C3946     1.0  0.70711  0.93478  0.43679  1.0000
  S   S531      1.0  0.80020  0.88975  0.47220  1.0000
  C   C3947     1.0  0.76948  0.66148  0.34841  1.0000
  C   C3948     1.0  0.76564  0.73139  0.47382  1.0000
  C   C3949     1.0  0.72892  0.72251  0.29570  1.0000
  C   C3950     1.0  0.79350  0.65088  0.40622  1.0000
  C   C3951     1.0  0.80473  0.65916  0.41376  1.0000
  C   C3952     1.0  0.81118  0.67613  0.40298  1.0000
  H   H3160     1.0  0.78863  0.63764  0.41458  1.0000
  H   H3161     1.0  0.80863  0.65235  0.42789  1.0000
  H   H3162     1.0  0.82026  0.68225  0.40868  1.0000
  H   H3163     1.0  0.72211  0.66642  0.34470  1.0000
  H   H3164     1.0  0.76323  0.83268  0.48157  1.0000
  H   H3165     1.0  0.69208  0.76087  0.32699  1.0000
  H   H3166     1.0  0.76030  0.66659  0.47356  1.0000
  C   C3953     1.0  0.70975  0.66772  0.26553  1.0000
  C   C3954     1.0  0.78101  0.94782  0.42115  1.0000
  P   P130      1.0  0.71939  0.66450  0.28721  1.0000
  C   C3955     1.0  0.70173  0.65538  0.30798  1.0000
  C   C3956     1.0  0.84246  0.68459  0.44945  1.0000
  H   H3167     1.0  0.75621  0.71695  0.27516  1.0000
  H   H3168     1.0  0.81726  0.80973  0.47097  1.0000
  C   C3957     1.0  0.70781  0.64127  0.32390  1.0000
  H   H3169     1.0  0.75096  0.57150  0.26617  1.0000
  C   C3958     1.0  0.72255  0.68769  0.29001  1.0000
  C   C3959     1.0  0.74305  0.64762  0.28589  1.0000
  C   C3960     1.0  0.87931  0.63309  0.48241  1.0000
  C   C3961     1.0  0.81233  0.67901  0.33501  1.0000
  C   C3962     1.0  0.71169  0.71602  0.30547  1.0000
  C   C3963     1.0  0.70842  0.69875  0.30263  1.0000
  C   C3964     1.0  0.73969  0.69455  0.27990  1.0000
  C   C3965     1.0  0.77099  0.74358  0.36146  1.0000
  H   H3170     1.0  0.85980  0.50592  0.25532  1.0000
  C   C3966     1.0  0.79637  0.95103  0.42784  1.0000
  C   C3967     1.0  0.74998  0.53899  0.30946  1.0000
  C   C3968     1.0  0.75132  0.69490  0.34857  1.0000
  H   H3171     1.0  0.72322  0.63511  0.32382  1.0000
  C   C3969     1.0  0.72215  0.58626  0.24464  1.0000
  S   S532      1.0  0.81405  0.93580  0.47362  1.0000
  H   H3172     1.0  0.91059  0.70491  0.48424  1.0000
  H   H3173     1.0  0.76487  0.52507  0.26482  1.0000
  H   H3174     1.0  0.70083  0.72436  0.31537  1.0000
  H   H3175     1.0  0.69487  0.69423  0.31039  1.0000
  C   C3970     1.0  0.93010  0.54377  0.26422  1.0000
  C   C3971     1.0  0.91651  0.56057  0.26883  1.0000
  C   C3972     1.0  0.92276  0.57551  0.27310  1.0000
  C   C3973     1.0  0.94267  0.57371  0.27260  1.0000
  H   H3176     1.0  0.73353  0.85695  0.47111  1.0000
  H   H3177     1.0  0.96630  0.52388  0.29851  1.0000
  H   H3178     1.0  0.91219  0.58854  0.27662  1.0000
  H   H3179     1.0  0.94754  0.58545  0.27564  1.0000
  H   H3180     1.0  0.70346  0.83654  0.43922  1.0000
  S   S533      1.0  0.78925  0.52379  0.34126  1.0000
  H   H3181     1.0  0.70163  0.63938  0.27400  1.0000
  H   H3182     1.0  0.82841  0.52396  0.38698  1.0000
  P   P131      1.0  0.79059  0.68735  0.35239  1.0000
  H   H3183     1.0  0.88806  0.56881  0.37476  1.0000
  C   C3974     1.0  0.77473  0.72315  0.36416  1.0000
  C   C3975     1.0  0.88218  0.50654  0.41448  1.0000
  C   C3976     1.0  0.88648  0.82581  0.47504  1.0000
  C   C3977     1.0  0.91830  0.68481  0.46501  1.0000
  C   C3978     1.0  0.73865  0.97162  0.46616  1.0000
  C   C3979     1.0  0.74737  0.89568  0.47831  1.0000
  H   H3184     1.0  0.88936  0.52265  0.38512  1.0000
  C   C3980     1.0  0.95000  0.54155  0.26432  1.0000
  C   C3981     1.0  0.96636  0.88398  0.43248  1.0000
  Fe  Fe269     1.0  0.96129  0.73596  0.44328  1.0000
  C   C3982     1.0  0.78885  0.65950  0.38781  1.0000
  C   C3983     1.0  0.93573  0.72232  0.39474  1.0000
  C   C3984     1.0  0.74288  0.71184  0.28282  1.0000
  C   C3985     1.0  0.88987  0.52487  0.25973  1.0000
  H   H3185     1.0  0.92217  0.70947  0.37893  1.0000
  H   H3186     1.0  0.72478  0.52799  0.32722  1.0000
  C   C3986     1.0  0.95629  0.55686  0.26809  1.0000
  C   C3987     1.0  0.79289  0.55719  0.36589  1.0000
  C   C3988     1.0  0.97500  0.79905  0.48030  1.0000
  C   C3989     1.0  0.68564  0.49144  0.30181  1.0000
  C   C3990     1.0  0.97870  0.81564  0.42106  1.0000
  C   C3991     1.0  0.71499  0.91531  0.43486  1.0000
  H   H3187     1.0  0.99316  0.77575  0.39972  1.0000
  H   H3188     1.0  0.75978  0.53016  0.31909  1.0000
  H   H3189     1.0  0.85989  0.66007  0.29911  1.0000
  H   H3190     1.0  0.75157  0.65798  0.30749  1.0000
  C   C3992     1.0  0.71773  0.54887  0.30133  1.0000
  C   C3993     1.0  0.76940  0.51007  0.27223  1.0000
  H   H3191     1.0  0.88593  0.50993  0.33003  1.0000
  H   H3192     1.0  0.67597  0.61674  0.31541  1.0000
  H   H3193     1.0  0.92988  0.73725  0.38809  1.0000
  H   H3194     1.0  0.78291  0.65037  0.34896  1.0000
  S   S534      1.0  0.68277  0.72623  0.35557  1.0000
  H   H3195     1.0  0.87288  0.80921  0.44731  1.0000
  H   H3196     1.0  0.66499  0.85859  0.39999  1.0000
  C   C3994     1.0  0.82085  0.53803  0.37997  1.0000
  H   H3197     1.0  0.79458  0.58697  0.35144  1.0000
  S   S535      1.0  0.98591  0.71410  0.45532  1.0000
  C   C3995     1.0  0.78548  0.93922  0.40472  1.0000
  C   C3996     1.0  0.76335  0.67696  0.45997  1.0000
  H   H3198     1.0  0.71320  0.96213  0.43764  1.0000
  H   H3199     1.0  0.82688  0.58458  0.35858  1.0000
  H   H3200     1.0  0.92479  0.86581  0.45075  1.0000
  H   H3201     1.0  0.90165  0.53532  0.30601  1.0000
  C   C3997     1.0  0.84658  0.66584  0.30873  1.0000
  H   H3202     1.0  0.73324  0.97211  0.40087  1.0000
  H   H3203     1.0  0.67659  0.67405  0.29655  1.0000
  C   C3998     1.0  0.80642  0.68490  0.38467  1.0000
  H   H3204     1.0  0.80357  0.71813  0.31947  1.0000
  H   H3205     1.0  0.72678  0.53672  0.25552  1.0000
  H   H3206     1.0  0.86119  0.77902  0.46579  1.0000
  H   H3207     1.0  0.77394  0.93706  0.39889  1.0000
  H   H3208     1.0  0.80840  0.92538  0.38380  1.0000
  P   P132      1.0  0.96757  0.51972  0.25876  1.0000
  C   C3999     1.0  0.81130  0.68817  0.47265  1.0000
  S   S536      1.0  0.95385  0.73892  0.41373  1.0000
  C   C4000     1.0  0.75266  0.65626  0.34675  1.0000
  C   C4001     1.0  0.66356  0.80572  0.32933  1.0000
  C   C4002     1.0  0.81996  0.57207  0.36396  1.0000
  H   H3209     1.0  0.75023  0.70998  0.34927  1.0000
  H   H3210     1.0  0.70107  0.58968  0.30325  1.0000
  H   H3211     1.0  0.68377  0.90873  0.47893  1.0000
  C   C4003     1.0  0.68816  0.81770  0.33766  1.0000
  H   H3212     1.0  0.81177  0.69796  0.37653  1.0000
  H   H3213     1.0  0.78035  0.65261  0.38234  1.0000
  H   H3214     1.0  0.97102  0.89767  0.42546  1.0000
  H   H3215     1.0  0.89632  0.56848  0.31315  1.0000
  H   H3216     1.0  0.78410  0.63533  0.30567  1.0000
  C   C4004     1.0  0.66774  0.65690  0.32500  1.0000
  H   H3217     1.0  0.85065  0.68309  0.43493  1.0000
  C   C4005     1.0  0.85913  0.53304  0.39864  1.0000
  C   C4006     1.0  0.79525  0.67665  0.37684  1.0000
  C   C4007     1.0  0.88431  0.52407  0.33362  1.0000
  C   C4008     1.0  0.77501  0.69047  0.45810  1.0000
  C   C4009     1.0  0.77863  0.70363  0.44019  1.0000
  C   C4010     1.0  0.80503  0.93286  0.39589  1.0000
  S   S537      1.0  0.93905  0.73134  0.47114  1.0000
  C   C4011     1.0  0.78648  0.71371  0.34908  1.0000
  H   H3218     1.0  0.70314  0.86313  0.45520  1.0000
  H   H3219     1.0  0.79687  0.75415  0.31504  1.0000
  S   S538      1.0  0.96892  0.76150  0.45019  1.0000
  H   H3220     1.0  0.76187  0.75088  0.37304  1.0000
  C   C4012     1.0  0.88139  0.63883  0.44733  1.0000
  C   C4013     1.0  0.67605  0.60496  0.26589  1.0000
  H   H3221     1.0  0.83064  0.54097  0.41699  1.0000
  C   C4014     1.0  0.74476  0.56250  0.27959  1.0000
  C   C4015     1.0  0.76895  0.68083  0.34948  1.0000
  C   C4016     1.0  0.86021  0.50627  0.24010  1.0000
  H   H3222     1.0  0.81883  0.53289  0.24965  1.0000
  C   C4017     1.0  0.89027  0.63614  0.46327  1.0000
  C   C4018     1.0  0.99310  0.78558  0.40888  1.0000
  C   C4019     1.0  0.74841  0.87898  0.47135  1.0000
  C   C4020     1.0  0.83071  0.68096  0.33665  1.0000
  H   H3223     1.0  0.70147  0.82342  0.33329  1.0000
  H   H3224     1.0  0.81507  0.68649  0.44227  1.0000
  H   H3225     1.0  0.78756  0.71414  0.43842  1.0000
  H   H3226     1.0  0.69138  0.94027  0.43888  1.0000
  C   C4021     1.0  0.68022  0.81216  0.35754  1.0000
  H   H3227     1.0  0.87159  0.83299  0.48044  1.0000
  H   H3228     1.0  0.74630  0.50026  0.26621  1.0000
  C   C4022     1.0  0.84496  0.53120  0.41605  1.0000
  C   C4023     1.0  0.82956  0.55445  0.37429  1.0000
  C   C4024     1.0  0.87793  0.52091  0.39810  1.0000
  C   C4025     1.0  0.77885  0.75475  0.34375  1.0000
  H   H3229     1.0  0.83200  0.68765  0.34794  1.0000
  C   C4026     1.0  0.79066  0.74547  0.32871  1.0000
  C   C4027     1.0  0.79445  0.72501  0.33133  1.0000
  H   H3230     1.0  0.86829  0.68068  0.46102  1.0000
  C   C4028     1.0  0.98586  0.51265  0.27375  1.0000
  C   C4029     1.0  0.77424  0.63514  0.29661  1.0000
  C   C4030     1.0  0.69014  0.59796  0.29470  1.0000
  H   H3231     1.0  0.79730  0.67016  0.31720  1.0000
  C   C4031     1.0  0.73025  0.53775  0.31398  1.0000
  H   H3232     1.0  0.75979  0.90263  0.47421  1.0000
  C   C4032     1.0  0.73997  0.94018  0.43293  1.0000
  H   H3233     1.0  0.92336  0.66721  0.44344  1.0000
  H   H3234     1.0  0.66314  0.63850  0.35369  1.0000
  C   C4033     1.0  0.67798  0.55676  0.26771  1.0000
  H   H3235     1.0  0.93561  0.89696  0.43416  1.0000
  C   C4034     1.0  0.74771  0.92042  0.43161  1.0000
  C   C4035     1.0  0.76502  0.94295  0.46953  1.0000
  C   C4036     1.0  0.90276  0.50848  0.25334  1.0000
  H   H3236     1.0  0.78561  0.80003  0.47506  1.0000
  P   P133      1.0  0.75577  0.95615  0.43250  1.0000
  P   P134      1.0  0.87957  0.73740  0.46930  1.0000
  C   C4037     1.0  0.91420  0.79825  0.47882  1.0000
  H   H3237     1.0  0.77612  0.93148  0.46349  1.0000
  C   C4038     1.0  0.66329  0.83624  0.42627  1.0000
  H   H3238     1.0  0.72689  0.60774  0.25809  1.0000
  H   H3239     1.0  0.75291  0.76229  0.46971  1.0000
  C   C4039     1.0  0.94030  0.86609  0.44685  1.0000
  H   H3240     1.0  0.83539  0.63413  0.47213  1.0000
  C   C4040     1.0  0.81589  0.94469  0.41896  1.0000
  P   P135      1.0  0.99192  0.82601  0.44970  1.0000
  C   C4041     1.0  0.97437  0.84886  0.44523  1.0000
  C   C4042     1.0  0.69384  0.75978  0.47341  1.0000
  C   C4043     1.0  0.98103  0.51656  0.29270  1.0000
  C   C4044     1.0  0.69736  0.84592  0.48464  1.0000
  Fe  Fe270     1.0  0.96418  0.71129  0.48376  1.0000
  H   H3241     1.0  0.91623  0.93380  0.46651  1.0000
  C   C4045     1.0  0.94638  0.88364  0.43752  1.0000
  C   C4046     1.0  0.99181  0.81019  0.43394  1.0000
  H   H3242     1.0  0.85558  0.92725  0.47467  1.0000
  C   C4047     1.0  0.82837  0.94772  0.48128  1.0000
  C   C4048     1.0  0.89273  0.90151  0.45986  1.0000
  C   C4049     1.0  0.94163  0.49586  0.28121  1.0000
  C   C4050     1.0  0.67390  0.64303  0.34089  1.0000
  H   H3243     1.0  0.93663  0.50630  0.29079  1.0000
  C   C4051     1.0  0.67102  0.90243  0.48192  1.0000
  C   C4052     1.0  0.90192  0.91737  0.45548  1.0000
  Fe  Fe271     1.0  0.94853  0.75501  0.47903  1.0000
  C   C4053     1.0  0.67974  0.81463  0.32354  1.0000
  H   H3244     1.0  0.88703  0.89832  0.44874  1.0000
  H   H3245     1.0  0.99146  0.51417  0.31884  1.0000
  C   C4054     1.0  0.73220  0.87016  0.47630  1.0000
  C   C4055     1.0  0.66184  0.62028  0.27295  1.0000
  H   H3246     1.0  0.87119  0.49339  0.44432  1.0000
  C   C4056     1.0  0.89049  0.88993  0.47871  1.0000
  H   H3247     1.0  0.67035  0.74456  0.47878  1.0000
  H   H3248     1.0  0.82055  0.49558  0.32223  1.0000
  C   C4057     1.0  0.75896  0.49598  0.27303  1.0000
  P   P136      1.0  0.78477  0.69143  0.47857  1.0000
  H   H3249     1.0  0.69630  0.50324  0.32068  1.0000
  H   H3250     1.0  0.76696  0.49606  0.36531  1.0000
  C   C4058     1.0  0.74846  0.98059  0.41870  1.0000
  C   C4059     1.0  0.82180  0.73349  0.48033  1.0000
  C   C4060     1.0  0.75966  0.74960  0.47932  1.0000
  H   H3251     1.0  0.67060  0.49922  0.30562  1.0000
  C   C4061     1.0  0.70773  0.76372  0.48152  1.0000
  S   S539      1.0  0.66377  0.75325  0.30592  1.0000
  H   H3252     1.0  0.88326  0.87774  0.48187  1.0000
  C   C4062     1.0  0.84196  0.68413  0.48310  1.0000
  C   C4063     1.0  0.66254  0.84393  0.40657  1.0000
  C   C4064     1.0  0.66182  0.62453  0.29077  1.0000
  H   H3253     1.0  0.86887  0.54915  0.63818  1.0000
  H   H3254     1.0  0.70301  0.70788  0.59430  1.0000
  S   S540      1.0  0.81459  0.59480  0.68056  1.0000
  C   C4065     1.0  0.73039  0.90327  0.49075  1.0000
  C   C4066     1.0  0.70838  0.84272  0.55011  1.0000
  C   C4067     1.0  0.85953  0.95064  0.48608  1.0000
  H   H3255     1.0  0.85827  0.69514  0.59879  1.0000
  H   H3256     1.0  0.98920  0.60924  0.58410  1.0000
  S   S541      1.0  0.73675  0.75877  0.54281  1.0000
  C   C4068     1.0  0.81932  0.96498  0.48841  1.0000
  C   C4069     1.0  0.77024  0.63491  0.66662  1.0000
  H   H3257     1.0  0.67664  0.63200  0.63962  1.0000
  H   H3258     1.0  0.73628  0.64985  0.61195  1.0000
  Fe  Fe272     1.0  0.86891  0.65766  0.56142  1.0000
  S   S542      1.0  0.85923  0.66834  0.53273  1.0000
  S   S543      1.0  0.88716  0.67419  0.56944  1.0000
  Fe  Fe273     1.0  0.85207  0.62087  0.57165  1.0000
  S   S544      1.0  0.84154  0.62816  0.54347  1.0000
  S   S545      1.0  0.84857  0.59167  0.59154  1.0000
  Fe  Fe274     1.0  0.87027  0.63701  0.52952  1.0000
  C   C4070     1.0  0.69271  0.73483  0.64812  1.0000
  Fe  Fe275     1.0  0.83142  0.65869  0.54931  1.0000
  S   S546      1.0  0.80150  0.67483  0.54410  1.0000
  S   S547      1.0  0.88185  0.62702  0.55718  1.0000
  S   S548      1.0  0.83989  0.65097  0.57854  1.0000
  Fe  Fe276     1.0  0.72504  0.79107  0.53823  1.0000
  H   H3259     1.0  0.68944  0.83499  0.57799  1.0000
  H   H3260     1.0  0.87209  0.91140  0.54145  1.0000
  Fe  Fe277     1.0  0.69253  0.78721  0.57410  1.0000
  S   S549      1.0  0.70166  0.75439  0.58194  1.0000
  C   C4071     1.0  0.85056  0.96800  0.49304  1.0000
  Fe  Fe278     1.0  0.73222  0.75989  0.57433  1.0000
  S   S550      1.0  0.75653  0.74250  0.59007  1.0000
  Fe  Fe279     1.0  0.70559  0.75591  0.54981  1.0000
  S   S551      1.0  0.76980  0.57338  0.70848  1.0000
  S   S552      1.0  0.72285  0.79277  0.56940  1.0000
  S   S553      1.0  0.69392  0.78824  0.54251  1.0000
  C   C4072     1.0  0.90726  0.67707  0.54991  1.0000
  C   C4073     1.0  0.91902  0.69017  0.54887  1.0000
  C   C4074     1.0  0.70834  0.75622  0.50139  1.0000
  H   H3261     1.0  0.94491  0.59171  0.54348  1.0000
  H   H3262     1.0  0.79806  0.62692  0.52305  1.0000
  C   C4075     1.0  0.91137  0.66647  0.53508  1.0000
  H   H3263     1.0  0.91579  0.69855  0.56019  1.0000
  C   C4076     1.0  0.67464  0.78299  0.64473  1.0000
  H   H3264     1.0  0.90231  0.65657  0.53547  1.0000
  C   C4077     1.0  0.78922  0.69276  0.55799  1.0000
  C   C4078     1.0  0.79883  0.69911  0.56904  1.0000
  C   C4079     1.0  0.78868  0.71406  0.57942  1.0000
  C   C4080     1.0  0.76897  0.72266  0.57863  1.0000
  C   C4081     1.0  0.75930  0.71574  0.56812  1.0000
  C   C4082     1.0  0.76940  0.70090  0.55778  1.0000
  H   H3265     1.0  0.81411  0.69272  0.56934  1.0000
  H   H3266     1.0  0.79617  0.71920  0.58771  1.0000
  H   H3267     1.0  0.74392  0.72173  0.56803  1.0000
  H   H3268     1.0  0.76181  0.69580  0.54952  1.0000
  H   H3269     1.0  0.76508  0.68216  0.65586  1.0000
  H   H3270     1.0  0.78329  0.70428  0.51419  1.0000
  C   C4083     1.0  0.68110  0.74767  0.48499  1.0000
  H   H3271     1.0  0.94605  0.54538  0.64548  1.0000
  H   H3272     1.0  0.93169  0.58904  0.51617  1.0000
  S   S554      1.0  0.73871  0.80951  0.51048  1.0000
  C   C4084     1.0  0.76337  0.81658  0.53012  1.0000
  H   H3273     1.0  0.71456  0.64097  0.68903  1.0000
  H   H3274     1.0  0.89890  0.58133  0.52226  1.0000
  H   H3275     1.0  0.75605  0.80796  0.54310  1.0000
  C   C4085     1.0  0.79086  0.63148  0.58240  1.0000
  C   C4086     1.0  0.82283  0.59365  0.65581  1.0000
  C   C4087     1.0  0.82675  0.57599  0.64944  1.0000
  C   C4088     1.0  0.83437  0.57551  0.62957  1.0000
  C   C4089     1.0  0.83802  0.59266  0.61612  1.0000
  C   C4090     1.0  0.83354  0.61033  0.62251  1.0000
  C   C4091     1.0  0.82609  0.61081  0.64231  1.0000
  H   H3276     1.0  0.82422  0.56270  0.65984  1.0000
  H   H3277     1.0  0.83749  0.56185  0.62463  1.0000
  H   H3278     1.0  0.83629  0.62354  0.61235  1.0000
  H   H3279     1.0  0.82306  0.62450  0.64718  1.0000
  H   H3280     1.0  0.74988  0.68963  0.50997  1.0000
  C   C4092     1.0  0.92608  0.89434  0.54816  1.0000
  C   C4093     1.0  0.89485  0.80758  0.48549  1.0000
  H   H3281     1.0  0.87629  0.55501  0.60229  1.0000
  H   H3282     1.0  0.96261  0.77788  0.50392  1.0000
  C   C4094     1.0  0.85775  0.49466  0.69327  1.0000
  H   H3283     1.0  0.86625  0.59109  0.69042  1.0000
  H   H3284     1.0  0.87390  0.70650  0.50440  1.0000
  C   C4095     1.0  0.77857  0.68186  0.64494  1.0000
  H   H3285     1.0  0.78536  0.49728  0.71346  1.0000
  C   C4096     1.0  0.78343  0.81042  0.59078  1.0000
  C   C4097     1.0  0.77067  0.79882  0.60331  1.0000
  C   C4098     1.0  0.77443  0.77880  0.60329  1.0000
  C   C4099     1.0  0.79090  0.77038  0.59076  1.0000
  C   C4100     1.0  0.80374  0.78193  0.57804  1.0000
  C   C4101     1.0  0.79989  0.80205  0.57815  1.0000
  P   P137      1.0  0.82379  0.77106  0.56064  1.0000
  C   C4102     1.0  0.83408  0.74684  0.57291  1.0000
  C   C4103     1.0  0.81486  0.76987  0.53987  1.0000
  C   C4104     1.0  0.82797  0.76866  0.52190  1.0000
  C   C4105     1.0  0.82110  0.76879  0.50543  1.0000
  C   C4106     1.0  0.80123  0.76953  0.50691  1.0000
  C   C4107     1.0  0.78814  0.77074  0.52471  1.0000
  C   C4108     1.0  0.79487  0.77077  0.54120  1.0000
  C   C4109     1.0  0.83665  0.73036  0.56481  1.0000
  C   C4110     1.0  0.84513  0.71178  0.57431  1.0000
  C   C4111     1.0  0.85119  0.70953  0.59181  1.0000
  C   C4112     1.0  0.84817  0.72577  0.60023  1.0000
  C   C4113     1.0  0.83945  0.74435  0.59091  1.0000
  C   C4114     1.0  0.84222  0.78588  0.55132  1.0000
  C   C4115     1.0  0.86075  0.77972  0.55646  1.0000
  C   C4116     1.0  0.87495  0.79117  0.54825  1.0000
  C   C4117     1.0  0.87076  0.80875  0.53486  1.0000
  C   C4118     1.0  0.85249  0.81481  0.52948  1.0000
  C   C4119     1.0  0.83834  0.80339  0.53761  1.0000
  C   C4120     1.0  0.88706  0.57137  0.67317  1.0000
  C   C4121     1.0  0.75781  0.81943  0.51224  1.0000
  H   H3286     1.0  0.76430  0.76983  0.61260  1.0000
  H   H3287     1.0  0.79320  0.75495  0.59056  1.0000
  H   H3288     1.0  0.80925  0.81144  0.56831  1.0000
  H   H3289     1.0  0.84347  0.76785  0.52053  1.0000
  C   C4122     1.0  0.91382  0.82327  0.54151  1.0000
  C   C4123     1.0  0.86173  0.50715  0.67499  1.0000
  H   H3290     1.0  0.77264  0.77204  0.52569  1.0000
  H   H3291     1.0  0.78433  0.77173  0.55478  1.0000
  H   H3292     1.0  0.83224  0.73172  0.55118  1.0000
  H   H3293     1.0  0.84731  0.69909  0.56794  1.0000
  H   H3294     1.0  0.85274  0.72396  0.61388  1.0000
  H   H3295     1.0  0.83720  0.75686  0.59756  1.0000
  H   H3296     1.0  0.86454  0.76596  0.56639  1.0000
  H   H3297     1.0  0.88937  0.78618  0.55190  1.0000
  H   H3298     1.0  0.88186  0.81736  0.52806  1.0000
  H   H3299     1.0  0.84935  0.82819  0.51872  1.0000
  H   H3300     1.0  0.82437  0.80804  0.53299  1.0000
  C   C4124     1.0  0.88256  0.73201  0.53372  1.0000
  H   H3301     1.0  0.88361  0.73037  0.54878  1.0000
  H   H3302     1.0  0.89155  0.75978  0.52390  1.0000
  H   H3303     1.0  0.76647  0.63345  0.54657  1.0000
  H   H3304     1.0  0.70556  0.74036  0.63956  1.0000
  H   H3305     1.0  0.90452  0.54919  0.65726  1.0000
  Fe  Fe280     1.0  0.80247  0.56938  0.70063  1.0000
  H   H3306     1.0  0.77455  0.61768  0.69494  1.0000
  C   C4125     1.0  0.66125  0.79554  0.61529  1.0000
  H   H3307     1.0  0.91359  0.81407  0.55598  1.0000
  C   C4126     1.0  0.86129  0.54568  0.68957  1.0000
  C   C4127     1.0  0.76748  0.83052  0.49544  1.0000
  C   C4128     1.0  0.83275  0.90235  0.52362  1.0000
  H   H3308     1.0  0.69138  0.82473  0.51160  1.0000
  H   H3309     1.0  0.84978  0.68251  0.49454  1.0000
  H   H3310     1.0  0.68720  0.68689  0.64273  1.0000
  H   H3311     1.0  0.87919  0.57595  0.55611  1.0000
  C   C4129     1.0  0.82921  0.48944  0.68510  1.0000
  C   C4130     1.0  0.85744  0.86579  0.53316  1.0000
  H   H3312     1.0  0.72323  0.72159  0.60845  1.0000
  H   H3313     1.0  0.86718  0.49152  0.70371  1.0000
  C   C4131     1.0  0.88689  0.74854  0.51979  1.0000
  C   C4132     1.0  0.73342  0.66548  0.61142  1.0000
  C   C4133     1.0  0.71447  0.69815  0.60156  1.0000
  C   C4134     1.0  0.90636  0.50964  0.63196  1.0000
  H   H3314     1.0  0.91840  0.91606  0.56608  1.0000
  S   S555      1.0  0.66460  0.80382  0.58986  1.0000
  H   H3315     1.0  0.70954  0.67196  0.59623  1.0000
  C   C4135     1.0  0.85309  0.90069  0.51974  1.0000
  H   H3316     1.0  0.82326  0.91645  0.51942  1.0000
  S   S556      1.0  0.80724  0.84615  0.51587  1.0000
  H   H3317     1.0  0.87508  0.94508  0.48526  1.0000
  C   C4136     1.0  0.71824  0.67793  0.60256  1.0000
  H   H3318     1.0  0.74788  0.95922  0.51227  1.0000
  H   H3319     1.0  0.80375  0.98195  0.64752  1.0000
  Fe  Fe281     1.0  0.80827  0.53152  0.73056  1.0000
  H   H3320     1.0  0.72562  0.65661  0.65464  1.0000
  H   H3321     1.0  0.93315  0.57764  0.62607  1.0000
  P   P138      1.0  0.76515  0.65701  0.62985  1.0000
  H   H3322     1.0  0.85092  0.63018  0.50033  1.0000
  H   H3323     1.0  0.75001  0.70012  0.62362  1.0000
  C   C4137     1.0  0.74111  0.69354  0.61821  1.0000
  H   H3324     1.0  0.81382  0.68691  0.50226  1.0000
  C   C4138     1.0  0.76387  0.62619  0.68610  1.0000
  C   C4139     1.0  0.91325  0.90913  0.55723  1.0000
  P   P139      1.0  0.88358  0.51721  0.66813  1.0000
  C   C4140     1.0  0.74517  0.67323  0.61907  1.0000
  C   C4141     1.0  0.75608  0.66180  0.52944  1.0000
  C   C4142     1.0  0.95219  0.53203  0.60202  1.0000
  H   H3325     1.0  0.73901  0.62133  0.70924  1.0000
  C   C4143     1.0  0.79177  0.65449  0.50306  1.0000
  H   H3326     1.0  0.79596  0.76917  0.49429  1.0000
  H   H3327     1.0  0.78036  0.82600  0.59058  1.0000
  C   C4144     1.0  0.97633  0.61266  0.57771  1.0000
  C   C4145     1.0  0.72579  0.70588  0.60956  1.0000
  H   H3328     1.0  0.92267  0.50346  0.60393  1.0000
  H   H3329     1.0  0.77918  0.61361  0.63871  1.0000
  H   H3330     1.0  0.80456  0.60121  0.58165  1.0000
  C   C4146     1.0  0.70940  0.85036  0.53012  1.0000
  C   C4147     1.0  0.73010  0.63923  0.68270  1.0000
  H   H3331     1.0  0.79461  0.63643  0.56668  1.0000
  C   C4148     1.0  0.75657  0.64564  0.65492  1.0000
  H   H3332     1.0  0.85106  0.52114  0.64811  1.0000
  C   C4149     1.0  0.76041  0.67587  0.51252  1.0000
  H   H3333     1.0  0.93109  0.65942  0.50875  1.0000
  C   C4150     1.0  0.77689  0.63896  0.61475  1.0000
  H   H3334     1.0  0.68717  0.77813  0.65173  1.0000
  H   H3335     1.0  0.80373  0.66233  0.60514  1.0000
  C   C4151     1.0  0.90470  0.85511  0.52058  1.0000
  C   C4152     1.0  0.79634  0.61166  0.59080  1.0000
  C   C4153     1.0  0.78740  0.64045  0.51999  1.0000
  Fe  Fe282     1.0  0.77502  0.54111  0.70960  1.0000
  C   C4154     1.0  0.89128  0.55316  0.66782  1.0000
  H   H3336     1.0  0.73879  0.50595  0.68297  1.0000
  C   C4155     1.0  0.81349  0.68147  0.61703  1.0000
  H   H3337     1.0  0.89765  0.84927  0.55225  1.0000
  C   C4156     1.0  0.68219  0.73958  0.50464  1.0000
  C   C4157     1.0  0.88074  0.53911  0.63088  1.0000
  S   S557      1.0  0.69575  0.73507  0.53790  1.0000
  C   C4158     1.0  0.93950  0.68115  0.51876  1.0000
  H   H3338     1.0  0.84445  0.72449  0.49661  1.0000
  C   C4159     1.0  0.69394  0.82765  0.49581  1.0000
  H   H3339     1.0  0.69871  0.65141  0.64335  1.0000
  P   P140      1.0  0.89197  0.88055  0.51825  1.0000
  C   C4160     1.0  0.92284  0.81513  0.52499  1.0000
  H   H3340     1.0  0.78855  0.70143  0.65652  1.0000
  C   C4161     1.0  0.73643  0.64796  0.66316  1.0000
  H   H3341     1.0  0.78587  0.63306  0.66067  1.0000
  P   P141      1.0  0.69417  0.86616  0.49634  1.0000
  C   C4162     1.0  0.71486  0.87801  0.48841  1.0000
  C   C4163     1.0  0.92334  0.82701  0.50635  1.0000
  C   C4164     1.0  0.79184  0.69280  0.64536  1.0000
  C   C4165     1.0  0.80929  0.69263  0.63137  1.0000
  H   H3342     1.0  0.81954  0.70115  0.63164  1.0000
  C   C4166     1.0  0.87860  0.60052  0.62864  1.0000
  C   C4167     1.0  0.87426  0.62093  0.62632  1.0000
  C   C4168     1.0  0.88578  0.63213  0.61142  1.0000
  C   C4169     1.0  0.90186  0.62293  0.59903  1.0000
  C   C4170     1.0  0.90660  0.60237  0.60150  1.0000
  C   C4171     1.0  0.89455  0.59128  0.61620  1.0000
  P   P142      1.0  0.92736  0.59022  0.58557  1.0000
  C   C4172     1.0  0.91912  0.58609  0.56558  1.0000
  C   C4173     1.0  0.94561  0.60528  0.57653  1.0000
  C   C4174     1.0  0.96237  0.60086  0.58473  1.0000
  C   C4175     1.0  0.67727  0.67866  0.64120  1.0000
  H   H3343     1.0  0.82266  0.50549  0.65724  1.0000
  C   C4176     1.0  0.95708  0.63344  0.55426  1.0000
  C   C4177     1.0  0.94303  0.62177  0.56128  1.0000
  C   C4178     1.0  0.90089  0.58095  0.56896  1.0000
  C   C4179     1.0  0.89378  0.57884  0.55347  1.0000
  C   C4180     1.0  0.90487  0.58183  0.53444  1.0000
  C   C4181     1.0  0.92335  0.58629  0.53102  1.0000
  C   C4182     1.0  0.93061  0.58813  0.54655  1.0000
  C   C4183     1.0  0.93758  0.56679  0.59956  1.0000
  C   C4184     1.0  0.94471  0.55021  0.59098  1.0000
  C   C4185     1.0  0.98520  0.82411  0.48983  1.0000
  H   H3344     1.0  0.92974  0.87438  0.52933  1.0000
  C   C4186     1.0  0.94566  0.54674  0.63027  1.0000
  C   C4187     1.0  0.93831  0.56497  0.61924  1.0000
  H   H3345     1.0  0.86918  0.59192  0.63975  1.0000
  H   H3346     1.0  0.86165  0.62808  0.63575  1.0000
  H   H3347     1.0  0.88212  0.64800  0.60921  1.0000
  H   H3348     1.0  0.91027  0.63207  0.58746  1.0000
  H   H3349     1.0  0.89734  0.57551  0.61797  1.0000
  H   H3350     1.0  0.96475  0.58839  0.59655  1.0000
  H   H3351     1.0  0.67229  0.73025  0.51353  1.0000
  H   H3352     1.0  0.93062  0.82068  0.49361  1.0000
  H   H3353     1.0  0.95509  0.64608  0.54245  1.0000
  H   H3354     1.0  0.93012  0.62572  0.55483  1.0000
  H   H3355     1.0  0.89161  0.57976  0.58333  1.0000
  C   C4188     1.0  0.69221  0.85726  0.52244  1.0000
  C   C4189     1.0  0.85707  0.56395  0.69478  1.0000
  H   H3356     1.0  0.71867  0.75980  0.50777  1.0000
  C   C4190     1.0  0.68108  0.72875  0.63896  1.0000
  H   H3357     1.0  0.83081  0.85454  0.54311  1.0000
  C   C4191     1.0  0.87751  0.71716  0.52806  1.0000
  H   H3358     1.0  0.87455  0.70415  0.53867  1.0000
  C   C4192     1.0  0.88508  0.54261  0.61048  1.0000
  H   H3359     1.0  0.85112  0.53597  0.69615  1.0000
  C   C4193     1.0  0.91949  0.88556  0.53655  1.0000
  C   C4194     1.0  0.96896  0.79079  0.50001  1.0000
  H   H3360     1.0  0.68534  0.72937  0.62336  1.0000
  C   C4195     1.0  0.77489  0.71488  0.48596  1.0000
  H   H3361     1.0  0.81133  0.72764  0.49256  1.0000
  C   C4196     1.0  0.77076  0.73501  0.50969  1.0000
  H   H3362     1.0  0.74240  0.66480  0.53980  1.0000
  H   H3363     1.0  0.75745  0.76568  0.50131  1.0000
  C   C4197     1.0  0.78258  0.67083  0.63037  1.0000
  H   H3364     1.0  0.86658  0.85143  0.53663  1.0000
  H   H3365     1.0  0.77269  0.73620  0.52372  1.0000
  C   C4198     1.0  0.78828  0.83588  0.51436  1.0000
  C   C4199     1.0  0.89382  0.91513  0.55473  1.0000
  S   S558      1.0  0.75563  0.52946  0.69743  1.0000
  H   H3366     1.0  0.72371  0.85039  0.52064  1.0000
  C   C4200     1.0  0.77861  0.82481  0.53117  1.0000
  H   H3367     1.0  0.78284  0.82263  0.54501  1.0000
  H   H3368     1.0  0.77709  0.66042  0.58751  1.0000
  C   C4201     1.0  0.78099  0.64506  0.59428  1.0000
  H   H3369     1.0  0.75770  0.80535  0.61282  1.0000
  H   H3370     1.0  0.79611  0.58999  0.61759  1.0000
  C   C4202     1.0  0.79168  0.60536  0.61107  1.0000
  C   C4203     1.0  0.74382  0.62826  0.69413  1.0000
  C   C4204     1.0  0.82475  0.88572  0.53217  1.0000
  C   C4205     1.0  0.83708  0.86747  0.53697  1.0000
  C   C4206     1.0  0.90031  0.52989  0.60073  1.0000
  C   C4207     1.0  0.76963  0.64415  0.53324  1.0000
  C   C4208     1.0  0.82152  0.68662  0.48736  1.0000
  C   C4209     1.0  0.87693  0.71867  0.50856  1.0000
  C   C4210     1.0  0.88590  0.75032  0.50030  1.0000
  H   H3371     1.0  0.82699  0.68121  0.60618  1.0000
  C   C4211     1.0  0.78211  0.61893  0.62305  1.0000
  C   C4212     1.0  0.69559  0.74410  0.51294  1.0000
  C   C4213     1.0  0.68390  0.65854  0.64150  1.0000
  C   C4214     1.0  0.92762  0.66825  0.51975  1.0000
  C   C4215     1.0  0.80019  0.67067  0.61648  1.0000
  C   C4216     1.0  0.89992  0.89139  0.53410  1.0000
  H   H3372     1.0  0.91458  0.49666  0.63997  1.0000
  C   C4217     1.0  0.85945  0.63251  0.48561  1.0000
  C   C4218     1.0  0.69379  0.81284  0.48663  1.0000
  H   H3373     1.0  0.77286  0.93305  0.49782  1.0000
  S   S559      1.0  0.97201  0.73441  0.49427  1.0000
  H   H3374     1.0  0.80905  0.88683  0.53458  1.0000
  C   C4219     1.0  0.77844  0.67245  0.49938  1.0000
  H   H3375     1.0  0.84940  0.53606  0.73438  1.0000
  S   S560      1.0  0.86506  0.98012  0.50027  1.0000
  H   H3376     1.0  0.69216  0.78785  0.61554  1.0000
  C   C4220     1.0  0.89105  0.52239  0.64180  1.0000
  C   C4221     1.0  0.97147  0.79889  0.51462  1.0000
  C   C4222     1.0  0.77685  0.71680  0.50420  1.0000
  C   C4223     1.0  0.84879  0.51125  0.66210  1.0000
  S   S561      1.0  0.80752  0.53777  0.69862  1.0000
  H   H3377     1.0  0.85905  0.91366  0.51280  1.0000
  H   H3378     1.0  0.80577  0.65149  0.49316  1.0000
  C   C4224     1.0  0.90482  0.84320  0.53932  1.0000
  C   C4225     1.0  0.86563  0.88243  0.52449  1.0000
  C   C4226     1.0  0.93501  0.69241  0.53314  1.0000
  H   H3379     1.0  0.72988  0.91589  0.49654  1.0000
  C   C4227     1.0  0.67746  0.78850  0.62429  1.0000
  H   H3380     1.0  0.94119  0.88978  0.54999  1.0000
  H   H3381     1.0  0.98445  0.63813  0.55697  1.0000
  H   H3382     1.0  0.94427  0.70229  0.53249  1.0000
  S   S562      1.0  0.89082  0.62972  0.50206  1.0000
  C   C4228     1.0  0.83261  0.50238  0.66717  1.0000
  S   S563      1.0  0.80637  0.56272  0.73167  1.0000
  H   H3383     1.0  0.92932  0.79957  0.52655  1.0000
  H   H3384     1.0  0.83114  0.76840  0.49150  1.0000
  H   H3385     1.0  0.71948  0.51127  0.72082  1.0000
  C   C4229     1.0  0.95253  0.53026  0.62168  1.0000
  C   C4230     1.0  0.87837  0.54022  0.67594  1.0000
  H   H3386     1.0  0.88986  0.76305  0.48981  1.0000
  C   C4231     1.0  0.75066  0.49632  0.68959  1.0000
  C   C4232     1.0  0.88065  0.73548  0.49454  1.0000
  C   C4233     1.0  0.86985  0.57683  0.68653  1.0000
  H   H3387     1.0  0.69580  0.74003  0.67519  1.0000
  H   H3388     1.0  0.89693  0.58139  0.66677  1.0000
  H   H3389     1.0  0.84368  0.56830  0.70499  1.0000
  C   C4234     1.0  0.67304  0.84833  0.55511  1.0000
  C   C4235     1.0  0.74909  0.95852  0.49717  1.0000
  C   C4236     1.0  0.67176  0.88244  0.49036  1.0000
  H   H3390     1.0  0.88635  0.80061  0.49879  1.0000
  H   H3391     1.0  0.91216  0.91375  0.49978  1.0000
  H   H3392     1.0  0.98109  0.82210  0.52087  1.0000
  H   H3393     1.0  0.88392  0.92680  0.56154  1.0000
  C   C4237     1.0  0.91100  0.51345  0.61148  1.0000
  H   H3394     1.0  0.72177  0.83713  0.55578  1.0000
  S   S564      1.0  0.92512  0.77715  0.49397  1.0000
  H   H3395     1.0  0.90362  0.53270  0.58488  1.0000
  C   C4238     1.0  0.76311  0.94374  0.48909  1.0000
  C   C4239     1.0  0.78274  0.83870  0.49646  1.0000
  H   H3396     1.0  0.91033  0.52023  0.69193  1.0000
  H   H3397     1.0  0.93503  0.49558  0.70808  1.0000
  C   C4240     1.0  0.88714  0.90630  0.54325  1.0000
  C   C4241     1.0  0.76231  0.75148  0.49716  1.0000
  C   C4242     1.0  0.68731  0.73454  0.66819  1.0000
  C   C4243     1.0  0.97928  0.81574  0.50954  1.0000
  C   C4244     1.0  0.83038  0.97517  0.49421  1.0000
  H   H3398     1.0  0.95819  0.51613  0.63026  1.0000
  C   C4245     1.0  0.91422  0.84688  0.50407  1.0000
  C   C4246     1.0  0.77694  0.49142  0.70671  1.0000
  C   C4247     1.0  0.67397  0.85627  0.53514  1.0000
  C   C4248     1.0  0.97369  0.62893  0.56246  1.0000
  S   S565      1.0  0.96112  0.68120  0.50084  1.0000
  H   H3399     1.0  0.96726  0.79213  0.52986  1.0000
  C   C4249     1.0  0.67146  0.64759  0.63935  1.0000
  C   C4250     1.0  0.76168  0.50404  0.69800  1.0000
  H   H3400     1.0  0.94446  0.55128  0.57581  1.0000
  H   H3401     1.0  0.91466  0.85556  0.48942  1.0000
  H   H3402     1.0  0.69121  0.79876  0.49539  1.0000
  C   C4251     1.0  0.89734  0.89414  0.49340  1.0000
  H   H3403     1.0  0.95763  0.51928  0.59533  1.0000
  C   C4252     1.0  0.69022  0.84157  0.56259  1.0000
  C   C4253     1.0  0.91313  0.50523  0.69018  1.0000
  C   C4254     1.0  0.67041  0.72797  0.67912  1.0000
  C   C4255     1.0  0.90238  0.49956  0.67962  1.0000
  H   H3404     1.0  0.70147  0.89982  0.50633  1.0000
  C   C4256     1.0  0.71431  0.89426  0.49607  1.0000
  H   H3405     1.0  0.66158  0.71970  0.56601  1.0000
  H   H3406     1.0  0.80369  0.97049  0.48952  1.0000
  H   H3407     1.0  0.72585  0.98379  0.49206  1.0000
  C   C4257     1.0  0.92717  0.49123  0.69948  1.0000
  Fe  Fe283     1.0  0.81932  0.86326  0.48672  1.0000
  C   C4258     1.0  0.66398  0.72223  0.64983  1.0000
  C   C4259     1.0  0.73676  0.97239  0.48575  1.0000
  H   H3408     1.0  0.66588  0.72838  0.69456  1.0000
  C   C4260     1.0  0.90696  0.90986  0.48877  1.0000
  H   H3409     1.0  0.82331  0.98849  0.49964  1.0000
  S   S566      1.0  0.84307  0.87881  0.48482  1.0000
  H   H3410     1.0  0.99123  0.83718  0.48611  1.0000
  Fe  Fe284     1.0  0.72820  0.50249  0.89828  1.0000
  Fe  Fe285     1.0  0.69177  0.53182  0.88854  1.0000
  S   S567      1.0  0.70407  0.53766  0.85623  1.0000
  C   C4261     1.0  0.67854  0.59308  0.86945  1.0000
  Fe  Fe286     1.0  0.73179  0.53751  0.86494  1.0000
  S   S568      1.0  0.74917  0.56068  0.85022  1.0000
  C   C4262     1.0  0.84597  0.54800  0.77335  1.0000
  S   S569      1.0  0.71855  0.53477  0.89686  1.0000
  C   C4263     1.0  0.75114  0.56676  0.82480  1.0000
  C   C4264     1.0  0.75240  0.55265  0.81402  1.0000
  H   H3411     1.0  0.83395  0.57661  0.75771  1.0000
  C   C4265     1.0  0.66984  0.52717  0.82133  1.0000
  H   H3412     1.0  0.71642  0.57903  0.74622  1.0000
  C   C4266     1.0  0.77628  0.49980  0.79138  1.0000
  H   H3413     1.0  0.89800  0.50817  0.90504  1.0000
  C   C4267     1.0  0.81153  0.56370  0.77907  1.0000
  S   S570      1.0  0.77589  0.53289  0.74147  1.0000
  C   C4268     1.0  0.71052  0.64798  0.77756  1.0000
  S   S571      1.0  0.74419  0.50533  0.86703  1.0000
  P   P143      1.0  0.81662  0.51026  0.81627  1.0000
  C   C4269     1.0  0.81201  0.51864  0.83887  1.0000
  H   H3414     1.0  0.79992  0.51513  0.78169  1.0000
  H   H3415     1.0  0.68512  0.52474  0.82229  1.0000
  H   H3416     1.0  0.67871  0.58955  0.88494  1.0000
  C   C4270     1.0  0.67777  0.60084  0.82949  1.0000
  S   S572      1.0  0.91536  0.50295  0.74638  1.0000
  C   C4271     1.0  0.79288  0.52342  0.84969  1.0000
  C   C4272     1.0  0.78973  0.52950  0.86735  1.0000
  C   C4273     1.0  0.80555  0.53151  0.87401  1.0000
  C   C4274     1.0  0.82455  0.52762  0.86289  1.0000
  C   C4275     1.0  0.82778  0.52128  0.84534  1.0000
  H   H3417     1.0  0.72544  0.64838  0.76972  1.0000
  S   S573      1.0  0.75532  0.58546  0.75884  1.0000
  C   C4276     1.0  0.66322  0.53910  0.80473  1.0000
  H   H3418     1.0  0.78030  0.52293  0.84438  1.0000
  H   H3419     1.0  0.77488  0.53315  0.87560  1.0000
  H   H3420     1.0  0.80295  0.53649  0.88756  1.0000
  C   C4277     1.0  0.75463  0.55799  0.79351  1.0000
  H   H3421     1.0  0.93792  0.50636  0.88127  1.0000
  H   H3422     1.0  0.81308  0.54037  0.95575  1.0000
  C   C4278     1.0  0.75163  0.58614  0.81520  1.0000
  C   C4279     1.0  0.69917  0.59074  0.77138  1.0000
  Fe  Fe287     1.0  0.71535  0.50507  0.86060  1.0000
  C   C4280     1.0  0.81255  0.52600  0.95412  1.0000
  H   H3423     1.0  0.69383  0.56447  0.81828  1.0000
  C   C4281     1.0  0.80428  0.52433  0.93922  1.0000
  H   H3424     1.0  0.86093  0.54824  0.76558  1.0000
  C   C4282     1.0  0.90786  0.49979  0.91477  1.0000
  C   C4283     1.0  0.75282  0.59163  0.79498  1.0000
  C   C4284     1.0  0.69595  0.58914  0.85582  1.0000
  C   C4285     1.0  0.67223  0.64676  0.79830  1.0000
  H   H3425     1.0  0.84255  0.51845  0.83675  1.0000
  C   C4286     1.0  0.69563  0.59325  0.83588  1.0000
  C   C4287     1.0  0.72941  0.51340  0.74571  1.0000
  C   C4288     1.0  0.69343  0.58706  0.79184  1.0000
  C   C4289     1.0  0.83081  0.56401  0.76898  1.0000
  H   H3426     1.0  0.79252  0.54741  0.80132  1.0000
  H   H3427     1.0  0.69477  0.60523  0.76278  1.0000
  H   H3428     1.0  0.75600  0.54709  0.78510  1.0000
  H   H3429     1.0  0.71538  0.61663  0.78215  1.0000
  H   H3430     1.0  0.75213  0.53760  0.82139  1.0000
  H   H3431     1.0  0.67331  0.54607  0.79278  1.0000
  C   C4290     1.0  0.90877  0.50746  0.93039  1.0000
  H   H3432     1.0  0.75270  0.60677  0.78773  1.0000
  C   C4291     1.0  0.82245  0.53096  0.79742  1.0000
  H   H3433     1.0  0.75062  0.59704  0.82351  1.0000
  C   C4292     1.0  0.80743  0.54733  0.79338  1.0000
  P   P144      1.0  0.67752  0.60629  0.80374  1.0000
  H   H3434     1.0  0.73912  0.51114  0.77224  1.0000
  C   C4293     1.0  0.71114  0.57586  0.76191  1.0000
  H   H3435     1.0  0.70931  0.59030  0.82550  1.0000
  H   H3436     1.0  0.79751  0.50447  0.92532  1.0000
  C   C4294     1.0  0.68534  0.62932  0.79452  1.0000
  S   S574      1.0  0.70039  0.49912  0.89223  1.0000
  H   H3437     1.0  0.77161  0.49543  0.89717  1.0000
  C   C4295     1.0  0.85945  0.52216  0.73752  1.0000
  C   C4296     1.0  0.84186  0.53149  0.78751  1.0000
  H   H3438     1.0  0.85386  0.51929  0.79059  1.0000
  C   C4297     1.0  0.69716  0.66538  0.78080  1.0000
  H   H3439     1.0  0.66762  0.67814  0.79398  1.0000
  C   C4298     1.0  0.71089  0.55313  0.79308  1.0000
  C   C4299     1.0  0.71723  0.55718  0.77278  1.0000
  H   H3440     1.0  0.83679  0.52959  0.86780  1.0000
  C   C4300     1.0  0.69878  0.56795  0.80258  1.0000
  H   H3441     1.0  0.96042  0.51968  0.85186  1.0000
  H   H3442     1.0  0.70970  0.58283  0.86072  1.0000
  C   C4301     1.0  0.85279  0.50467  0.74188  1.0000
  C   C4302     1.0  0.75446  0.57760  0.78407  1.0000
  H   H3443     1.0  0.72734  0.54608  0.76546  1.0000
  C   C4303     1.0  0.87897  0.52162  0.73812  1.0000
  H   H3444     1.0  0.70164  0.67933  0.77535  1.0000
  C   C4304     1.0  0.70470  0.62997  0.78451  1.0000
  H   H3445     1.0  0.79969  0.57607  0.77572  1.0000
  H   H3446     1.0  0.92248  0.50309  0.95491  1.0000
  H   H3447     1.0  0.84054  0.49080  0.78453  1.0000
  C   C4305     1.0  0.80384  0.50580  0.93691  1.0000
  H   H3448     1.0  0.71579  0.53866  0.80154  1.0000
  H   H3449     1.0  0.82672  0.51067  0.97816  1.0000
  H   H3450     1.0  0.79825  0.53737  0.92942  1.0000
  C   C4306     1.0  0.79588  0.50286  0.81287  1.0000
  C   C4307     1.0  0.79144  0.50690  0.79420  1.0000
  C   C4308     1.0  0.82009  0.50914  0.96691  1.0000
  C   C4309     1.0  0.78549  0.49098  0.82841  1.0000
  C   C4310     1.0  0.73360  0.50382  0.76408  1.0000
  H   H3451     1.0  0.89951  0.52148  0.93277  1.0000
  Fe  Fe288     1.0  0.77390  0.56485  0.73943  1.0000
  S   S575      1.0  0.82809  0.50449  0.74363  1.0000
  C   C4311     1.0  0.72234  0.50387  0.73522  1.0000
  C   C4312     1.0  0.89170  0.50361  0.74330  1.0000
  H   H3452     1.0  0.73201  0.52806  0.73931  1.0000
  H   H3453     1.0  0.66249  0.50904  0.84935  1.0000
  H   H3454     1.0  0.97087  0.50380  0.82307  1.0000
  S   S576      1.0  0.66316  0.54660  0.90488  1.0000
  C   C4313     1.0  0.67804  0.66474  0.79126  1.0000
  C   C4314     1.0  0.81911  0.49052  0.96504  1.0000
  C   C4315     1.0  0.96118  0.49779  0.83611  1.0000
  C   C4316     1.0  0.95526  0.50671  0.85233  1.0000
  H   H3455     1.0  0.77317  0.50266  0.77691  1.0000
  C   C4317     1.0  0.92174  0.49714  0.94282  1.0000
  C   C4318     1.0  0.66087  0.60152  0.86308  1.0000
  C   C4319     1.0  0.94250  0.49906  0.86901  1.0000
  H   H3456     1.0  0.88401  0.53515  0.73523  1.0000
  C   C4320     1.0  0.81145  0.48895  0.94961  1.0000
