data_image0
_chemical_formula_structural       SFeS2FeS2FeSFeS3H3FeS2C2SH5CSCHC7H4C6H2CHCSC4HCH2C6H4CHSC6HPC3H2C8H6CH2CHCPHCH5C2HCHCH3C6PC16H19C3SHC3HCHCH2CHC3HCHCHC2H2CHC7PCSH2C4HC3HCH6FeSH2CHCHCH4CHC2HC2HC2HCHCHPH2CH2PHCHCH2CHCFeH2CSC4PC20H11CFeCHCH2SCSCH2CH2C5HCHCHCHCH4SC6H2FeC5HC2HC2H2C3HC2HPCSH2C2HC2HCHC3HCH3CS2H2C11HS2HCSCH3C2SHC3SC3H4C6H4C6H2CH5CHC2HCH2C2H2SHCH2CHCHC3H2CHCH2CHC2HC2FeC2H2CHC5PC2H2C6HC2H4CPH3CHCH3SCH2CH3CH3C9H2C3H5C2H2C3HC4H2C3P2C2HCHCH3PSHCH3CFeCFeCFeSH3C3HC2HCSCH5C3HSHCHCHC2H2CSCHSH2C2HC2SHSH2CHC2SCFeS2H2FeH2S3CHC4SHC2HSFeHC2PCHC2SC2HCHSCHC6H4CH3CHC2H2C6H4C2HC2HSHC2HCSHFeH2C2H2C4HC2HC3HCHCHSHFeCHC2H3C2H2CHC2HCHSC2HCH2CH2FeHC4HCHCHCHCS2HFeCHCSC6PC14PC3H16CH4C6PC18H16SCH2C2HCPFeHCH2C2HC2Fe2C2SC2H4C2HCH2CHFeC3HCHC2PHSHCHC4FeC3H2CHSHFeHCHCH2C4SH3CHFeH2CHCHC4HC3HC2HC3HC2SCFeSCH3FeS2FeSFeSFeS3FeSFeS2FeSFeS3C2H5FeSHC4H3C2H2C6H4C6H2CHC6H4C6H4CHC2H2C2H7CH3CSHC3HCH2C4H7CH2CHC6PC4HC15H5PCH12C4HCHC2SCH4SC6H4SHCHCHCH2CHCH2CHCH2C2H2PC2H2CHCH2C5HPHC2H8C6PC18H2C2PCHSHC2HC2H2CH2C2HCHC4H2FeCHCHC2H2C2SHCHCH2CHC4H4CHC2SC3HCHC2SHCHSCHCPCHCHCH3CH4C2HC2H3CH2CFeH2C2SH3CHSC3H2CFeCHFeCHSHCHCHC4HCH2FeCHC2HFeS2FeS2FeSFeCS2C2H2SC3FeSC2SC2FeSHFeS2FeSFeHS2C7H3CH2C2SCH4C3H6C5HCH2C6H4C6H5C2HCHC4HCH2C3HC6PC9FeC4HC2SH9CHCH3CHPCH3C3H2CPHC7FeCHPHC2HC2H6CHCSC3HCHC7PC18H20CH2CH6C7HC2H2C2H2CH2CH2CH2C2SCHCHC4H3C5SH2FeC2HCSCHCH4CHCPHCH6C2SC2H2C2HC2HC2H2C2HSC2SH3CHC2H4CHCHC6H3C2HCSC2SC2FeS2HC2FeSCSH5CFeS2FeCSHFeHS2CHC3H2CHC7H5C4HC2PH5C2FeC2SHCHC7H2CHC2H3C2HC3HCH2CH5C4FeC3H2C3H4SC6H2CHC5HC4H4CH6CFeCH2CH2C5H3CPC2HC2SCH2CHC4H3CPC8H2CHC2H7C4HPHC2SHCHC2HC2H2CFeCHCHCHC2H2CH7CHCHCSCHC2SHC2HCHCHC4FeS2CSCFeSFeSHFeH4CHC2SFeSHFeS2FeSFeCS2CHC6H7C2HCHSHCHC6H4C2HC6H5CSH2CHC3SC4HC2HC3H2PH5CHSCHSHC4HCFeC4H2CH2CSC2HPHC10H3C2H6CHPC4PC18H20CHFeHCH2C7PC3HC2HCSHC2H2C3H3CH3C2H2CHCH2C2HC6PC3SHC9H2C2H5CH3C3H4CHC3H2CHC2HC2SH2C2SCH3C2HCPC2SH4FeSCHCH2C4HCHFeS2FeSFe2HS2FeS2FeS2Fe2S3FeS2FeS2FeSFeS2H2SH3C4H2CH5C6H2CHC2HC3H4CFeCH2C6H4C6H3C6SHC7H4C2H2CHCPH4CHCPHFeC4H2SC2HCHC2HCHSCH2SCHC5PC7H2C7HSHC2HC2H6CHC3HPC8H12C3HC3HCH3C2HC2HCSC3HFeSC2HC2HC3HC3HCHC2H2CHCH2C2H4C2H5CHPCH2CSH2C3H3FeH2SC7HCH2C2H6C6PC18H12CH10CHC2HC7PC13H2CHC2HCH4CHC3H2C2H2C2HSC2SFeS2FeSFeS3CFeS2FeS2FeSFeS3CH3CSHCFeCSC6H4CHC9H5C5HC3H2C6H4C6H2CHCHC6H5C6PC9PC8H11CHCH8C3HCPHCHC2SCH4CSHFeH2CH2PCH4CH3CH2CH2C12SC2H9CH3CSC3H3C6H2C2HC2HC2H2FeHCPC5HCHCH2C3H2C4HCH2CH2C2HC2HSCH2C2H2C3H2SC3H2CHC3HC2HCH2C4HSCHC4PC7HC2H4CHCH6CHFeCHCHC3HC3H3C2H4C3SH4SCFePCHFeC4HFeSC2SH3C5H2CPHC3H2CHC2HC2HCH2CHC2HC4H2C3HC2H4CHCHCH2C2H2FeCSCHSHFe2SFeSFeS2HSFeS2FeS2FeSFeS3C6H3C6H3C6H4C6H4CHCH2CHFeHCH2CH2CSC2HC5H2CH2C3FeC2HCH3C2PHC7H4C7H3C2H4CHCHCH6CHCSCHCH2CHCFeC4HCH2CSCH2CHCFeCPC2HC7PC9PC6HCH14C6SH5C6PC4H2C9H8C2H6C3H2C5H6CHPC2H2CH2SHC4H2CFeH2C2H2CHC4SC4HCH2CH2CHCSHCH2CSHS2CHC4HFeHCHC3H6C4SC3HCHCHSCH2C2HCSHC3HCSHCFeSHSH3C5HCHSH3CSCHC6HC2HPCH2S2HSCH2CHFeCHC2HC3FeH2CSCH5CHC5HC4H2CH2C2HC2H2SFeS2FeS2FeSFeS3FeS2HCH2FeSCS2CPHC2H2CHC8H4C6H4C6H3C7H7CHC4HCH3CHCHCSH3C3FeH2C4HC3HCH2CH2CH2C2HC3HC3H2CH2CH2C6H3C2H2C2HC2H2CH10C3HC3PC5H2C6HCFeCH4C3H8CHC4HC2H2C4HCHCHPC2H3CH5CHCH2CHCHC5H4C3HC2SH2CSC5PH2C5HC2SH2CH4C5H2PCH3C4HCPH2C2HCH2CH4C2H2C2SFeCHC4H2C6H4CHC2HFeC3H2CH2CHCHCSC4PSHFeS2FeS2FeHFeS3FeSFeS2FeSFeS3C2SC5H2C2H2CHC6H5SHC5H4C8H2CH2CHC4HC7H3C3HC2FeHSH7PC2H3CHC4HC2HCH2FeCHCHCHC2H4SH4CHC3H2CHCH2C2HCSCH2CHC7HCSCHCHC2H4C2HCHC3SC6HSCHCH4C4H3CHC4H2C2H2C3H2C5PC15H4CH10CPC2H4FeH4C3H2CHCHC3H4CHPHC2HC3HC8PC7H3SC7HC3HCHCPH3C2H2CH5C3HC3H2S2H4C3FeS2FeHSFeHC2S2C3FeCS2C3HCHC5HPH2CH2C2HFeHC2H3CH3C2HC2H2C3HPCH2C2HCH2CSH2CH2SHCH2CPHC4HC2FeCHCH2C3H2CSH2C2HCH2SC2HC7HC2H2SCHCHCSHCHCH4CHCHC2H3CH2FeHCH2CHCHC11HCFeH4C3HCHSHC2H4S2FeS2HFeHCFeC2FeH2FeS2H3SC8H4C3H2CHC3HC6H4CH3C12H2CH2C2PC3HC2H2CH3C3FeSCH2CHCH2CH2C2HCHC2SPCSCHCHC3H4C2HCHC3H2C2FeHC2HCPCFeHC2HC2H2CHCH3C2HC2H2CH4CH3SFeC2HCH2CHCH2CHCH4C2HC2H2C3HCHC4HC2HC2HC4HSCH3CHC5H2CSHCSCHSPCSHFeC2H2CHCHCHC3PHC3H2CHC3HC2HSCH3SPH3C3HCFeS2FeS2FeSFeS3CSFeSC2FeS2FeS2CSFeSC4SC6HCH2C2H2C6H4C6H5C4H3PH2CHC3SC5H3C3SHCSHS2HC2H2CHC4HC3HC2HP2HCHC2H2CH5C3HCHC5HFeH2C3H2C2H2C2H7CHC2HCH2C3HCHC2HCH3CHC2H2CHCPHCHC3H2CH3C2HCHCH2CHCHFeHCH3C2HC6PC9HSC7H6C3H4CH6SC3HCHFeHCH5SC4H2C4SCHCHCFeC2HC3H2CHC2HCSHC2H2Fe2CHC5H2CPCH3C2HCHC5H3C4SC2H4C4HC2H2CHC2HCHCHCH3CHCSH2CHCHFeC3HCH2C3PHCFeHCHC2H3FeC4PC4HC2FeCSFeCSFeS2H2FeHS2H3FeS2FeS2FeSFeS3H2CFeH2CSHC4HSHCHCHC4HCH2C9H2CSHFeSHCH2SC5SC8H4CSHC3H3C2HCHC3H3CH5C9H5CH2CHPHCHC2HCSHCH2C2HCH2C6PC18H12CH8C4HCSH3C4FeC5HCHC3H3CSCSC2H7C2HCH2CFeC3H3CH2CH2CHSHCHC2HCHC3H2C3HFeH3CH2CH2C3HCHCH2C5H6C5SPHCH2C3FeSHCH2SCHCHCH2FeS2FeSHSH2SCHSFeSHSC6H4C3FeHSH2CH2CHC3H3C3H2C6H4CH2CSFe2C2HC2H2SFeH2C3HCHCH4C6PCH2CHC2FeHCHC4HSH2PFeC7PC18H20CHPC9H2C7H9C4H3C7H2C3HCH2C2H2C2SHSCHC2H2CH3CHCSCHC2H5CHC5PC3HSHCH4CH2C2HC2H2SH2C3Fe2C4HC4H2FeHSH5SCH2C3HCHFeSC2FeSC2SFeSCFeS3FeS2CSC8HC2HC8H6C3HSH5CH2C4HCH2CH2C4HCSHC2HC3FeCH2SCHC3HC2H5C2H4C3FeSPC3H5CHC2H2CHPC2H2CH3C2HCHCHC4PHC6HC4HCPH13SC7PC9HC8H12SCH2CH3CH2CHCH3CHFeCH3CHCHFeCHFeC3HSCSC3HCH2CHCHC2H2C5H2C5SC3HCH2SC3HCHCSH2CHCHPC2FeH2CHC3H2CHC2HC3H2CHC2HCHCH3C3Fe2SCFeHCS2FeSHFeS2Fe2SCS2H2CH4C9H2CSHC3HSCHCSHC6H3C2H3C3H3C3HC2HFeH3C2H4CH2C4HCHC4SCSHC2SHS3HC6H5C4H5PCHCH4CHCH2CHCH4CH2CH3CHC2HC3HCPH2FeHCHC3HC3HCFeSH2C3HC2HCH3FeSHCHSH3CHCHCHCHCHC2HCH2CHC2H2CH3C2HC3HCHCHC3HC4HC5H2CHCHSFeC5HCHC3H3C3HCSHCH3C2HC3HC7FeS2FeSFeCFeS3CFeS2FeS2FeSFeCS2FeCSHC4FeS2FeS2FeSFeHS2HSC6HCH2C6HC3H2C7H4CFeC6HC7H4C3H2C6H4C5H3C2HC3HC3HC2H3C7PC18H21C2HC2HC3SH4C9PC18H6CH13C6H2C3HC3PHC3HC2HC2HC2H6C14H11C3HPC3H3C5H4CH2SH4PC2H6C4HC2SPSHC3PC4HCHC6HCH2CH2CHCH2C3HCHCHC2H2C2HC3SHCHCHCH3C2H3CH2C3SCHCHCH4CFeC2H2CSC4H5CHCHC6HFeHC2HCH4C3HPH5C2PH2CH2CH3C5HCHCHCFeCHC2H3CHC3H2CH3C6H3FePCHCHCPH3PCHC2SC2HCH3CSCHCH2CHC5HCH2CHCHC3H2SCHC2HC4SH4CHC2HCSH2SH4C2HCH2CHC2SC2H2CHCH2C2HPC2HC3H2FeC2H3FeHC4H3FeS2FeCFeS3HFeHCHC2H3CH2C2H3SCHFeSCS2CHC5HCHC2HC6H6C2SC4SH2C2H3C6H4CFeCSC6H4CHC3H2CSH2CHCHSHCH2CFeH2C2HCHC9HCHC2H3C3HC4HSHCHCSHCSH2C2FeCHCHC3H2C2HCHCHC2H2C2PHC4H2CH2C4HCHPC2HC2HCHCHSC2HPC3HCFeH2SC3H2CH2FeHSC2H2CHSCH2C2PC4HSHC3H2C6H3C3HSC2HC2H7C2H3C4PC9HC8SC2HFeH6CH2C3H3CH2CH2CHFeHC2HCH6S2CH2CH3SCHCHC6FeCH3C2SH2FeH2SHC3SHCHC3H2SCSHC4SH3C2H4C5FeCHC4SC3HSHCH2C3SCHFeHCH4SC2H3C2HC2H2C2SFeC6PC2HSC4H2C8HC2FeHCH5C2H4C5PSFeCHC2HC4H4C2HCHC4PC3HC9HC3H2FeH11SCH2SFeCHSC4HSH3CHCHCHPH2CH2C2SCHC4H5C2SHCHPC7H2C2HC2H3S2FeC3H4CFeCHCH3SHSH2C2SHCH2CHCHFe2S3CFeS2C3FeHSC2H4SFeS2FeS2FeSFeS3C5HFeSH3C2HC3HCH2C6H10C6H3C4H2C6H3C2HCH2CH2C3HC2SC2HCH2SC3H5C7HCH3CHSHFeSCFeCH2CFeHCHC4H4CFeH2CHCHC6PC18HCH18FeC3PC18H9SH5C6PC18H20CHCH2C2H3CHC4PC18H10CH2C2H3C3PHC14H8C3H3SH2C2HCFePHC3FeHC6HC3SCSHCHC2SC2H3CHS2CHC2PH2SPC3H2CH4CSC3FeC2HC2HSHC2H4CHSHCFeHCHC2HCH3C2H2C4HC2SC4SHCHCHC4HCH3SCH2CH4CH2PHCHC2H2C2H3CH2PSC3SHC2HCSC5HC4H4CH2CH6SCHC3
_chemical_formula_sum              "S576 Fe288 H3456 C4320 P144"
_cell_length_a       62.0372
_cell_length_b       60.285
_cell_length_c       83.2141
_cell_angle_alpha    77.7412
_cell_angle_beta     77.5597
_cell_angle_gamma    102.706

_space_group_name_H-M_alt    "P 1"
_space_group_IT_number       1

loop_
  _space_group_symop_operation_xyz
  'x, y, z'

loop_
  _atom_site_type_symbol
  _atom_site_label
  _atom_site_symmetry_multiplicity
  _atom_site_fract_x
  _atom_site_fract_y
  _atom_site_fract_z
  _atom_site_occupancy
  S   S1        1.0  0.06145  0.35682  0.11983  1.0000
  Fe  Fe1       1.0  0.10697  0.25692  0.16108  1.0000
  S   S2        1.0  0.07440  0.23583  0.15803  1.0000
  S   S3        1.0  0.12128  0.29653  0.15167  1.0000
  Fe  Fe2       1.0  0.11917  0.21354  0.17818  1.0000
  S   S4        1.0  0.08696  0.18844  0.17698  1.0000
  S   S5        1.0  0.14805  0.20068  0.18616  1.0000
  Fe  Fe3       1.0  0.09428  0.21137  0.15035  1.0000
  S   S6        1.0  0.09073  0.19796  0.12739  1.0000
  Fe  Fe4       1.0  0.06918  0.21475  0.18495  1.0000
  S   S7        1.0  0.03209  0.20530  0.20018  1.0000
  S   S8        1.0  0.12779  0.23445  0.15083  1.0000
  S   S9        1.0  0.10051  0.23769  0.18867  1.0000
  H   H1        1.0  0.07886  0.24211  0.11229  1.0000
  H   H2        1.0  0.11430  0.25398  0.12086  1.0000
  H   H3        1.0  0.03415  0.28263  0.06541  1.0000
  Fe  Fe5       1.0  0.25833  0.26517  0.20535  1.0000
  S   S10       1.0  0.27003  0.23352  0.20171  1.0000
  S   S11       1.0  0.22122  0.26607  0.21164  1.0000
  C   C1        1.0  0.28745  0.02848  0.14863  1.0000
  C   C2        1.0  0.07430  0.16314  0.02906  1.0000
  S   S12       1.0  0.28267  0.27498  0.22088  1.0000
  H   H4        1.0  0.12125  0.32692  0.09790  1.0000
  H   H5        1.0  0.29243  0.04144  0.01866  1.0000
  H   H6        1.0  0.24603  0.11978  0.20935  1.0000
  H   H7        1.0  0.01800  0.22757  0.15594  1.0000
  H   H8        1.0  0.02367  0.26379  0.24043  1.0000
  C   C3        1.0  0.26581  0.14610  0.21858  1.0000
  S   S13       1.0  0.32350  0.26810  0.19095  1.0000
  C   C4        1.0  0.26515  0.16499  0.22592  1.0000
  H   H9        1.0  0.04561  0.30765  0.10861  1.0000
  C   C5        1.0  0.25624  0.13289  0.00891  1.0000
  C   C6        1.0  0.16879  0.21983  0.19228  1.0000
  C   C7        1.0  0.16428  0.23925  0.19760  1.0000
  C   C8        1.0  0.18053  0.25334  0.20344  1.0000
  C   C9        1.0  0.20165  0.24853  0.20356  1.0000
  C   C10       1.0  0.20646  0.22954  0.19771  1.0000
  C   C11       1.0  0.18996  0.21507  0.19230  1.0000
  H   H10       1.0  0.14805  0.24304  0.19758  1.0000
  H   H11       1.0  0.17671  0.26802  0.20789  1.0000
  H   H12       1.0  0.22266  0.22569  0.19766  1.0000
  H   H13       1.0  0.19362  0.20016  0.18812  1.0000
  C   C12       1.0  0.06226  0.18585  0.12705  1.0000
  C   C13       1.0  0.05807  0.18126  0.11199  1.0000
  C   C14       1.0  0.03547  0.17195  0.11135  1.0000
  C   C15       1.0  0.01701  0.16660  0.12590  1.0000
  C   C16       1.0  0.02129  0.17056  0.14109  1.0000
  C   C17       1.0  0.04379  0.18056  0.14159  1.0000
  H   H14       1.0  0.07231  0.18522  0.10074  1.0000
  H   H15       1.0  0.03233  0.16860  0.09968  1.0000
  C   C18       1.0  0.02460  0.28093  0.24276  1.0000
  H   H16       1.0  0.04687  0.18397  0.15327  1.0000
  C   C19       1.0  0.02404  0.21112  0.22017  1.0000
  S   S14       1.0  0.30558  0.21988  0.23464  1.0000
  C   C20       1.0  0.11090  0.19239  0.01478  1.0000
  C   C21       1.0  0.02796  0.44667  0.10544  1.0000
  C   C22       1.0  0.23799  0.30381  0.24017  1.0000
  C   C23       1.0  0.03896  0.21297  0.23056  1.0000
  H   H17       1.0  0.03679  0.46024  0.14313  1.0000
  C   C24       1.0  0.06495  0.21410  0.99930  1.0000
  H   H18       1.0  0.31176  0.09224  0.08340  1.0000
  H   H19       1.0  0.05643  0.21233  0.22590  1.0000
  C   C25       1.0  0.07751  0.33952  0.12886  1.0000
  C   C26       1.0  0.10062  0.35001  0.12728  1.0000
  C   C27       1.0  0.11374  0.33674  0.13459  1.0000
  C   C28       1.0  0.10404  0.31272  0.14311  1.0000
  C   C29       1.0  0.08107  0.30209  0.14437  1.0000
  C   C30       1.0  0.06769  0.31553  0.13749  1.0000
  H   H20       1.0  0.10831  0.36851  0.12060  1.0000
  H   H21       1.0  0.13153  0.34503  0.13349  1.0000
  H   H22       1.0  0.07364  0.28356  0.15062  1.0000
  H   H23       1.0  0.04998  0.30716  0.13855  1.0000
  C   C31       1.0  0.01159  0.39634  0.22720  1.0000
  H   H24       1.0  0.15342  0.18719  0.00917  1.0000
  S   S15       1.0  0.99562  0.32708  0.19821  1.0000
  C   C32       1.0  0.00145  0.21203  0.22632  1.0000
  C   C33       1.0  0.28251  0.01152  0.16437  1.0000
  C   C34       1.0  0.06432  0.50281  0.15843  1.0000
  C   C35       1.0  0.07636  0.16666  0.04476  1.0000
  C   C36       1.0  0.09590  0.18270  0.04557  1.0000
  C   C37       1.0  0.11341  0.19575  0.03055  1.0000
  H   H25       1.0  0.21114  0.16857  0.22586  1.0000
  P   P1        1.0  0.13883  0.21672  0.03129  1.0000
  C   C38       1.0  0.13411  0.22256  0.05202  1.0000
  C   C39       1.0  0.16365  0.20546  0.02733  1.0000
  C   C40       1.0  0.16641  0.19198  0.01556  1.0000
  H   H26       1.0  0.30751  0.06064  0.03903  1.0000
  H   H27       1.0  0.31996  0.11244  0.19498  1.0000
  C   C41       1.0  0.23935  0.16189  0.17141  1.0000
  C   C42       1.0  0.05126  0.48089  0.15822  1.0000
  C   C43       1.0  0.13392  0.20531  0.06640  1.0000
  C   C44       1.0  0.12895  0.20908  0.08265  1.0000
  C   C45       1.0  0.12455  0.23023  0.08460  1.0000
  C   C46       1.0  0.12497  0.24761  0.07036  1.0000
  C   C47       1.0  0.12975  0.24384  0.05410  1.0000
  C   C48       1.0  0.14476  0.24401  0.01492  1.0000
  H   H28       1.0  0.01375  0.49764  0.13275  1.0000
  H   H29       1.0  0.02602  0.23933  0.99855  1.0000
  H   H30       1.0  0.00308  0.28077  0.21767  1.0000
  H   H31       1.0  0.03765  0.25552  0.16786  1.0000
  H   H32       1.0  0.09144  0.48185  0.08579  1.0000
  H   H33       1.0  0.27097  0.04874  0.22665  1.0000
  C   C49       1.0  0.31340  0.07385  0.10804  1.0000
  H   H34       1.0  0.06263  0.15708  0.05629  1.0000
  H   H35       1.0  0.09686  0.18506  0.05792  1.0000
  C   C50       1.0  0.30983  0.06005  0.17113  1.0000
  H   H36       1.0  0.23528  0.01317  0.14063  1.0000
  C   C51       1.0  0.07758  0.27338  0.22672  1.0000
  P   P2        1.0  0.29137  0.13613  0.21399  1.0000
  H   H37       1.0  0.27684  0.34070  0.20375  1.0000
  C   C52       1.0  0.06022  0.42409  0.11442  1.0000
  H   H38       1.0  0.13701  0.18868  0.06511  1.0000
  H   H39       1.0  0.12802  0.19547  0.09385  1.0000
  H   H40       1.0  0.12057  0.23300  0.09721  1.0000
  H   H41       1.0  0.12125  0.26387  0.07201  1.0000
  H   H42       1.0  0.12968  0.25742  0.04329  1.0000
  C   C53       1.0  0.23888  0.13913  0.00219  1.0000
  C   C54       1.0  0.09184  0.50019  0.08146  1.0000
  H   H43       1.0  0.22122  0.12839  0.00762  1.0000
  C   C55       1.0  0.01621  0.22951  0.14309  1.0000
  H   H44       1.0  0.21600  0.21164  0.03545  1.0000
  C   C56       1.0  0.05623  0.21931  0.01462  1.0000
  H   H45       1.0  0.21132  0.13409  0.21409  1.0000
  H   H46       1.0  0.31078  0.22647  0.12787  1.0000
  H   H47       1.0  0.27630  0.08887  0.20862  1.0000
  C   C57       1.0  0.26785  0.25566  0.08417  1.0000
  C   C58       1.0  0.27907  0.23906  0.08002  1.0000
  C   C59       1.0  0.27539  0.21772  0.09219  1.0000
  C   C60       1.0  0.26013  0.21273  0.10842  1.0000
  C   C61       1.0  0.24851  0.22918  0.11262  1.0000
  C   C62       1.0  0.25264  0.25077  0.10039  1.0000
  P   P3        1.0  0.22729  0.22225  0.13301  1.0000
  C   C63       1.0  0.19861  0.21261  0.13076  1.0000
  C   C64       1.0  0.23189  0.19874  0.14826  1.0000
  C   C65       1.0  0.22387  0.17520  0.14795  1.0000
  C   C66       1.0  0.22764  0.15687  0.15946  1.0000
  C   C67       1.0  0.24349  0.20360  0.16043  1.0000
  C   C68       1.0  0.18042  0.19921  0.14520  1.0000
  C   C69       1.0  0.15810  0.19196  0.14371  1.0000
  C   C70       1.0  0.15372  0.19805  0.12783  1.0000
  C   C71       1.0  0.17168  0.21142  0.11338  1.0000
  C   C72       1.0  0.19407  0.21867  0.11481  1.0000
  C   C73       1.0  0.23018  0.24799  0.14108  1.0000
  C   C74       1.0  0.21082  0.25261  0.15057  1.0000
  C   C75       1.0  0.21351  0.27132  0.15810  1.0000
  C   C76       1.0  0.23548  0.28532  0.15644  1.0000
  C   C77       1.0  0.25478  0.28102  0.14682  1.0000
  C   C78       1.0  0.25215  0.26259  0.13904  1.0000
  H   H48       1.0  0.27089  0.27231  0.07476  1.0000
  H   H49       1.0  0.29081  0.24280  0.06743  1.0000
  H   H50       1.0  0.28455  0.20513  0.08905  1.0000
  H   H51       1.0  0.25757  0.19607  0.11757  1.0000
  H   H52       1.0  0.24386  0.26370  0.10336  1.0000
  H   H53       1.0  0.21475  0.17105  0.13875  1.0000
  H   H54       1.0  0.22139  0.13876  0.15915  1.0000
  H   H55       1.0  0.24974  0.22147  0.16117  1.0000
  H   H56       1.0  0.18331  0.19481  0.15775  1.0000
  H   H57       1.0  0.14408  0.18214  0.15503  1.0000
  H   H58       1.0  0.13630  0.19272  0.12682  1.0000
  H   H59       1.0  0.16816  0.21641  0.10113  1.0000
  H   H60       1.0  0.20762  0.22915  0.10348  1.0000
  H   H61       1.0  0.19364  0.24150  0.15268  1.0000
  H   H62       1.0  0.19854  0.27441  0.16576  1.0000
  H   H63       1.0  0.23751  0.29910  0.16295  1.0000
  H   H64       1.0  0.27186  0.29133  0.14593  1.0000
  H   H65       1.0  0.26737  0.25900  0.13217  1.0000
  H   H66       1.0  0.02546  0.16172  0.00582  1.0000
  C   C79       1.0  0.99675  0.26280  0.19899  1.0000
  C   C80       1.0  0.32550  0.05744  0.15718  1.0000
  C   C81       1.0  0.29056  0.09754  0.00207  1.0000
  S   S16       1.0  0.00534  0.31229  0.15387  1.0000
  H   H67       1.0  0.01478  0.45465  0.10251  1.0000
  C   C82       1.0  0.30265  0.07092  0.02875  1.0000
  C   C83       1.0  0.18158  0.21218  0.03469  1.0000
  C   C84       1.0  0.32194  0.12597  0.16852  1.0000
  H   H68       1.0  0.29651  0.16727  0.15305  1.0000
  C   C85       1.0  0.18670  0.18541  0.01122  1.0000
  H   H69       1.0  0.32757  0.31149  0.23303  1.0000
  C   C86       1.0  0.02567  0.18265  0.02385  1.0000
  H   H70       1.0  0.13541  0.29631  0.11404  1.0000
  H   H71       1.0  0.07807  0.45746  0.11686  1.0000
  C   C87       1.0  0.30097  0.15470  0.16227  1.0000
  H   H72       1.0  0.03157  0.49353  0.21299  1.0000
  C   C88       1.0  0.29851  0.14560  0.03213  1.0000
  C   C89       1.0  0.29504  0.15582  0.06384  1.0000
  C   C90       1.0  0.20186  0.20559  0.03030  1.0000
  H   H73       1.0  0.25181  0.11720  0.01950  1.0000
  C   C91       1.0  0.26973  0.33085  0.21710  1.0000
  H   H74       1.0  0.07243  0.41504  0.11812  1.0000
  C   C92       1.0  0.29337  0.15284  0.17969  1.0000
  H   H75       1.0  0.31285  0.13232  0.12023  1.0000
  C   C93       1.0  0.16736  0.25865  0.00770  1.0000
  C   C94       1.0  0.12684  0.25096  0.00936  1.0000
  H   H76       1.0  0.09661  0.25373  0.24000  1.0000
  H   H77       1.0  0.18156  0.25385  0.01175  1.0000
  C   C95       1.0  0.03022  0.26087  0.17884  1.0000
  H   H78       1.0  0.29808  0.34108  0.14894  1.0000
  C   C96       1.0  0.03390  0.17790  0.00823  1.0000
  C   C97       1.0  0.09289  0.36690  0.18310  1.0000
  C   C98       1.0  0.08433  0.37197  0.16893  1.0000
  C   C99       1.0  0.06565  0.35557  0.16741  1.0000
  C   C100      1.0  0.05555  0.33403  0.17995  1.0000
  C   C101      1.0  0.06437  0.32855  0.19402  1.0000
  C   C102      1.0  0.08295  0.34528  0.19561  1.0000
  P   P4        1.0  0.05326  0.29980  0.20943  1.0000
  C   C103      1.0  0.07770  0.28863  0.21135  1.0000
  S   S17       1.0  0.29867  0.24972  0.15350  1.0000
  H   H79       1.0  0.30449  0.06501  0.19646  1.0000
  H   H80       1.0  0.22061  0.18824  0.01450  1.0000
  C   C104      1.0  0.09740  0.29558  0.19736  1.0000
  C   C105      1.0  0.11685  0.28815  0.19894  1.0000
  C   C106      1.0  0.27022  0.02903  0.14014  1.0000
  C   C107      1.0  0.22641  0.14271  0.21735  1.0000
  H   H81       1.0  0.25984  0.15416  0.06457  1.0000
  C   C108      1.0  0.03492  0.28041  0.20102  1.0000
  C   C109      1.0  0.04449  0.27293  0.18697  1.0000
  C   C110      1.0  0.24717  0.18523  0.17195  1.0000
  H   H82       1.0  0.31040  0.18771  0.20341  1.0000
  C   C111      1.0  0.29881  0.10847  0.01373  1.0000
  H   H83       1.0  0.31422  0.09757  0.14173  1.0000
  H   H84       1.0  0.10755  0.37948  0.18418  1.0000
  H   H85       1.0  0.09230  0.38842  0.15899  1.0000
  H   H86       1.0  0.05923  0.35931  0.15632  1.0000
  H   H87       1.0  0.04112  0.32162  0.17840  1.0000
  H   H88       1.0  0.09008  0.34127  0.20632  1.0000
  Fe  Fe6       1.0  0.29547  0.25909  0.17828  1.0000
  S   S18       1.0  0.01555  0.36839  0.15330  1.0000
  H   H89       1.0  0.09781  0.30660  0.18512  1.0000
  H   H90       1.0  0.13180  0.29338  0.18798  1.0000
  C   C112      1.0  0.27502  0.31795  0.24535  1.0000
  H   H91       1.0  0.29200  0.05805  0.17127  1.0000
  C   C113      1.0  0.01094  0.27497  0.20707  1.0000
  H   H92       1.0  0.06293  0.27695  0.18200  1.0000
  C   C114      1.0  0.24697  0.31680  0.22301  1.0000
  H   H93       1.0  0.01539  0.16461  0.18437  1.0000
  H   H94       1.0  0.06264  0.26716  0.23762  1.0000
  H   H95       1.0  0.25609  0.18929  0.18129  1.0000
  H   H96       1.0  0.04594  0.33995  0.22306  1.0000
  C   C115      1.0  0.32060  0.21782  0.04392  1.0000
  H   H97       1.0  0.27968  0.17386  0.22953  1.0000
  C   C116      1.0  0.20445  0.19229  0.01853  1.0000
  C   C117      1.0  0.32129  0.18003  0.21013  1.0000
  H   H98       1.0  0.29690  0.33527  0.12043  1.0000
  C   C118      1.0  0.30507  0.09501  0.02700  1.0000
  C   C119      1.0  0.31232  0.11452  0.10054  1.0000
  H   H99       1.0  0.10927  0.24002  0.01463  1.0000
  C   C120      1.0  0.99758  0.21457  0.14030  1.0000
  C   C121      1.0  0.31423  0.07509  0.12459  1.0000
  H   H100      1.0  0.13159  0.26717  0.21546  1.0000
  C   C122      1.0  0.05762  0.49517  0.12752  1.0000
  H   H101      1.0  0.02107  0.34784  0.07114  1.0000
  C   C123      1.0  0.31409  0.12384  0.18598  1.0000
  H   H102      1.0  0.29566  0.01018  0.17094  1.0000
  P   P5        1.0  0.05157  0.49057  0.10801  1.0000
  H   H103      1.0  0.01598  0.49615  0.24241  1.0000
  H   H104      1.0  0.24230  0.14768  0.18026  1.0000
  C   C124      1.0  0.24552  0.17303  0.22849  1.0000
  H   H105      1.0  0.04312  0.46702  0.17006  1.0000
  H   H106      1.0  0.00441  0.12564  0.17843  1.0000
  P   P6        1.0  0.30127  0.13949  0.01151  1.0000
  H   H107      1.0  0.06485  0.23540  0.01703  1.0000
  C   C125      1.0  0.99894  0.15197  0.19150  1.0000
  H   H108      1.0  0.28343  0.16435  0.18366  1.0000
  C   C126      1.0  0.13152  0.27188  0.99647  1.0000
  H   H109      1.0  0.12361  0.20283  0.00291  1.0000
  H   H110      1.0  0.00561  0.40122  0.23882  1.0000
  C   C127      1.0  0.31073  0.33186  0.12572  1.0000
  H   H111      1.0  0.03348  0.37810  0.18603  1.0000
  C   C128      1.0  0.24608  0.13469  0.21467  1.0000
  Fe  Fe7       1.0  0.29659  0.24549  0.21496  1.0000
  H   H112      1.0  0.02194  0.31781  0.05484  1.0000
  H   H113      1.0  0.03275  0.34240  0.09806  1.0000
  C   C129      1.0  0.22623  0.16207  0.22406  1.0000
  S   S19       1.0  0.32739  0.01718  0.04283  1.0000
  C   C130      1.0  0.27911  0.14705  0.00219  1.0000
  C   C131      1.0  0.03285  0.24650  0.12928  1.0000
  C   C132      1.0  0.03123  0.24814  0.11250  1.0000
  C   C133      1.0  0.01197  0.23367  0.10989  1.0000
  P   P7        1.0  0.05331  0.26877  0.09434  1.0000
  C   C134      1.0  0.07951  0.27793  0.10026  1.0000
  C   C135      1.0  0.06128  0.25483  0.07763  1.0000
  C   C136      1.0  0.07384  0.26864  0.06101  1.0000
  C   C137      1.0  0.08003  0.25783  0.04807  1.0000
  C   C138      1.0  0.07427  0.23319  0.05178  1.0000
  C   C139      1.0  0.06252  0.21938  0.06839  1.0000
  C   C140      1.0  0.05615  0.23015  0.08128  1.0000
  C   C141      1.0  0.09203  0.30184  0.09581  1.0000
  C   C142      1.0  0.11217  0.30841  0.10071  1.0000
  C   C143      1.0  0.12020  0.29117  0.10976  1.0000
  C   C144      1.0  0.10820  0.26734  0.11377  1.0000
  C   C145      1.0  0.08803  0.26070  0.10896  1.0000
  C   C146      1.0  0.04229  0.29331  0.08720  1.0000
  C   C147      1.0  0.04078  0.30980  0.09673  1.0000
  C   C148      1.0  0.03341  0.32953  0.09081  1.0000
  C   C149      1.0  0.02699  0.33265  0.07557  1.0000
  C   C150      1.0  0.02767  0.31586  0.06634  1.0000
  C   C151      1.0  0.03484  0.29599  0.07230  1.0000
  C   C152      1.0  0.31372  0.09618  0.12907  1.0000
  C   C153      1.0  0.03503  0.39859  0.22098  1.0000
  H   H114      1.0  0.05899  0.15095  0.02841  1.0000
  H   H115      1.0  0.04704  0.25805  0.13177  1.0000
  H   H116      1.0  0.00994  0.23518  0.09712  1.0000
  H   H117      1.0  0.07866  0.28775  0.05806  1.0000
  H   H118      1.0  0.08927  0.26853  0.03518  1.0000
  H   H119      1.0  0.07894  0.22471  0.04184  1.0000
  H   H120      1.0  0.05812  0.20028  0.07130  1.0000
  H   H121      1.0  0.04720  0.21918  0.09408  1.0000
  H   H122      1.0  0.08629  0.31554  0.08874  1.0000
  H   H123      1.0  0.29393  0.16042  0.07585  1.0000
  H   H124      1.0  0.31101  0.22964  0.02077  1.0000
  C   C154      1.0  0.03664  0.20355  0.02694  1.0000
  Fe  Fe8       1.0  0.02445  0.34728  0.13505  1.0000
  C   C155      1.0  0.03716  0.32367  0.23296  1.0000
  H   H125      1.0  0.29431  0.00673  0.20262  1.0000
  C   C156      1.0  0.04776  0.47709  0.14287  1.0000
  H   H126      1.0  0.03036  0.20730  0.03896  1.0000
  H   H127      1.0  0.32166  0.22860  0.17681  1.0000
  S   S20       1.0  0.00157  0.19352  0.07799  1.0000
  C   C157      1.0  0.02494  0.42274  0.10625  1.0000
  S   S21       1.0  0.28231  0.29013  0.18101  1.0000
  C   C158      1.0  0.28364  0.33161  0.22825  1.0000
  H   H128      1.0  0.18905  0.17595  0.00156  1.0000
  H   H129      1.0  0.27354  0.04154  0.12788  1.0000
  C   C159      1.0  0.09696  0.26572  0.22818  1.0000
  H   H130      1.0  0.00439  0.42976  0.18253  1.0000
  H   H131      1.0  0.00964  0.41267  0.10400  1.0000
  C   C160      1.0  0.31550  0.14153  0.15667  1.0000
  C   C161      1.0  0.02590  0.49903  0.10603  1.0000
  C   C162      1.0  0.29409  0.06010  0.01728  1.0000
  C   C163      1.0  0.04111  0.41152  0.11062  1.0000
  C   C164      1.0  0.02753  0.38357  0.19740  1.0000
  H   H132      1.0  0.99551  0.24675  0.17831  1.0000
  C   C165      1.0  0.31684  0.06426  0.18535  1.0000
  H   H133      1.0  0.30521  0.20329  0.04953  1.0000
  C   C166      1.0  0.27833  0.08673  0.22139  1.0000
  H   H134      1.0  0.03861  0.39294  0.11136  1.0000
  C   C167      1.0  0.24836  0.01304  0.14738  1.0000
  H   H135      1.0  0.32257  0.14425  0.14312  1.0000
  C   C168      1.0  0.00990  0.24391  0.00098  1.0000
  H   H136      1.0  0.24539  0.18800  0.23377  1.0000
  H   H137      1.0  0.31191  0.10290  0.03604  1.0000
  H   H138      1.0  0.06104  0.39342  0.20139  1.0000
  H   H139      1.0  0.00712  0.16634  0.15240  1.0000
  S   S22       1.0  0.31223  0.02759  0.22659  1.0000
  C   C169      1.0  0.04739  0.45963  0.10888  1.0000
  C   C170      1.0  0.04298  0.39206  0.20612  1.0000
  C   C171      1.0  0.06332  0.44803  0.11365  1.0000
  C   C172      1.0  0.27590  0.15246  0.05742  1.0000
  C   C173      1.0  0.31593  0.15427  0.05445  1.0000
  C   C174      1.0  0.03735  0.30168  0.22985  1.0000
  H   H140      1.0  0.31211  0.12990  0.09116  1.0000
  H   H141      1.0  0.23638  0.31564  0.21425  1.0000
  Fe  Fe9       1.0  0.30804  0.29698  0.19592  1.0000
  C   C175      1.0  0.27762  0.14749  0.04159  1.0000
  C   C176      1.0  0.29958  0.13711  0.19169  1.0000
  C   C177      1.0  0.31138  0.33517  0.14173  1.0000
  C   C178      1.0  0.00640  0.25585  0.18479  1.0000
  C   C179      1.0  0.28465  0.10643  0.22760  1.0000
  H   H142      1.0  0.26266  0.14544  0.03682  1.0000
  C   C180      1.0  0.31290  0.11587  0.11699  1.0000
  C   C181      1.0  0.31518  0.22988  0.15225  1.0000
  H   H143      1.0  0.18036  0.22334  0.04328  1.0000
  C   C182      1.0  0.31225  0.09341  0.09615  1.0000
  C   C183      1.0  0.31764  0.14893  0.03875  1.0000
  H   H144      1.0  0.22039  0.29270  0.24459  1.0000
  H   H145      1.0  0.04700  0.40520  0.22774  1.0000
  C   C184      1.0  0.11667  0.27328  0.21436  1.0000
  C   C185      1.0  0.28799  0.07340  0.00396  1.0000
  C   C186      1.0  0.09165  0.17586  0.01411  1.0000
  H   H146      1.0  0.31379  0.05777  0.10424  1.0000
  C   C187      1.0  0.31636  0.15544  0.21659  1.0000
  C   C188      1.0  0.31912  0.22172  0.13770  1.0000
  H   H147      1.0  0.30119  0.34265  0.22333  1.0000
  P   P8        1.0  0.31562  0.04943  0.13971  1.0000
  C   C189      1.0  0.27499  0.06393  0.23162  1.0000
  S   S23       1.0  0.00244  0.16145  0.03947  1.0000
  H   H148      1.0  0.31056  0.25022  0.10021  1.0000
  H   H149      1.0  0.03254  0.50166  0.07896  1.0000
  C   C190      1.0  0.28580  0.10284  0.24458  1.0000
  C   C191      1.0  0.01077  0.50152  0.12025  1.0000
  H   H150      1.0  0.32531  0.26904  0.23141  1.0000
  C   C192      1.0  0.00414  0.38140  0.20355  1.0000
  C   C193      1.0  0.32376  0.23284  0.02767  1.0000
  H   H151      1.0  0.00362  0.23264  0.02837  1.0000
  C   C194      1.0  0.32516  0.22285  0.16533  1.0000
  H   H152      1.0  0.32543  0.18944  0.00433  1.0000
  C   C195      1.0  0.99547  0.21666  0.12372  1.0000
  C   C196      1.0  0.99592  0.38741  0.21864  1.0000
  C   C197      1.0  0.99736  0.24026  0.01789  1.0000
  H   H153      1.0  0.08982  0.17353  0.00187  1.0000
  C   C198      1.0  0.32676  0.26377  0.09460  1.0000
  H   H154      1.0  0.32737  0.32213  0.10400  1.0000
  H   H155      1.0  0.32686  0.27345  0.11795  1.0000
  H   H156      1.0  0.99561  0.40133  0.16576  1.0000
  C   C199      1.0  0.99600  0.43388  0.17261  1.0000
  S   S24       1.0  0.99561  0.35086  0.12317  1.0000
  S   S25       1.0  0.99591  0.47478  0.18199  1.0000
  H   H157      1.0  0.26156  0.13892  0.31993  1.0000
  H   H158      1.0  0.04478  0.19260  0.43917  1.0000
  C   C200      1.0  0.00380  0.23884  0.39831  1.0000
  C   C201      1.0  0.02575  0.40038  0.43314  1.0000
  C   C202      1.0  0.99743  0.33185  0.48627  1.0000
  C   C203      1.0  0.31293  0.18571  0.33777  1.0000
  C   C204      1.0  0.25185  0.30461  0.25138  1.0000
  C   C205      1.0  0.28688  0.24707  0.27187  1.0000
  C   C206      1.0  0.27718  0.38504  0.40412  1.0000
  C   C207      1.0  0.00580  0.26101  0.36983  1.0000
  C   C208      1.0  0.11929  0.17858  0.47169  1.0000
  C   C209      1.0  0.00367  0.21219  0.32655  1.0000
  C   C210      1.0  0.26012  0.35099  0.30072  1.0000
  H   H159      1.0  0.11834  0.44093  0.46276  1.0000
  S   S26       1.0  0.11926  0.34507  0.43386  1.0000
  S   S27       1.0  0.06974  0.48174  0.39530  1.0000
  H   H160      1.0  0.27575  0.04300  0.25581  1.0000
  C   C211      1.0  0.31953  0.18194  0.32156  1.0000
  S   S28       1.0  0.02199  0.29959  0.42482  1.0000
  C   C212      1.0  0.15092  0.41896  0.43534  1.0000
  H   H161      1.0  0.03173  0.46400  0.35942  1.0000
  H   H162      1.0  0.00725  0.39468  0.35616  1.0000
  H   H163      1.0  0.13319  0.17590  0.46260  1.0000
  C   C213      1.0  0.03952  0.24314  0.44950  1.0000
  C   C214      1.0  0.28882  0.17616  0.27666  1.0000
  S   S29       1.0  0.01994  0.34819  0.38217  1.0000
  H   H164      1.0  0.26151  0.37926  0.27941  1.0000
  C   C215      1.0  0.29292  0.17264  0.29277  1.0000
  C   C216      1.0  0.04724  0.45818  0.39534  1.0000
  C   C217      1.0  0.02461  0.45945  0.39954  1.0000
  S   S30       1.0  0.14357  0.40579  0.48809  1.0000
  C   C218      1.0  0.99609  0.24042  0.38351  1.0000
  C   C219      1.0  0.03383  0.41930  0.39092  1.0000
  C   C220      1.0  0.05187  0.43807  0.39104  1.0000
  H   H165      1.0  0.02085  0.47474  0.40302  1.0000
  H   H166      1.0  0.31524  0.21112  0.35255  1.0000
  H   H167      1.0  0.03741  0.40377  0.38769  1.0000
  H   H168      1.0  0.06938  0.43697  0.38785  1.0000
  C   C221      1.0  0.09160  0.33384  0.43180  1.0000
  C   C222      1.0  0.07450  0.31725  0.44549  1.0000
  C   C223      1.0  0.05304  0.30724  0.44326  1.0000
  C   C224      1.0  0.04840  0.31406  0.42744  1.0000
  C   C225      1.0  0.06519  0.33130  0.41392  1.0000
  C   C226      1.0  0.08685  0.34098  0.41605  1.0000
  H   H169      1.0  0.07796  0.31182  0.45771  1.0000
  H   H170      1.0  0.03993  0.29434  0.45386  1.0000
  H   H171      1.0  0.06172  0.33671  0.40171  1.0000
  H   H172      1.0  0.10001  0.35392  0.40545  1.0000
  C   C227      1.0  0.03088  0.21451  0.24735  1.0000
  C   C228      1.0  0.00593  0.43125  0.46509  1.0000
  C   C229      1.0  0.00520  0.20680  0.35597  1.0000
  C   C230      1.0  0.06960  0.45619  0.46886  1.0000
  C   C231      1.0  0.28269  0.08006  0.25472  1.0000
  C   C232      1.0  0.00799  0.21454  0.25369  1.0000
  H   H173      1.0  0.29478  0.16731  0.25268  1.0000
  H   H174      1.0  0.06797  0.49023  0.35930  1.0000
  C   C233      1.0  0.07825  0.49542  0.44981  1.0000
  H   H175      1.0  0.16861  0.41904  0.43054  1.0000
  H   H176      1.0  0.13384  0.30413  0.43041  1.0000
  H   H177      1.0  0.16743  0.27554  0.46653  1.0000
  H   H178      1.0  0.03025  0.29546  0.36031  1.0000
  H   H179      1.0  0.99680  0.22336  0.40908  1.0000
  C   C234      1.0  0.30779  0.37654  0.45074  1.0000
  H   H180      1.0  0.06723  0.48733  0.47718  1.0000
  C   C235      1.0  0.11352  0.27197  0.44958  1.0000
  C   C236      1.0  0.30539  0.15676  0.29769  1.0000
  H   H181      1.0  0.02610  0.26480  0.48225  1.0000
  C   C237      1.0  0.30251  0.24522  0.28158  1.0000
  H   H182      1.0  0.05931  0.28885  0.48911  1.0000
  H   H183      1.0  0.02359  0.22279  0.43472  1.0000
  C   C238      1.0  0.28768  0.12346  0.35105  1.0000
  C   C239      1.0  0.00322  0.48405  0.47449  1.0000
  H   H184      1.0  0.08948  0.49834  0.42287  1.0000
  H   H185      1.0  0.01584  0.49699  0.46353  1.0000
  S   S31       1.0  0.30999  0.33222  0.49362  1.0000
  H   H186      1.0  0.09767  0.40272  0.48478  1.0000
  C   C240      1.0  0.08395  0.48659  0.43573  1.0000
  H   H187      1.0  0.27175  0.26998  0.25761  1.0000
  H   H188      1.0  0.04321  0.29268  0.38670  1.0000
  C   C241      1.0  0.31032  0.33162  0.44659  1.0000
  H   H189      1.0  0.15861  0.44168  0.45133  1.0000
  C   C242      1.0  0.28329  0.26900  0.26559  1.0000
  H   H190      1.0  0.32091  0.30275  0.28116  1.0000
  C   C243      1.0  0.07115  0.48026  0.46635  1.0000
  C   C244      1.0  0.28085  0.34734  0.39997  1.0000
  C   C245      1.0  0.27226  0.36687  0.39632  1.0000
  H   H191      1.0  0.01076  0.21163  0.31356  1.0000
  H   H192      1.0  0.27800  0.30234  0.29771  1.0000
  C   C246      1.0  0.02517  0.32479  0.24894  1.0000
  H   H193      1.0  0.01894  0.43683  0.47135  1.0000
  C   C247      1.0  0.29437  0.39487  0.47842  1.0000
  H   H194      1.0  0.00305  0.16053  0.26010  1.0000
  H   H195      1.0  0.13798  0.39574  0.42108  1.0000
  C   C248      1.0  0.28777  0.31666  0.45239  1.0000
  H   H196      1.0  0.25226  0.35871  0.31026  1.0000
  C   C249      1.0  0.15296  0.29171  0.44741  1.0000
  C   C250      1.0  0.01118  0.42067  0.39522  1.0000
  H   H197      1.0  0.26188  0.36798  0.38740  1.0000
  C   C251      1.0  0.31753  0.39661  0.47170  1.0000
  C   C252      1.0  0.31096  0.28723  0.27880  1.0000
  Fe  Fe10      1.0  0.13309  0.36874  0.48561  1.0000
  C   C253      1.0  0.01435  0.20576  0.33930  1.0000
  C   C254      1.0  0.02308  0.27953  0.37085  1.0000
  H   H198      1.0  0.28907  0.40121  0.48947  1.0000
  H   H199      1.0  0.02509  0.34178  0.25126  1.0000
  C   C255      1.0  0.03044  0.27794  0.38566  1.0000
  H   H200      1.0  0.28664  0.18254  0.30128  1.0000
  C   C256      1.0  0.01975  0.49190  0.34609  1.0000
  C   C257      1.0  0.03671  0.36487  0.44263  1.0000
  C   C258      1.0  0.05302  0.37732  0.44912  1.0000
  C   C259      1.0  0.05627  0.40166  0.44719  1.0000
  C   C260      1.0  0.04259  0.41313  0.43902  1.0000
  P   P9        1.0  0.07530  0.41668  0.45758  1.0000
  C   C261      1.0  0.06444  0.40060  0.47994  1.0000
  C   C262      1.0  0.10480  0.41731  0.44874  1.0000
  H   H201      1.0  0.01695  0.46399  0.44511  1.0000
  H   H202      1.0  0.27722  0.33335  0.39382  1.0000
  C   C263      1.0  0.31340  0.14430  0.28634  1.0000
  C   C264      1.0  0.11309  0.19968  0.46815  1.0000
  C   C265      1.0  0.11067  0.40486  0.43674  1.0000
  C   C266      1.0  0.28298  0.29397  0.46326  1.0000
  C   C267      1.0  0.07532  0.44721  0.45473  1.0000
  C   C268      1.0  0.00136  0.42908  0.35179  1.0000
  H   H203      1.0  0.02623  0.25691  0.41096  1.0000
  C   C269      1.0  0.09528  0.20343  0.47995  1.0000
  C   C270      1.0  0.29711  0.16387  0.26540  1.0000
  H   H204      1.0  0.00392  0.30476  0.27429  1.0000
  H   H205      1.0  0.03443  0.34620  0.44399  1.0000
  H   H206      1.0  0.06299  0.36789  0.45574  1.0000
  H   H207      1.0  0.04442  0.43176  0.43740  1.0000
  C   C271      1.0  0.14529  0.43178  0.44698  1.0000
  P   P10       1.0  0.31099  0.15291  0.31839  1.0000
  H   H208      1.0  0.27919  0.36165  0.25757  1.0000
  H   H209      1.0  0.16815  0.30655  0.44137  1.0000
  H   H210      1.0  0.09777  0.39432  0.43245  1.0000
  C   C272      1.0  0.32301  0.30117  0.46300  1.0000
  H   H211      1.0  0.31284  0.10455  0.31982  1.0000
  C   C273      1.0  0.28033  0.33091  0.27599  1.0000
  H   H212      1.0  0.30607  0.22846  0.28576  1.0000
  H   H213      1.0  0.27377  0.32274  0.44896  1.0000
  H   H214      1.0  0.08746  0.45616  0.42707  1.0000
  S   S32       1.0  0.15508  0.35627  0.46623  1.0000
  C   C274      1.0  0.31447  0.26530  0.28510  1.0000
  H   H215      1.0  0.25983  0.38183  0.47702  1.0000
  H   H216      1.0  0.02992  0.20037  0.33616  1.0000
  C   C275      1.0  0.30062  0.28621  0.46852  1.0000
  H   H217      1.0  0.09871  0.27189  0.44474  1.0000
  H   H218      1.0  0.30252  0.17132  0.34876  1.0000
  H   H219      1.0  0.00585  0.50112  0.31174  1.0000
  C   C276      1.0  0.28560  0.13451  0.33501  1.0000
  H   H220      1.0  0.01407  0.20251  0.36558  1.0000
  H   H221      1.0  0.27066  0.40025  0.40121  1.0000
  H   H222      1.0  0.26061  0.32028  0.31925  1.0000
  C   C277      1.0  0.26821  0.10910  0.36402  1.0000
  C   C278      1.0  0.24652  0.10559  0.36109  1.0000
  C   C279      1.0  0.24430  0.11645  0.34516  1.0000
  C   C280      1.0  0.26374  0.13085  0.33216  1.0000
  C   C281      1.0  0.05618  0.49754  0.35338  1.0000
  C   C282      1.0  0.03548  0.48262  0.35332  1.0000
  C   C283      1.0  0.27536  0.35256  0.27101  1.0000
  C   C284      1.0  0.29529  0.28928  0.26904  1.0000
  C   C285      1.0  0.06726  0.22804  0.46194  1.0000
  H   H223      1.0  0.02892  0.39459  0.47971  1.0000
  H   H224      1.0  0.30438  0.12602  0.35353  1.0000
  C   C286      1.0  0.00471  0.44664  0.45040  1.0000
  C   C287      1.0  0.12237  0.43112  0.45356  1.0000
  C   C288      1.0  0.00944  0.47564  0.48932  1.0000
  H   H225      1.0  0.29684  0.26891  0.47732  1.0000
  H   H226      1.0  0.26550  0.28266  0.46802  1.0000
  H   H227      1.0  0.29439  0.39795  0.42149  1.0000
  H   H228      1.0  0.07236  0.19567  0.45644  1.0000
  H   H229      1.0  0.12220  0.21308  0.45621  1.0000
  C   C289      1.0  0.11281  0.25442  0.46400  1.0000
  C   C290      1.0  0.29052  0.38361  0.41568  1.0000
  H   H230      1.0  0.00869  0.30532  0.47574  1.0000
  H   H231      1.0  0.22749  0.11367  0.34286  1.0000
  C   C291      1.0  0.03574  0.22422  0.44229  1.0000
  C   C292      1.0  0.01271  0.28210  0.25870  1.0000
  C   C293      1.0  0.32421  0.38732  0.45800  1.0000
  H   H232      1.0  0.01476  0.40915  0.42738  1.0000
  C   C294      1.0  0.28450  0.37462  0.45768  1.0000
  C   C295      1.0  0.08269  0.46264  0.43816  1.0000
  C   C296      1.0  0.04062  0.39119  0.48719  1.0000
  C   C297      1.0  0.13365  0.40573  0.43009  1.0000
  H   H233      1.0  0.30089  0.33073  0.41415  1.0000
  H   H234      1.0  0.06440  0.44481  0.48178  1.0000
  C   C298      1.0  0.27787  0.38392  0.47138  1.0000
  C   C299      1.0  0.05527  0.24509  0.45925  1.0000
  C   C300      1.0  0.02077  0.25766  0.39939  1.0000
  P   P11       1.0  0.29303  0.31836  0.25975  1.0000
  P   P12       1.0  0.08699  0.23044  0.47503  1.0000
  C   C301      1.0  0.29416  0.34585  0.41155  1.0000
  C   C302      1.0  0.29873  0.36379  0.41970  1.0000
  H   H235      1.0  0.27134  0.36527  0.45293  1.0000
  C   C303      1.0  0.13264  0.25554  0.46976  1.0000
  H   H236      1.0  0.05828  0.26002  0.46460  1.0000
  C   C304      1.0  0.13357  0.29041  0.44130  1.0000
  H   H237      1.0  0.03029  0.25638  0.44750  1.0000
  H   H238      1.0  0.27982  0.18890  0.27263  1.0000
  H   H239      1.0  0.04225  0.21518  0.25554  1.0000
  P   P13       1.0  0.31589  0.36187  0.43459  1.0000
  S   S33       1.0  0.11434  0.30552  0.48061  1.0000
  H   H240      1.0  0.32437  0.18403  0.47981  1.0000
  C   C305      1.0  0.01312  0.30400  0.26186  1.0000
  H   H241      1.0  0.00312  0.26591  0.26858  1.0000
  H   H242      1.0  0.31630  0.13899  0.26133  1.0000
  H   H243      1.0  0.28473  0.07751  0.26754  1.0000
  C   C306      1.0  0.26534  0.36257  0.28334  1.0000
  Fe  Fe11      1.0  0.00547  0.31832  0.40641  1.0000
  C   C307      1.0  0.30934  0.14799  0.27025  1.0000
  Fe  Fe12      1.0  0.12192  0.34016  0.46095  1.0000
  C   C308      1.0  0.02303  0.37638  0.43468  1.0000
  Fe  Fe13      1.0  0.14611  0.32282  0.48732  1.0000
  S   S34       1.0  0.99768  0.21447  0.27522  1.0000
  H   H244      1.0  0.24466  0.29441  0.26462  1.0000
  H   H245      1.0  0.01028  0.36670  0.42978  1.0000
  H   H246      1.0  0.23143  0.09443  0.37114  1.0000
  C   C309      1.0  0.15253  0.27422  0.46158  1.0000
  C   C310      1.0  0.04769  0.20722  0.44481  1.0000
  C   C311      1.0  0.32004  0.20830  0.33998  1.0000
  H   H247      1.0  0.27833  0.23174  0.26849  1.0000
  C   C312      1.0  0.07927  0.39573  0.48990  1.0000
  C   C313      1.0  0.06338  0.20907  0.45462  1.0000
  H   H248      1.0  0.13260  0.24232  0.48085  1.0000
  C   C314      1.0  0.26484  0.32934  0.30577  1.0000
  S   S35       1.0  0.10087  0.35570  0.47834  1.0000
  C   C315      1.0  0.27485  0.31926  0.29347  1.0000
  H   H249      1.0  0.26994  0.10067  0.37637  1.0000
  H   H250      1.0  0.32319  0.24453  0.48243  1.0000
  H   H251      1.0  0.02688  0.48240  0.48958  1.0000
  H   H252      1.0  0.99990  0.26294  0.35839  1.0000
  H   H253      1.0  0.32332  0.13220  0.28954  1.0000
  C   C316      1.0  0.00671  0.44076  0.39947  1.0000
  C   C317      1.0  0.00313  0.40826  0.34748  1.0000
  C   C318      1.0  0.99834  0.31756  0.47511  1.0000
  H   H254      1.0  0.00391  0.43113  0.36384  1.0000
  S   S36       1.0  0.00058  0.32045  0.34595  1.0000
  H   H255      1.0  0.99979  0.29869  0.31825  1.0000
  C   C319      1.0  0.10759  0.16100  0.48693  1.0000
  H   H256      1.0  0.28975  0.11770  0.24982  1.0000
  C   C320      1.0  0.27756  0.06064  0.24816  1.0000
  H   H257      1.0  0.32323  0.36267  0.26200  1.0000
  C   C321      1.0  0.32229  0.33546  0.24858  1.0000
  C   C322      1.0  0.99910  0.40473  0.33222  1.0000
  H   H258      1.0  0.00024  0.38840  0.32902  1.0000
  H   H259      1.0  0.11244  0.14468  0.48968  1.0000
  C   C323      1.0  0.02335  0.27150  0.49332  1.0000
  S   S37       1.0  0.17197  0.30274  0.49257  1.0000
  C   C324      1.0  0.99553  0.44666  0.34100  1.0000
  H   H260      1.0  0.03856  0.21651  0.49510  1.0000
  S   S38       1.0  0.32697  0.04466  0.26877  1.0000
  H   H261      1.0  0.18975  0.41336  0.49460  1.0000
  H   H262      1.0  0.32725  0.26412  0.29203  1.0000
  C   C325      1.0  0.08336  0.18553  0.49512  1.0000
  C   C326      1.0  0.07282  0.23527  0.49490  1.0000
  H   H263      1.0  0.00677  0.33016  0.49588  1.0000
  C   C327      1.0  0.07051  0.47309  0.51169  1.0000
  C   C328      1.0  0.03694  0.42959  0.52248  1.0000
  S   S39       1.0  0.06166  0.30712  0.51851  1.0000
  H   H264      1.0  0.02539  0.31618  0.60213  1.0000
  S   S40       1.0  0.01067  0.38540  0.59971  1.0000
  H   H265      1.0  0.06509  0.41420  0.52304  1.0000
  H   H266      1.0  0.02512  0.31960  0.56830  1.0000
  C   C329      1.0  0.02769  0.22427  0.63745  1.0000
  H   H267      1.0  0.18241  0.36709  0.73225  1.0000
  C   C330      1.0  0.23147  0.33686  0.73378  1.0000
  C   C331      1.0  0.06264  0.28717  0.57476  1.0000
  S   S41       1.0  0.11239  0.42278  0.56076  1.0000
  C   C332      1.0  0.30624  0.20130  0.53582  1.0000
  Fe  Fe14      1.0  0.11273  0.35562  0.69800  1.0000
  S   S42       1.0  0.11457  0.31870  0.70857  1.0000
  S   S43       1.0  0.11691  0.37277  0.67001  1.0000
  H   H268      1.0  0.21112  0.28795  0.49899  1.0000
  H   H269      1.0  0.01919  0.22396  0.52169  1.0000
  Fe  Fe15      1.0  0.13801  0.33529  0.72275  1.0000
  H   H270      1.0  0.09424  0.49333  0.60002  1.0000
  H   H271      1.0  0.13845  0.43293  0.73851  1.0000
  S   S44       1.0  0.02127  0.45463  0.59113  1.0000
  S   S45       1.0  0.13829  0.37244  0.71054  1.0000
  S   S46       1.0  0.08207  0.35211  0.71916  1.0000
  C   C333      1.0  0.21139  0.32562  0.73015  1.0000
  H   H272      1.0  0.01795  0.46264  0.55125  1.0000
  C   C334      1.0  0.31447  0.43759  0.60437  1.0000
  C   C335      1.0  0.29671  0.33744  0.67123  1.0000
  C   C336      1.0  0.30710  0.43351  0.62211  1.0000
  C   C337      1.0  0.06289  0.47717  0.59475  1.0000
  S   S47       1.0  0.29116  0.30851  0.53530  1.0000
  H   H273      1.0  0.08196  0.37517  0.51356  1.0000
  C   C338      1.0  0.07047  0.38015  0.50631  1.0000
  C   C339      1.0  0.19926  0.34017  0.49981  1.0000
  H   H274      1.0  0.31254  0.33246  0.67071  1.0000
  S   S48       1.0  0.05165  0.28863  0.74304  1.0000
  Fe  Fe16      1.0  0.02796  0.37960  0.57487  1.0000
  H   H275      1.0  0.00133  0.19667  0.63452  1.0000
  C   C340      1.0  0.02123  0.25313  0.60866  1.0000
  C   C341      1.0  0.09652  0.41474  0.69908  1.0000
  P   P14       1.0  0.09709  0.45428  0.64494  1.0000
  C   C342      1.0  0.19363  0.33645  0.72946  1.0000
  H   H276      1.0  0.31226  0.14146  0.62360  1.0000
  C   C343      1.0  0.00700  0.30829  0.60613  1.0000
  C   C344      1.0  0.23399  0.35905  0.73690  1.0000
  S   S49       1.0  0.28341  0.31831  0.74466  1.0000
  C   C345      1.0  0.19598  0.35858  0.73272  1.0000
  C   C346      1.0  0.32372  0.42142  0.59746  1.0000
  H   H277      1.0  0.09665  0.45287  0.61011  1.0000
  C   C347      1.0  0.29937  0.27137  0.64274  1.0000
  H   H278      1.0  0.01350  0.36880  0.50932  1.0000
  S   S50       1.0  0.25915  0.37379  0.74146  1.0000
  C   C348      1.0  0.06016  0.43044  0.52009  1.0000
  H   H279      1.0  0.19164  0.45289  0.49923  1.0000
  C   C349      1.0  0.05755  0.36080  0.64521  1.0000
  C   C350      1.0  0.07984  0.37365  0.63538  1.0000
  C   C351      1.0  0.09770  0.37742  0.64325  1.0000
  C   C352      1.0  0.09354  0.36857  0.66096  1.0000
  C   C353      1.0  0.07116  0.35626  0.67086  1.0000
  C   C354      1.0  0.05327  0.35211  0.66299  1.0000
  H   H280      1.0  0.08337  0.38044  0.62168  1.0000
  H   H281      1.0  0.11493  0.38697  0.63557  1.0000
  H   H282      1.0  0.06770  0.34986  0.68456  1.0000
  H   H283      1.0  0.29489  0.14668  0.56321  1.0000
  C   C355      1.0  0.07872  0.41831  0.67581  1.0000
  H   H284      1.0  0.06333  0.27011  0.58167  1.0000
  H   H285      1.0  0.09862  0.29807  0.56110  1.0000
  H   H286      1.0  0.24503  0.32837  0.73402  1.0000
  C   C356      1.0  0.19053  0.43822  0.50977  1.0000
  H   H287      1.0  0.02440  0.41243  0.52715  1.0000
  C   C357      1.0  0.04034  0.24804  0.63120  1.0000
  C   C358      1.0  0.00266  0.48922  0.55798  1.0000
  H   H288      1.0  0.30635  0.22611  0.58719  1.0000
  H   H289      1.0  0.06492  0.39078  0.69950  1.0000
  C   C359      1.0  0.13309  0.40998  0.50828  1.0000
  C   C360      1.0  0.13780  0.43294  0.51012  1.0000
  C   C361      1.0  0.13119  0.43677  0.52626  1.0000
  C   C362      1.0  0.11897  0.41773  0.54053  1.0000
  C   C363      1.0  0.11339  0.39480  0.53867  1.0000
  C   C364      1.0  0.12082  0.39091  0.52258  1.0000
  H   H290      1.0  0.18658  0.34942  0.49772  1.0000
  H   H291      1.0  0.13559  0.45450  0.52769  1.0000
  H   H292      1.0  0.10402  0.38005  0.54972  1.0000
  H   H293      1.0  0.11717  0.37320  0.52124  1.0000
  C   C365      1.0  0.03842  0.29307  0.51191  1.0000
  C   C366      1.0  0.01598  0.28822  0.52228  1.0000
  H   H294      1.0  0.00809  0.43759  0.63387  1.0000
  C   C367      1.0  0.19646  0.31734  0.49783  1.0000
  C   C368      1.0  0.04886  0.22613  0.50172  1.0000
  H   H295      1.0  0.06538  0.48425  0.64164  1.0000
  S   S51       1.0  0.06238  0.41436  0.60010  1.0000
  H   H296      1.0  0.99486  0.22218  0.60965  1.0000
  C   C369      1.0  0.05050  0.24299  0.52552  1.0000
  C   C370      1.0  0.04683  0.37025  0.51319  1.0000
  H   H297      1.0  0.12855  0.44070  0.69480  1.0000
  C   C371      1.0  0.11059  0.44620  0.61305  1.0000
  S   S52       1.0  0.25702  0.35242  0.51582  1.0000
  H   H298      1.0  0.32408  0.26707  0.65692  1.0000
  Fe  Fe17      1.0  0.08575  0.31657  0.73102  1.0000
  H   H299      1.0  0.14723  0.44774  0.49911  1.0000
  H   H300      1.0  0.25079  0.19192  0.55821  1.0000
  C   C372      1.0  0.31908  0.24150  0.57823  1.0000
  C   C373      1.0  0.10941  0.48548  0.64190  1.0000
  H   H301      1.0  0.09487  0.45262  0.51300  1.0000
  H   H302      1.0  0.05532  0.47599  0.55799  1.0000
  C   C374      1.0  0.14726  0.42959  0.61983  1.0000
  C   C375      1.0  0.11455  0.43467  0.68953  1.0000
  C   C376      1.0  0.32522  0.25386  0.61885  1.0000
  C   C377      1.0  0.00098  0.26628  0.50387  1.0000
  H   H303      1.0  0.12889  0.46184  0.66582  1.0000
  C   C378      1.0  0.25554  0.34975  0.67318  1.0000
  C   C379      1.0  0.29543  0.35556  0.65805  1.0000
  H   H304      1.0  0.05231  0.25553  0.63761  1.0000
  C   C380      1.0  0.07867  0.40653  0.69222  1.0000
  C   C381      1.0  0.23465  0.33894  0.50799  1.0000
  C   C382      1.0  0.04180  0.29325  0.57707  1.0000
  H   H305      1.0  0.04184  0.24740  0.53668  1.0000
  C   C383      1.0  0.31881  0.26494  0.64560  1.0000
  H   H306      1.0  0.02720  0.47670  0.63669  1.0000
  C   C384      1.0  0.11449  0.44420  0.62923  1.0000
  H   H307      1.0  0.00059  0.33464  0.61899  1.0000
  S   S53       1.0  0.32257  0.36909  0.72276  1.0000
  H   H308      1.0  0.06883  0.46271  0.59169  1.0000
  Fe  Fe18      1.0  0.07528  0.40664  0.57522  1.0000
  C   C385      1.0  0.00810  0.22941  0.61524  1.0000
  H   H309      1.0  0.06586  0.41283  0.64127  1.0000
  C   C386      1.0  0.14304  0.43136  0.60383  1.0000
  C   C387      1.0  0.11465  0.44655  0.67313  1.0000
  H   H310      1.0  0.02401  0.23296  0.57823  1.0000
  H   H311      1.0  0.31339  0.45348  0.59597  1.0000
  H   H312      1.0  0.13643  0.43415  0.64487  1.0000
  C   C388      1.0  0.06124  0.33076  0.55570  1.0000
  C   C389      1.0  0.27444  0.36112  0.65886  1.0000
  H   H313      1.0  0.06051  0.34742  0.54807  1.0000
  H   H314      1.0  0.09729  0.33672  0.54424  1.0000
  C   C390      1.0  0.04728  0.47238  0.51442  1.0000
  H   H315      1.0  0.22020  0.36841  0.50658  1.0000
  C   C391      1.0  0.27784  0.32618  0.68554  1.0000
  C   C392      1.0  0.26736  0.18864  0.55426  1.0000
  H   H316      1.0  0.29698  0.34896  0.61839  1.0000
  C   C393      1.0  0.21313  0.30558  0.50055  1.0000
  H   H317      1.0  0.16130  0.42292  0.62255  1.0000
  S   S54       1.0  0.03504  0.35467  0.63552  1.0000
  C   C394      1.0  0.12473  0.43970  0.60046  1.0000
  C   C395      1.0  0.99728  0.27520  0.51809  1.0000
  H   H318      1.0  0.06931  0.18779  0.50429  1.0000
  C   C396      1.0  0.32631  0.34973  0.62862  1.0000
  H   H319      1.0  0.08046  0.15078  0.51040  1.0000
  H   H320      1.0  0.27762  0.27389  0.62584  1.0000
  C   C397      1.0  0.04204  0.28525  0.49713  1.0000
  H   H321      1.0  0.01306  0.29434  0.53367  1.0000
  H   H322      1.0  0.00579  0.21135  0.56023  1.0000
  Fe  Fe19      1.0  0.31848  0.33040  0.72598  1.0000
  H   H323      1.0  0.15389  0.42627  0.59402  1.0000
  C   C398      1.0  0.08196  0.32474  0.55359  1.0000
  C   C399      1.0  0.08267  0.30294  0.56310  1.0000
  C   C400      1.0  0.08550  0.24772  0.50389  1.0000
  C   C401      1.0  0.07694  0.45213  0.51461  1.0000
  H   H324      1.0  0.28967  0.27858  0.65178  1.0000
  C   C402      1.0  0.21610  0.36980  0.73643  1.0000
  H   H325      1.0  0.02728  0.40547  0.63667  1.0000
  C   C403      1.0  0.31035  0.18024  0.54389  1.0000
  H   H326      1.0  0.09653  0.40549  0.71174  1.0000
  C   C404      1.0  0.02457  0.44049  0.63671  1.0000
  H   H327      1.0  0.04024  0.35764  0.52569  1.0000
  C   C405      1.0  0.25732  0.33248  0.68659  1.0000
  S   S55       1.0  0.04855  0.41770  0.56389  1.0000
  S   S56       1.0  0.32583  0.31689  0.70269  1.0000
  H   H328      1.0  0.27934  0.31288  0.69597  1.0000
  Fe  Fe20      1.0  0.09575  0.32250  0.49853  1.0000
  C   C406      1.0  0.99997  0.22585  0.56359  1.0000
  H   H329      1.0  0.00509  0.27375  0.68528  1.0000
  C   C407      1.0  0.04118  0.31498  0.56725  1.0000
  S   S57       1.0  0.16909  0.32163  0.72433  1.0000
  C   C408      1.0  0.15396  0.31926  0.54080  1.0000
  C   C409      1.0  0.16915  0.30526  0.54059  1.0000
  C   C410      1.0  0.18948  0.31229  0.54512  1.0000
  C   C411      1.0  0.19485  0.33352  0.54959  1.0000
  C   C412      1.0  0.18008  0.34815  0.54919  1.0000
  C   C413      1.0  0.15935  0.34063  0.54509  1.0000
  P   P15       1.0  0.18685  0.37608  0.55431  1.0000
  C   C414      1.0  0.16570  0.37255  0.57399  1.0000
  C   C415      1.0  0.21583  0.38426  0.55624  1.0000
  C   C416      1.0  0.22056  0.39176  0.57031  1.0000
  C   C417      1.0  0.24318  0.39796  0.57146  1.0000
  C   C418      1.0  0.26124  0.39712  0.55845  1.0000
  C   C419      1.0  0.25673  0.39057  0.54412  1.0000
  C   C420      1.0  0.23418  0.38453  0.54291  1.0000
  C   C421      1.0  0.14725  0.38250  0.57402  1.0000
  C   C422      1.0  0.13068  0.37907  0.58935  1.0000
  C   C423      1.0  0.13237  0.36564  0.60468  1.0000
  C   C424      1.0  0.15046  0.35535  0.60472  1.0000
  C   C425      1.0  0.16687  0.35846  0.58939  1.0000
  C   C426      1.0  0.18654  0.39983  0.53712  1.0000
  C   C427      1.0  0.18743  0.39677  0.52075  1.0000
  P   P16       1.0  0.00021  0.44989  0.52350  1.0000
  C   C428      1.0  0.31611  0.24987  0.56209  1.0000
  C   C429      1.0  0.18945  0.44138  0.52605  1.0000
  C   C430      1.0  0.18767  0.42230  0.53966  1.0000
  H   H330      1.0  0.13836  0.31383  0.53710  1.0000
  H   H331      1.0  0.16549  0.28931  0.53641  1.0000
  H   H332      1.0  0.20155  0.30173  0.54454  1.0000
  H   H333      1.0  0.21082  0.33854  0.55289  1.0000
  H   H334      1.0  0.14767  0.35162  0.54475  1.0000
  H   H335      1.0  0.20696  0.39312  0.58032  1.0000
  H   H336      1.0  0.24675  0.40348  0.58241  1.0000
  H   H337      1.0  0.27875  0.40167  0.55936  1.0000
  H   H338      1.0  0.27066  0.38995  0.53394  1.0000
  H   H339      1.0  0.23101  0.37976  0.53162  1.0000
  H   H340      1.0  0.14542  0.39271  0.56225  1.0000
  H   H341      1.0  0.11643  0.38678  0.58931  1.0000
  H   H342      1.0  0.11930  0.36262  0.61645  1.0000
  H   H343      1.0  0.15154  0.34469  0.61661  1.0000
  H   H344      1.0  0.18053  0.34995  0.58950  1.0000
  H   H345      1.0  0.18674  0.37974  0.51833  1.0000
  C   C431      1.0  0.10286  0.49590  0.65507  1.0000
  H   H346      1.0  0.04254  0.48882  0.51272  1.0000
  H   H347      1.0  0.18987  0.45859  0.52812  1.0000
  H   H348      1.0  0.18724  0.42509  0.55215  1.0000
  H   H349      1.0  0.06482  0.41132  0.67081  1.0000
  C   C432      1.0  0.14445  0.33291  0.65849  1.0000
  C   C433      1.0  0.15416  0.31902  0.66888  1.0000
  C   C434      1.0  0.14396  0.29468  0.67527  1.0000
  C   C435      1.0  0.12399  0.28422  0.67134  1.0000
  C   C436      1.0  0.11414  0.29809  0.66088  1.0000
  C   C437      1.0  0.12440  0.32256  0.65463  1.0000
  P   P17       1.0  0.08707  0.28541  0.65718  1.0000
  C   C438      1.0  0.08798  0.30001  0.63551  1.0000
  C   C439      1.0  0.08252  0.25378  0.66069  1.0000
  C   C440      1.0  0.08899  0.24382  0.64722  1.0000
  C   C441      1.0  0.08514  0.21933  0.65035  1.0000
  C   C442      1.0  0.07496  0.20459  0.66695  1.0000
  C   C443      1.0  0.06865  0.21431  0.68044  1.0000
  C   C444      1.0  0.07242  0.23876  0.67736  1.0000
  C   C445      1.0  0.10603  0.30084  0.62167  1.0000
  C   C446      1.0  0.10656  0.31164  0.60488  1.0000
  C   C447      1.0  0.08969  0.32266  0.60182  1.0000
  C   C448      1.0  0.07237  0.32294  0.61555  1.0000
  C   C449      1.0  0.07145  0.31169  0.63229  1.0000
  C   C450      1.0  0.06373  0.28907  0.67270  1.0000
  C   C451      1.0  0.04090  0.27944  0.67280  1.0000
  C   C452      1.0  0.02266  0.28087  0.68539  1.0000
  C   C453      1.0  0.02708  0.29145  0.69818  1.0000
  C   C454      1.0  0.04971  0.30076  0.69829  1.0000
  C   C455      1.0  0.06800  0.29973  0.68557  1.0000
  H   H350      1.0  0.15184  0.35192  0.65408  1.0000
  H   H351      1.0  0.16916  0.32722  0.67244  1.0000
  H   H352      1.0  0.15116  0.28407  0.68374  1.0000
  H   H353      1.0  0.11607  0.26547  0.67687  1.0000
  H   H354      1.0  0.11645  0.33382  0.64732  1.0000
  H   H355      1.0  0.09679  0.25464  0.63426  1.0000
  H   H356      1.0  0.09012  0.21177  0.63990  1.0000
  H   H357      1.0  0.07209  0.18562  0.66938  1.0000
  H   H358      1.0  0.06092  0.20292  0.69336  1.0000
  H   H359      1.0  0.06760  0.24590  0.68809  1.0000
  H   H360      1.0  0.11982  0.29334  0.62386  1.0000
  H   H361      1.0  0.12046  0.31216  0.59424  1.0000
  H   H362      1.0  0.09035  0.33158  0.58886  1.0000
  H   H363      1.0  0.05966  0.33209  0.61329  1.0000
  H   H364      1.0  0.05805  0.31275  0.64259  1.0000
  H   H365      1.0  0.03718  0.27089  0.66312  1.0000
  S   S58       1.0  0.01393  0.36363  0.55559  1.0000
  C   C456      1.0  0.31729  0.39640  0.62611  1.0000
  H   H366      1.0  0.05312  0.30899  0.70821  1.0000
  H   H367      1.0  0.08533  0.30731  0.68590  1.0000
  C   C457      1.0  0.03356  0.49776  0.59785  1.0000
  C   C458      1.0  0.29253  0.16329  0.55705  1.0000
  H   H368      1.0  0.21790  0.38697  0.73882  1.0000
  C   C459      1.0  0.03184  0.37630  0.50383  1.0000
  P   P18       1.0  0.01564  0.27261  0.59138  1.0000
  Fe  Fe21      1.0  0.28887  0.33981  0.51618  1.0000
  H   H369      1.0  0.01644  0.49877  0.59760  1.0000
  C   C460      1.0  0.23224  0.31638  0.50553  1.0000
  H   H370      1.0  0.13006  0.49228  0.61584  1.0000
  H   H371      1.0  0.30358  0.41052  0.64667  1.0000
  C   C461      1.0  0.03548  0.42250  0.63812  1.0000
  C   C462      1.0  0.06832  0.44881  0.64238  1.0000
  H   H372      1.0  0.31948  0.21454  0.52535  1.0000
  C   C463      1.0  0.09665  0.43855  0.66615  1.0000
  C   C464      1.0  0.05735  0.42672  0.64075  1.0000
  Fe  Fe22      1.0  0.04061  0.37692  0.60856  1.0000
  Fe  Fe23      1.0  0.31497  0.30297  0.51299  1.0000
  C   C465      1.0  0.05712  0.46672  0.64114  1.0000
  C   C466      1.0  0.13305  0.43599  0.63250  1.0000
  S   S59       1.0  0.05621  0.36816  0.58445  1.0000
  C   C467      1.0  0.28487  0.20545  0.54101  1.0000
  C   C468      1.0  0.04065  0.47817  0.59460  1.0000
  H   H373      1.0  0.03606  0.34219  0.67070  1.0000
  H   H374      1.0  0.04666  0.28089  0.61241  1.0000
  H   H375      1.0  0.12150  0.44126  0.58804  1.0000
  H   H376      1.0  0.24283  0.32404  0.69783  1.0000
  C   C469      1.0  0.09203  0.48357  0.54924  1.0000
  C   C470      1.0  0.31175  0.34231  0.61884  1.0000
  H   H377      1.0  0.99970  0.33587  0.53389  1.0000
  C   C471      1.0  0.03713  0.26240  0.61688  1.0000
  H   H378      1.0  0.30134  0.24108  0.55859  1.0000
  H   H379      1.0  0.25746  0.15439  0.57239  1.0000
  C   C472      1.0  0.21826  0.35087  0.50490  1.0000
  H   H380      1.0  0.03009  0.21319  0.64864  1.0000
  Fe  Fe24      1.0  0.03392  0.42257  0.58947  1.0000
  C   C473      1.0  0.27116  0.16754  0.56225  1.0000
  C   C474      1.0  0.03533  0.46252  0.63833  1.0000
  C   C475      1.0  0.08960  0.16445  0.49861  1.0000
  H   H381      1.0  0.23952  0.35445  0.67402  1.0000
  C   C476      1.0  0.31680  0.32708  0.60897  1.0000
  H   H382      1.0  0.27253  0.37420  0.64857  1.0000
  C   C477      1.0  0.16535  0.45803  0.74318  1.0000
  C   C478      1.0  0.03028  0.45061  0.51957  1.0000
  P   P19       1.0  0.32054  0.37085  0.64022  1.0000
  H   H383      1.0  0.30036  0.44628  0.62748  1.0000
  S   S60       1.0  0.31195  0.26653  0.50927  1.0000
  H   H384      1.0  0.09262  0.46768  0.55797  1.0000
  C   C479      1.0  0.07098  0.48822  0.54919  1.0000
  H   H385      1.0  0.28198  0.22178  0.53463  1.0000
  C   C480      1.0  0.03779  0.22995  0.51699  1.0000
  C   C481      1.0  0.29259  0.26872  0.62813  1.0000
  C   C482      1.0  0.30875  0.41313  0.63295  1.0000
  C   C483      1.0  0.11233  0.49956  0.53821  1.0000
  Fe  Fe25      1.0  0.28837  0.35685  0.74283  1.0000
  C   C484      1.0  0.12525  0.49962  0.62641  1.0000
  C   C485      1.0  0.30545  0.26004  0.61621  1.0000
  C   C486      1.0  0.99729  0.28769  0.60194  1.0000
  H   H386      1.0  0.08403  0.26264  0.52532  1.0000
  H   H387      1.0  0.30010  0.25859  0.60484  1.0000
  C   C487      1.0  0.32534  0.40101  0.60826  1.0000
  H   H388      1.0  0.08354  0.48988  0.50771  1.0000
  S   S61       1.0  0.31890  0.36496  0.52007  1.0000
  H   H389      1.0  0.09027  0.48540  0.66696  1.0000
  Fe  Fe26      1.0  0.10743  0.36596  0.73262  1.0000
  H   H390      1.0  0.30624  0.32227  0.60074  1.0000
  C   C488      1.0  0.31304  0.17304  0.63196  1.0000
  H   H391      1.0  0.31660  0.20702  0.63677  1.0000
  C   C489      1.0  0.31763  0.16062  0.61981  1.0000
  H   H392      1.0  0.01303  0.29247  0.70805  1.0000
  H   H393      1.0  0.10391  0.25490  0.49914  1.0000
  C   C490      1.0  0.07433  0.25177  0.51901  1.0000
  C   C491      1.0  0.01154  0.21496  0.62947  1.0000
  C   C492      1.0  0.01017  0.23807  0.57381  1.0000
  C   C493      1.0  0.18945  0.41592  0.50715  1.0000
  S   S62       1.0  0.12666  0.33657  0.50712  1.0000
  H   H394      1.0  0.17865  0.45696  0.73276  1.0000
  H   H395      1.0  0.31211  0.17435  0.51128  1.0000
  H   H396      1.0  0.24482  0.30708  0.50781  1.0000
  C   C494      1.0  0.00260  0.25688  0.57817  1.0000
  H   H397      1.0  0.01167  0.49143  0.56760  1.0000
  Fe  Fe27      1.0  0.32304  0.33293  0.53726  1.0000
  H   H398      1.0  0.30409  0.16350  0.64516  1.0000
  H   H399      1.0  0.12867  0.49609  0.53850  1.0000
  C   C495      1.0  0.00630  0.47305  0.54859  1.0000
  H   H400      1.0  0.11293  0.49124  0.74092  1.0000
  C   C496      1.0  0.32015  0.19778  0.62713  1.0000
  H   H401      1.0  0.20968  0.30846  0.72774  1.0000
  C   C497      1.0  0.07738  0.49469  0.59929  1.0000
  C   C498      1.0  0.99488  0.47031  0.53597  1.0000
  C   C499      1.0  0.02241  0.23276  0.96003  1.0000
  C   C500      1.0  0.03439  0.29966  0.82621  1.0000
  H   H402      1.0  0.19578  0.24307  0.98347  1.0000
  C   C501      1.0  0.15377  0.47330  0.76736  1.0000
  C   C502      1.0  0.15410  0.28610  0.98911  1.0000
  C   C503      1.0  0.00186  0.25358  0.98730  1.0000
  H   H403      1.0  0.08266  0.46103  0.76366  1.0000
  C   C504      1.0  0.22872  0.09114  0.88786  1.0000
  C   C505      1.0  0.99685  0.33532  0.82212  1.0000
  H   H404      1.0  0.04776  0.30963  0.78499  1.0000
  C   C506      1.0  0.07196  0.44870  0.77562  1.0000
  C   C507      1.0  0.29631  0.08512  0.86824  1.0000
  C   C508      1.0  0.24169  0.11372  0.87735  1.0000
  H   H405      1.0  0.15640  0.25079  0.78820  1.0000
  C   C509      1.0  0.15571  0.31085  0.77791  1.0000
  C   C510      1.0  0.13770  0.29909  0.77252  1.0000
  S   S63       1.0  0.01533  0.19713  0.85058  1.0000
  C   C511      1.0  0.26368  0.07828  0.85652  1.0000
  Fe  Fe28      1.0  0.01295  0.18508  0.82697  1.0000
  S   S64       1.0  0.04327  0.20004  0.80334  1.0000
  C   C512      1.0  0.03956  0.35592  0.75806  1.0000
  H   H406      1.0  0.12157  0.47522  0.81846  1.0000
  H   H407      1.0  0.16020  0.35753  0.76915  1.0000
  H   H408      1.0  0.20400  0.29093  0.90548  1.0000
  Fe  Fe29      1.0  0.05101  0.39203  0.85870  1.0000
  S   S65       1.0  0.08366  0.38157  0.85840  1.0000
  S   S66       1.0  0.04875  0.42962  0.85083  1.0000
  Fe  Fe30      1.0  0.02160  0.34069  0.86852  1.0000
  S   S67       1.0  0.05171  0.32628  0.86870  1.0000
  Fe  Fe31      1.0  0.06260  0.35321  0.88225  1.0000
  S   S68       1.0  0.07376  0.34135  0.90578  1.0000
  Fe  Fe32      1.0  0.06983  0.35568  0.84482  1.0000
  S   S69       1.0  0.09364  0.34816  0.82355  1.0000
  S   S70       1.0  0.03099  0.36586  0.88390  1.0000
  S   S71       1.0  0.03863  0.36788  0.84331  1.0000
  Fe  Fe33      1.0  0.10445  0.22143  0.96165  1.0000
  S   S72       1.0  0.13985  0.24151  0.94457  1.0000
  Fe  Fe34      1.0  0.09596  0.18800  0.93968  1.0000
  S   S73       1.0  0.13077  0.20465  0.92106  1.0000
  S   S74       1.0  0.07123  0.15522  0.93834  1.0000
  Fe  Fe35      1.0  0.14420  0.20570  0.94399  1.0000
  S   S75       1.0  0.17699  0.19522  0.94457  1.0000
  Fe  Fe36      1.0  0.12346  0.23884  0.92329  1.0000
  S   S76       1.0  0.13148  0.26776  0.89912  1.0000
  S   S77       1.0  0.10995  0.18570  0.96266  1.0000
  S   S78       1.0  0.08763  0.22215  0.94031  1.0000
  C   C513      1.0  0.18258  0.36456  0.78537  1.0000
  C   C514      1.0  0.08065  0.44438  0.78987  1.0000
  H   H409      1.0  0.28144  0.06499  0.99503  1.0000
  H   H410      1.0  0.17252  0.25778  0.90528  1.0000
  H   H411      1.0  0.20122  0.17725  0.91642  1.0000
  H   H412      1.0  0.07186  0.42622  0.81689  1.0000
  H   H413      1.0  0.11762  0.27666  0.99188  1.0000
  Fe  Fe37      1.0  0.27920  0.24852  0.97579  1.0000
  S   S79       1.0  0.24072  0.24084  0.98619  1.0000
  H   H414      1.0  0.15774  0.30206  0.97889  1.0000
  C   C515      1.0  0.31756  0.36325  0.86917  1.0000
  C   C516      1.0  0.00499  0.33599  0.78118  1.0000
  C   C517      1.0  0.13079  0.46050  0.77028  1.0000
  C   C518      1.0  0.02786  0.25140  0.77111  1.0000
  H   H415      1.0  0.25159  0.25750  0.85698  1.0000
  H   H416      1.0  0.25349  0.25685  0.88569  1.0000
  H   H417      1.0  0.24464  0.29041  0.89567  1.0000
  C   C519      1.0  0.10766  0.49002  0.78976  1.0000
  C   C520      1.0  0.11510  0.29271  0.78282  1.0000
  H   H418      1.0  0.21696  0.41926  0.78115  1.0000
  H   H419      1.0  0.18096  0.22424  0.89554  1.0000
  C   C521      1.0  0.19437  0.20818  0.95623  1.0000
  C   C522      1.0  0.18714  0.22234  0.96639  1.0000
  C   C523      1.0  0.20152  0.23237  0.97549  1.0000
  C   C524      1.0  0.22337  0.22882  0.97415  1.0000
  C   C525      1.0  0.23061  0.21478  0.96390  1.0000
  C   C526      1.0  0.21593  0.20406  0.95532  1.0000
  H   H420      1.0  0.17044  0.22543  0.96737  1.0000
  H   H421      1.0  0.32377  0.35444  0.80225  1.0000
  H   H422      1.0  0.24734  0.21187  0.96287  1.0000
  H   H423      1.0  0.22119  0.19246  0.94798  1.0000
  C   C527      1.0  0.09499  0.36201  0.80237  1.0000
  C   C528      1.0  0.11202  0.36000  0.78916  1.0000
  C   C529      1.0  0.11317  0.36956  0.77208  1.0000
  C   C530      1.0  0.06670  0.23762  0.77552  1.0000
  C   C531      1.0  0.15119  0.31649  0.79362  1.0000
  C   C532      1.0  0.07954  0.37466  0.79838  1.0000
  H   H424      1.0  0.12437  0.35097  0.79211  1.0000
  H   H425      1.0  0.07944  0.47689  0.81291  1.0000
  C   C533      1.0  0.28628  0.05024  0.85834  1.0000
  H   H426      1.0  0.06641  0.37645  0.80847  1.0000
  C   C534      1.0  0.08944  0.32065  0.90378  1.0000
  C   C535      1.0  0.09052  0.30512  0.91850  1.0000
  C   C536      1.0  0.10306  0.28851  0.91721  1.0000
  C   C537      1.0  0.11500  0.28779  0.90112  1.0000
  C   C538      1.0  0.11411  0.30346  0.88641  1.0000
  C   C539      1.0  0.10108  0.31966  0.88768  1.0000
  H   H427      1.0  0.08154  0.30601  0.93087  1.0000
  H   H428      1.0  0.10381  0.27656  0.92862  1.0000
  H   H429      1.0  0.12333  0.30283  0.87401  1.0000
  H   H430      1.0  0.10035  0.33163  0.87625  1.0000
  C   C540      1.0  0.03173  0.14431  0.89856  1.0000
  C   C541      1.0  0.04175  0.16756  0.89873  1.0000
  C   C542      1.0  0.05424  0.17159  0.91076  1.0000
  C   C543      1.0  0.05642  0.15236  0.92263  1.0000
  C   C544      1.0  0.04617  0.12939  0.92241  1.0000
  C   C545      1.0  0.03412  0.12542  0.91044  1.0000
  H   H431      1.0  0.04009  0.18228  0.88953  1.0000
  H   H432      1.0  0.06221  0.18941  0.91081  1.0000
  H   H433      1.0  0.04766  0.11445  0.93152  1.0000
  H   H434      1.0  0.02648  0.10746  0.91043  1.0000
  C   C546      1.0  0.04511  0.22483  0.78686  1.0000
  H   H435      1.0  0.00193  0.49648  0.91918  1.0000
  C   C547      1.0  0.11804  0.44631  0.80653  1.0000
  C   C548      1.0  0.02563  0.23174  0.78461  1.0000
  H   H436      1.0  0.23076  0.21116  0.91761  1.0000
  H   H437      1.0  0.19059  0.32117  0.82998  1.0000
  C   C549      1.0  0.32564  0.34132  0.82799  1.0000
  C   C550      1.0  0.01583  0.21083  0.97240  1.0000
  H   H438      1.0  0.26697  0.19867  0.87141  1.0000
  H   H439      1.0  0.22632  0.18393  0.85915  1.0000
  H   H440      1.0  0.29635  0.18933  0.88531  1.0000
  H   H441      1.0  0.18887  0.19749  0.86697  1.0000
  H   H442      1.0  0.15189  0.16669  0.87744  1.0000
  H   H443      1.0  0.29294  0.19022  0.91535  1.0000
  H   H444      1.0  0.13031  0.36144  0.84438  1.0000
  C   C551      1.0  0.09757  0.38175  0.76802  1.0000
  H   H445      1.0  0.26043  0.20140  0.93134  1.0000
  H   H446      1.0  0.14167  0.35660  0.81530  1.0000
  H   H447      1.0  0.11642  0.41438  0.79828  1.0000
  C   C552      1.0  0.29027  0.13450  0.90914  1.0000
  S   S80       1.0  0.30092  0.22664  0.98607  1.0000
  H   H448      1.0  0.32463  0.08150  0.97517  1.0000
  C   C553      1.0  0.17251  0.37067  0.77207  1.0000
  C   C554      1.0  0.03162  0.23399  0.94279  1.0000
  C   C555      1.0  0.19416  0.41167  0.76561  1.0000
  H   H449      1.0  0.06006  0.18965  0.98406  1.0000
  C   C556      1.0  0.31672  0.26577  0.77587  1.0000
  H   H450      1.0  0.14121  0.29557  0.76011  1.0000
  H   H451      1.0  0.23081  0.16453  0.98353  1.0000
  C   C557      1.0  0.06853  0.47580  0.84873  1.0000
  C   C558      1.0  0.06866  0.45228  0.85474  1.0000
  C   C559      1.0  0.08452  0.44735  0.86366  1.0000
  C   C560      1.0  0.10022  0.46591  0.86645  1.0000
  H   H452      1.0  0.24377  0.19346  0.82802  1.0000
  H   H453      1.0  0.00213  0.24948  0.85703  1.0000
  H   H454      1.0  0.08466  0.42925  0.86844  1.0000
  H   H455      1.0  0.11242  0.46201  0.87339  1.0000
  H   H456      1.0  0.06876  0.39408  0.77803  1.0000
  H   H457      1.0  0.13894  0.14185  0.90750  1.0000
  H   H458      1.0  0.05965  0.30084  0.84029  1.0000
  C   C561      1.0  0.19518  0.10544  0.89442  1.0000
  H   H459      1.0  0.29002  0.01663  0.75221  1.0000
  H   H460      1.0  0.24090  0.14982  0.86802  1.0000
  C   C562      1.0  0.24425  0.15942  0.98862  1.0000
  H   H461      1.0  0.16376  0.14756  0.92686  1.0000
  C   C563      1.0  0.17975  0.27321  0.85969  1.0000
  C   C564      1.0  0.19699  0.26317  0.85361  1.0000
  C   C565      1.0  0.19172  0.24382  0.84700  1.0000
  C   C566      1.0  0.16918  0.23443  0.84661  1.0000
  C   C567      1.0  0.15195  0.24504  0.85207  1.0000
  C   C568      1.0  0.15740  0.26445  0.85869  1.0000
  P   P20       1.0  0.12308  0.23305  0.85097  1.0000
  C   C569      1.0  0.10368  0.24859  0.85971  1.0000
  C   C570      1.0  0.12206  0.23609  0.82910  1.0000
  C   C571      1.0  0.10064  0.23178  0.82556  1.0000
  C   C572      1.0  0.09939  0.23373  0.80879  1.0000
  H   H462      1.0  0.17302  0.31649  0.76944  1.0000
  C   C573      1.0  0.14086  0.24518  0.79870  1.0000
  C   C574      1.0  0.14220  0.24320  0.81548  1.0000
  C   C575      1.0  0.08482  0.23695  0.87412  1.0000
  C   C576      1.0  0.06963  0.24912  0.88037  1.0000
  C   C577      1.0  0.07304  0.27288  0.87227  1.0000
  C   C578      1.0  0.09156  0.28454  0.85778  1.0000
  C   C579      1.0  0.10680  0.27242  0.85150  1.0000
  C   C580      1.0  0.11340  0.20251  0.86344  1.0000
  C   C581      1.0  0.11675  0.19666  0.87980  1.0000
  C   C582      1.0  0.10763  0.17350  0.89031  1.0000
  C   C583      1.0  0.09527  0.15600  0.88452  1.0000
  C   C584      1.0  0.09194  0.16166  0.86824  1.0000
  C   C585      1.0  0.10102  0.18480  0.85768  1.0000
  C   C586      1.0  0.02581  0.26527  0.81560  1.0000
  C   C587      1.0  0.17092  0.47230  0.75374  1.0000
  H   H463      1.0  0.20505  0.23601  0.84225  1.0000
  H   H464      1.0  0.16517  0.21909  0.84180  1.0000
  H   H465      1.0  0.14441  0.27259  0.86350  1.0000
  H   H466      1.0  0.08482  0.22658  0.83578  1.0000
  H   H467      1.0  0.20657  0.37799  0.79877  1.0000
  P   P21       1.0  0.27199  0.11938  0.86731  1.0000
  C   C588      1.0  0.01007  0.48438  0.85266  1.0000
  H   H468      1.0  0.15898  0.24733  0.81757  1.0000
  H   H469      1.0  0.08160  0.21852  0.88062  1.0000
  H   H470      1.0  0.05525  0.24017  0.89158  1.0000
  H   H471      1.0  0.06144  0.28225  0.87742  1.0000
  H   H472      1.0  0.09433  0.30311  0.85165  1.0000
  H   H473      1.0  0.12120  0.28166  0.84039  1.0000
  H   H474      1.0  0.12558  0.21022  0.88471  1.0000
  H   H475      1.0  0.10930  0.16926  0.90324  1.0000
  H   H476      1.0  0.08747  0.13827  0.89292  1.0000
  H   H477      1.0  0.08154  0.14825  0.86406  1.0000
  H   H478      1.0  0.09772  0.18874  0.84530  1.0000
  H   H479      1.0  0.00886  0.22179  0.79310  1.0000
  C   C589      1.0  0.29255  0.32845  0.81779  1.0000
  C   C590      1.0  0.28091  0.31306  0.83396  1.0000
  C   C591      1.0  0.29175  0.31144  0.84710  1.0000
  C   C592      1.0  0.31438  0.32534  0.84410  1.0000
  H   H480      1.0  0.32065  0.02746  0.91420  1.0000
  C   C593      1.0  0.06918  0.31523  0.96737  1.0000
  H   H481      1.0  0.30737  0.32538  0.89631  1.0000
  C   C594      1.0  0.01613  0.32013  0.78836  1.0000
  C   C595      1.0  0.13087  0.44620  0.83213  1.0000
  S   S81       1.0  0.10912  0.33011  0.74602  1.0000
  C   C596      1.0  0.13324  0.42345  0.83314  1.0000
  H   H482      1.0  0.11843  0.24168  0.78238  1.0000
  H   H483      1.0  0.25933  0.08537  0.96378  1.0000
  H   H484      1.0  0.30178  0.17811  0.98252  1.0000
  H   H485      1.0  0.13871  0.41447  0.84360  1.0000
  S   S82       1.0  0.01631  0.13691  0.88396  1.0000
  C   C597      1.0  0.31069  0.30190  0.87998  1.0000
  C   C598      1.0  0.30574  0.27816  0.87971  1.0000
  C   C599      1.0  0.29228  0.26038  0.89433  1.0000
  C   C600      1.0  0.28318  0.26610  0.90926  1.0000
  C   C601      1.0  0.08888  0.30734  0.96482  1.0000
  C   C602      1.0  0.30245  0.30752  0.89525  1.0000
  H   H486      1.0  0.18858  0.48228  0.75157  1.0000
  H   H487      1.0  0.28432  0.32945  0.80750  1.0000
  H   H488      1.0  0.26350  0.30241  0.83623  1.0000
  H   H489      1.0  0.28232  0.29954  0.85953  1.0000
  S   S83       1.0  0.00366  0.14621  0.84031  1.0000
  H   H490      1.0  0.06813  0.34146  0.75874  1.0000
  C   C603      1.0  0.99557  0.27949  0.86573  1.0000
  H   H491      1.0  0.08278  0.23025  0.80623  1.0000
  C   C604      1.0  0.30029  0.06400  0.86571  1.0000
  H   H492      1.0  0.01746  0.41252  0.79309  1.0000
  C   C605      1.0  0.29465  0.14082  0.95489  1.0000
  H   H493      1.0  0.10525  0.31873  0.96441  1.0000
  H   H494      1.0  0.04292  0.43996  0.76554  1.0000
  C   C606      1.0  0.31615  0.26476  0.80521  1.0000
  H   H495      1.0  0.28945  0.24219  0.89404  1.0000
  C   C607      1.0  0.14365  0.35287  0.84110  1.0000
  H   H496      1.0  0.04890  0.36993  0.74649  1.0000
  H   H497      1.0  0.08075  0.49954  0.89356  1.0000
  C   C608      1.0  0.04936  0.43696  0.77669  1.0000
  H   H498      1.0  0.17990  0.32748  0.85863  1.0000
  C   C609      1.0  0.19445  0.29814  0.80536  1.0000
  H   H499      1.0  0.19866  0.42980  0.75797  1.0000
  H   H500      1.0  0.19559  0.06954  0.90432  1.0000
  C   C610      1.0  0.23120  0.13218  0.87568  1.0000
  C   C611      1.0  0.17200  0.27953  0.99478  1.0000
  H   H501      1.0  0.03764  0.30359  0.93708  1.0000
  H   H502      1.0  0.19999  0.14227  0.88286  1.0000
  P   P22       1.0  0.00106  0.29779  0.80818  1.0000
  C   C612      1.0  0.04326  0.41786  0.80659  1.0000
  C   C613      1.0  0.06599  0.42916  0.80546  1.0000
  H   H503      1.0  0.29876  0.19291  0.80495  1.0000
  H   H504      1.0  0.14996  0.34763  0.86589  1.0000
  C   C614      1.0  0.17723  0.32972  0.83290  1.0000
  H   H505      1.0  0.31485  0.05874  0.86879  1.0000
  C   C615      1.0  0.03401  0.21364  0.93796  1.0000
  H   H506      1.0  0.30893  0.06324  0.90336  1.0000
  H   H507      1.0  0.10276  0.27864  0.96059  1.0000
  C   C616      1.0  0.16620  0.33760  0.82061  1.0000
  C   C617      1.0  0.27789  0.09244  0.86370  1.0000
  C   C618      1.0  0.28507  0.16631  0.84761  1.0000
  C   C619      1.0  0.27431  0.12248  0.96018  1.0000
  C   C620      1.0  0.12801  0.41210  0.82089  1.0000
  H   H508      1.0  0.12939  0.39432  0.82176  1.0000
  P   P23       1.0  0.10931  0.46076  0.78874  1.0000
  H   H509      1.0  0.28432  0.17100  0.85953  1.0000
  C   C621      1.0  0.08096  0.38472  0.78116  1.0000
  C   C622      1.0  0.12045  0.42347  0.80764  1.0000
  H   H510      1.0  0.03298  0.30693  0.96963  1.0000
  H   H511      1.0  0.29981  0.35288  0.87251  1.0000
  H   H512      1.0  0.17722  0.10227  0.90101  1.0000
  H   H513      1.0  0.04455  0.23990  0.82129  1.0000
  H   H514      1.0  0.29633  0.07752  0.95297  1.0000
  H   H515      1.0  0.02213  0.32035  0.91415  1.0000
  H   H516      1.0  0.32389  0.06862  0.77494  1.0000
  H   H517      1.0  0.10835  0.43424  0.76248  1.0000
  C   C623      1.0  0.25905  0.24855  0.83332  1.0000
  C   C624      1.0  0.25695  0.23065  0.82505  1.0000
  C   C625      1.0  0.24502  0.20740  0.83443  1.0000
  C   C626      1.0  0.23510  0.20210  0.85206  1.0000
  C   C627      1.0  0.23671  0.22011  0.86043  1.0000
  C   C628      1.0  0.24922  0.24333  0.85094  1.0000
  P   P24       1.0  0.22491  0.21287  0.88340  1.0000
  C   C629      1.0  0.19858  0.18899  0.89058  1.0000
  C   C630      1.0  0.24615  0.20489  0.89364  1.0000
  C   C631      1.0  0.24464  0.20575  0.91058  1.0000
  C   C632      1.0  0.26130  0.20013  0.91844  1.0000
  C   C633      1.0  0.27968  0.19381  0.90942  1.0000
  C   C634      1.0  0.28150  0.19321  0.89250  1.0000
  C   C635      1.0  0.26481  0.19868  0.88463  1.0000
  C   C636      1.0  0.19113  0.17471  0.90752  1.0000
  C   C637      1.0  0.16976  0.15773  0.91354  1.0000
  C   C638      1.0  0.15571  0.15467  0.90267  1.0000
  C   C639      1.0  0.16298  0.16874  0.88577  1.0000
  C   C640      1.0  0.18414  0.18606  0.87982  1.0000
  C   C641      1.0  0.21809  0.23802  0.88972  1.0000
  C   C642      1.0  0.19518  0.23856  0.89523  1.0000
  C   C643      1.0  0.19023  0.25766  0.90079  1.0000
  C   C644      1.0  0.20800  0.27637  0.90089  1.0000
  C   C645      1.0  0.23083  0.27606  0.89536  1.0000
  C   C646      1.0  0.23581  0.25697  0.88981  1.0000
  H   H518      1.0  0.26865  0.26649  0.82601  1.0000
  H   H519      1.0  0.26492  0.23486  0.81140  1.0000
  C   C647      1.0  0.28213  0.13708  0.83165  1.0000
  C   C648      1.0  0.04955  0.26454  0.76009  1.0000
  P   P25       1.0  0.01934  0.25950  0.96562  1.0000
  C   C649      1.0  0.04672  0.27811  0.96507  1.0000
  H   H520      1.0  0.29026  0.15087  0.80429  1.0000
  S   S84       1.0  0.09100  0.23260  0.98512  1.0000
  H   H521      1.0  0.25222  0.33205  0.77122  1.0000
  C   C650      1.0  0.20444  0.40572  0.77868  1.0000
  C   C651      1.0  0.12550  0.44565  0.75990  1.0000
  H   H522      1.0  0.08168  0.23186  0.77679  1.0000
  C   C652      1.0  0.06649  0.27016  0.96275  1.0000
  C   C653      1.0  0.08750  0.28480  0.96260  1.0000
  H   H523      1.0  0.01682  0.25521  0.80856  1.0000
  H   H524      1.0  0.29541  0.20273  0.83259  1.0000
  C   C654      1.0  0.21208  0.28721  0.80261  1.0000
  H   H525      1.0  0.29002  0.03441  0.85570  1.0000
  H   H526      1.0  0.06583  0.25273  0.96108  1.0000
  C   C655      1.0  0.02040  0.29478  0.93716  1.0000
  C   C656      1.0  0.01175  0.30430  0.92391  1.0000
  H   H527      1.0  0.22140  0.35126  0.77564  1.0000
  C   C657      1.0  0.29129  0.18435  0.83238  1.0000
  H   H528      1.0  0.27139  0.18893  0.97103  1.0000
  C   C658      1.0  0.09092  0.49239  0.80314  1.0000
  C   C659      1.0  0.19766  0.32145  0.79593  1.0000
  C   C660      1.0  0.05350  0.26905  0.83203  1.0000
  C   C661      1.0  0.20802  0.12801  0.88416  1.0000
  H   H529      1.0  0.03200  0.40651  0.81876  1.0000
  H   H530      1.0  0.27264  0.25226  0.92059  1.0000
  Fe  Fe38      1.0  0.00351  0.15836  0.86410  1.0000
  C   C662      1.0  0.19859  0.38230  0.78859  1.0000
  H   H531      1.0  0.24656  0.29097  0.78801  1.0000
  C   C663      1.0  0.28851  0.15518  0.81642  1.0000
  H   H532      1.0  0.01794  0.12623  0.96127  1.0000
  C   C664      1.0  0.26799  0.05738  0.85374  1.0000
  C   C665      1.0  0.11060  0.29750  0.79871  1.0000
  H   H533      1.0  0.18352  0.28755  0.86550  1.0000
  H   H534      1.0  0.20958  0.26922  0.80984  1.0000
  C   C666      1.0  0.04163  0.25650  0.82281  1.0000
  C   C667      1.0  0.12857  0.30908  0.80423  1.0000
  S   S85       1.0  0.29189  0.29204  0.79051  1.0000
  H   H535      1.0  0.21430  0.27020  0.85429  1.0000
  C   C668      1.0  0.00727  0.27377  0.94974  1.0000
  H   H536      1.0  0.28198  0.13225  0.92246  1.0000
  C   C669      1.0  0.29614  0.09535  0.95329  1.0000
  H   H537      1.0  0.31295  0.27330  0.86832  1.0000
  H   H538      1.0  0.01347  0.28914  0.86245  1.0000
  C   C670      1.0  0.02168  0.28669  0.81752  1.0000
  H   H539      1.0  0.03716  0.25075  0.93303  1.0000
  C   C671      1.0  0.11945  0.24014  0.79539  1.0000
  C   C672      1.0  0.27743  0.12641  0.89858  1.0000
  C   C673      1.0  0.26701  0.17324  0.98163  1.0000
  C   C674      1.0  0.08429  0.49434  0.85141  1.0000
  H   H540      1.0  0.31142  0.27190  0.76455  1.0000
  H   H541      1.0  0.24947  0.08356  0.85282  1.0000
  H   H542      1.0  0.15847  0.48378  0.77582  1.0000
  H   H543      1.0  0.09306  0.29305  0.80648  1.0000
  C   C675      1.0  0.20553  0.08702  0.89627  1.0000
  H   H544      1.0  0.30796  0.09573  0.87343  1.0000
  C   C676      1.0  0.06901  0.25769  0.76238  1.0000
  C   C677      1.0  0.04812  0.30060  0.96765  1.0000
  S   S86       1.0  0.30496  0.35636  0.76452  1.0000
  C   C678      1.0  0.23617  0.32258  0.78086  1.0000
  C   C679      1.0  0.28811  0.12960  0.88123  1.0000
  C   C680      1.0  0.31171  0.14090  0.87466  1.0000
  H   H545      1.0  0.32374  0.15184  0.91063  1.0000
  C   C681      1.0  0.02789  0.19203  0.95035  1.0000
  H   H546      1.0  0.27980  0.00632  0.78378  1.0000
  C   C682      1.0  0.31487  0.34256  0.81481  1.0000
  C   C683      1.0  0.03502  0.42149  0.79217  1.0000
  S   S87       1.0  0.30258  0.28312  0.97527  1.0000
  H   H547      1.0  0.03078  0.17654  0.94663  1.0000
  C   C684      1.0  0.29319  0.17881  0.81678  1.0000
  H   H548      1.0  0.00822  0.36627  0.76068  1.0000
  S   S88       1.0  0.29484  0.25138  0.94835  1.0000
  C   C685      1.0  0.00087  0.12877  0.96315  1.0000
  H   H549      1.0  0.23654  0.07673  0.88973  1.0000
  C   C686      1.0  0.05014  0.29078  0.83348  1.0000
  P   P26       1.0  0.17428  0.33471  0.79908  1.0000
  C   C687      1.0  0.28845  0.28966  0.90977  1.0000
  H   H550      1.0  0.13462  0.45490  0.84175  1.0000
  C   C688      1.0  0.28054  0.14249  0.84739  1.0000
  H   H551      1.0  0.10105  0.28419  0.77845  1.0000
  C   C689      1.0  0.23294  0.29944  0.79034  1.0000
  H   H552      1.0  0.25924  0.11779  0.90402  1.0000
  H   H553      1.0  0.29421  0.15856  0.95536  1.0000
  H   H554      1.0  0.12440  0.31345  0.81625  1.0000
  C   C690      1.0  0.30939  0.27289  0.79054  1.0000
  H   H555      1.0  0.25803  0.12595  0.96493  1.0000
  H   H556      1.0  0.01422  0.34436  0.81422  1.0000
  H   H557      1.0  0.12623  0.36758  0.76199  1.0000
  H   H558      1.0  0.04133  0.21477  0.92467  1.0000
  C   C691      1.0  0.17141  0.33344  0.84915  1.0000
  C   C692      1.0  0.21858  0.33354  0.78352  1.0000
  H   H559      1.0  0.08573  0.26744  0.75372  1.0000
  C   C693      1.0  0.15463  0.34498  0.85324  1.0000
  C   C694      1.0  0.14976  0.34965  0.82476  1.0000
  H   H560      1.0  0.17827  0.28851  0.81482  1.0000
  H   H561      1.0  0.17015  0.39867  0.75221  1.0000
  H   H562      1.0  0.06549  0.26206  0.83783  1.0000
  C   C695      1.0  0.27508  0.09970  0.95950  1.0000
  H   H563      1.0  0.07026  0.33278  0.96895  1.0000
  H   H564      1.0  0.03211  0.31648  0.82759  1.0000
  C   C696      1.0  0.32449  0.14884  0.88524  1.0000
  Fe  Fe39      1.0  0.30229  0.31860  0.76478  1.0000
  H   H565      1.0  0.25750  0.04691  0.84767  1.0000
  H   H566      1.0  0.05631  0.47970  0.84186  1.0000
  C   C697      1.0  0.03885  0.32189  0.77998  1.0000
  C   C698      1.0  0.10025  0.48947  0.86024  1.0000
  S   S89       1.0  0.31093  0.00607  0.80530  1.0000
  H   H567      1.0  0.28251  0.29403  0.92164  1.0000
  H   H568      1.0  0.27898  0.11899  0.83094  1.0000
  H   H569      1.0  0.31081  0.27053  0.81651  1.0000
  C   C699      1.0  0.05049  0.33985  0.76496  1.0000
  H   H570      1.0  0.30869  0.39385  0.87493  1.0000
  S   S90       1.0  0.09868  0.39251  0.74649  1.0000
  C   C700      1.0  0.99917  0.49148  0.88048  1.0000
  C   C701      1.0  0.12330  0.45765  0.81887  1.0000
  C   C702      1.0  0.01673  0.35390  0.76610  1.0000
  H   H571      1.0  0.01277  0.25644  0.76916  1.0000
  H   H572      1.0  0.00466  0.14133  0.93613  1.0000
  C   C703      1.0  0.17816  0.39415  0.76235  1.0000
  Fe  Fe40      1.0  0.31854  0.23233  0.95829  1.0000
  C   C704      1.0  0.32253  0.38650  0.87043  1.0000
  H   H573      1.0  0.28610  0.10767  0.99154  1.0000
  Fe  Fe41      1.0  0.32021  0.28423  0.94845  1.0000
  C   C705      1.0  0.28435  0.16710  0.98834  1.0000
  H   H574      1.0  0.00973  0.47234  0.84465  1.0000
  S   S91       1.0  0.31801  0.06883  0.81440  1.0000
  H   H575      1.0  0.18957  0.29041  0.98898  1.0000
  C   C706      1.0  0.31380  0.14565  0.90247  1.0000
  H   H576      1.0  0.31822  0.11633  0.81495  1.0000
  C   C707      1.0  0.31895  0.06317  0.91255  1.0000
  H   H577      1.0  0.31895  0.09826  0.91406  1.0000
  C   C708      1.0  0.31573  0.13648  0.94894  1.0000
  C   C709      1.0  0.31666  0.11386  0.94756  1.0000
  C   C710      1.0  0.01867  0.19059  0.96753  1.0000
  C   C711      1.0  0.32565  0.04303  0.91860  1.0000
  H   H578      1.0  0.32030  0.14334  0.86135  1.0000
  C   C712      1.0  0.32477  0.08302  0.91858  1.0000
  H   H579      1.0  0.01411  0.17383  0.97713  1.0000
  H   H580      1.0  0.00874  0.20912  0.98579  1.0000
  Fe  Fe42      1.0  0.32563  0.26154  0.98328  1.0000
  C   C713      1.0  0.99804  0.47617  0.86999  1.0000
  H   H581      1.0  0.32533  0.18994  0.77448  1.0000
  C   C714      1.0  0.05347  0.19366  0.99593  1.0000
  C   C715      1.0  0.14269  0.44461  0.74634  1.0000
  H   H582      1.0  0.08386  0.53809  0.14353  1.0000
  Fe  Fe43      1.0  0.13094  0.75285  0.15832  1.0000
  S   S92       1.0  0.09827  0.75268  0.17639  1.0000
  S   S93       1.0  0.16714  0.77532  0.15568  1.0000
  Fe  Fe44      1.0  0.10494  0.71444  0.14424  1.0000
  S   S94       1.0  0.07075  0.71190  0.16121  1.0000
  S   S95       1.0  0.10342  0.69171  0.12593  1.0000
  Fe  Fe45      1.0  0.08302  0.75133  0.15411  1.0000
  S   S96       1.0  0.06218  0.77523  0.14508  1.0000
  Fe  Fe46      1.0  0.08930  0.71314  0.18144  1.0000
  C   C716      1.0  0.11817  0.62108  0.05121  1.0000
  S   S97       1.0  0.11620  0.75408  0.13580  1.0000
  S   S98       1.0  0.12302  0.71308  0.16487  1.0000
  C   C717      1.0  0.02048  0.59148  0.20813  1.0000
  C   C718      1.0  0.09984  0.70247  0.02337  1.0000
  H   H583      1.0  0.02922  0.58319  0.19944  1.0000
  H   H584      1.0  0.08037  0.70403  0.04773  1.0000
  S   S99       1.0  0.01662  0.53758  0.14894  1.0000
  C   C719      1.0  0.08869  0.59809  0.11386  1.0000
  C   C720      1.0  0.04831  0.60647  0.03823  1.0000
  C   C721      1.0  0.02718  0.51176  0.23264  1.0000
  Fe  Fe47      1.0  0.02335  0.56294  0.16467  1.0000
  S   S100      1.0  0.05930  0.58255  0.16361  1.0000
  C   C722      1.0  0.14652  0.83115  0.22927  1.0000
  C   C723      1.0  0.09713  0.59453  0.21078  1.0000
  S   S101      1.0  0.03271  0.72436  0.05839  1.0000
  C   C724      1.0  0.07593  0.53309  0.08349  1.0000
  C   C725      1.0  0.03706  0.74967  0.10884  1.0000
  Fe  Fe48      1.0  0.27892  0.88276  0.18612  1.0000
  S   S102      1.0  0.28813  0.92061  0.18650  1.0000
  H   H585      1.0  0.11196  0.62756  0.09391  1.0000
  Fe  Fe49      1.0  0.22796  0.87878  0.19039  1.0000
  S   S103      1.0  0.23295  0.91655  0.19172  1.0000
  S   S104      1.0  0.19188  0.85730  0.19191  1.0000
  Fe  Fe50      1.0  0.26435  0.92454  0.16989  1.0000
  S   S105      1.0  0.27234  0.95810  0.14905  1.0000
  Fe  Fe51      1.0  0.25631  0.90985  0.20827  1.0000
  H   H586      1.0  0.10940  0.82285  0.02010  1.0000
  S   S106      1.0  0.25795  0.88747  0.16733  1.0000
  S   S107      1.0  0.24838  0.87114  0.20924  1.0000
  C   C726      1.0  0.01586  0.60565  0.23348  1.0000
  C   C727      1.0  0.30701  0.95618  0.09560  1.0000
  C   C728      1.0  0.30488  0.97758  0.09873  1.0000
  C   C729      1.0  0.29327  0.97786  0.11508  1.0000
  C   C730      1.0  0.28460  0.95693  0.12838  1.0000
  C   C731      1.0  0.28640  0.93553  0.12511  1.0000
  C   C732      1.0  0.29742  0.93512  0.10868  1.0000
  H   H587      1.0  0.18382  0.89813  0.03345  1.0000
  H   H588      1.0  0.06354  0.63208  0.20630  1.0000
  H   H589      1.0  0.27951  0.91932  0.13523  1.0000
  C   C733      1.0  0.13159  0.60887  0.05917  1.0000
  H   H590      1.0  0.09645  0.57671  0.21732  1.0000
  H   H591      1.0  0.02092  0.60854  0.24465  1.0000
  C   C734      1.0  0.07729  0.60241  0.21337  1.0000
  C   C735      1.0  0.31923  0.97249  0.01292  1.0000
  S   S108      1.0  0.01647  0.73473  0.01453  1.0000
  C   C736      1.0  0.14096  0.85183  0.22276  1.0000
  H   H592      1.0  0.04839  0.64776  0.23527  1.0000
  H   H593      1.0  0.07404  0.59382  0.04792  1.0000
  H   H594      1.0  0.19821  0.82726  0.00640  1.0000
  H   H595      1.0  0.07972  0.83286  0.03998  1.0000
  C   C737      1.0  0.01899  0.63514  0.09328  1.0000
  C   C738      1.0  0.02595  0.62189  0.10610  1.0000
  C   C739      1.0  0.01288  0.59875  0.11497  1.0000
  H   H596      1.0  0.27410  0.96546  0.20414  1.0000
  H   H597      1.0  0.13708  0.76905  0.02695  1.0000
  H   H598      1.0  0.25690  0.98244  0.18362  1.0000
  H   H599      1.0  0.04111  0.62975  0.10953  1.0000
  H   H600      1.0  0.01810  0.58887  0.12514  1.0000
  H   H601      1.0  0.29500  0.93847  0.02594  1.0000
  C   C740      1.0  0.08438  0.60945  0.08514  1.0000
  C   C741      1.0  0.09192  0.81161  0.02416  1.0000
  C   C742      1.0  0.30150  0.88997  0.03583  1.0000
  C   C743      1.0  0.04989  0.77180  0.12813  1.0000
  C   C744      1.0  0.04080  0.78967  0.12117  1.0000
  H   H602      1.0  0.08615  0.64509  0.23100  1.0000
  C   C745      1.0  0.02808  0.76778  0.10192  1.0000
  H   H603      1.0  0.04195  0.80512  0.12595  1.0000
  H   H604      1.0  0.32243  0.97591  0.02457  1.0000
  C   C746      1.0  0.08999  0.66168  0.13691  1.0000
  C   C747      1.0  0.09831  0.65036  0.14973  1.0000
  C   C748      1.0  0.08865  0.62610  0.15775  1.0000
  C   C749      1.0  0.07000  0.61316  0.15359  1.0000
  C   C750      1.0  0.06123  0.62453  0.14105  1.0000
  C   C751      1.0  0.07152  0.64867  0.13247  1.0000
  H   H605      1.0  0.11269  0.66019  0.15308  1.0000
  H   H606      1.0  0.09568  0.61724  0.16721  1.0000
  H   H607      1.0  0.04691  0.61460  0.13770  1.0000
  H   H608      1.0  0.06501  0.65734  0.12255  1.0000
  C   C752      1.0  0.17377  0.79883  0.16518  1.0000
  C   C753      1.0  0.15698  0.80867  0.17245  1.0000
  C   C754      1.0  0.16287  0.82682  0.18033  1.0000
  C   C755      1.0  0.18563  0.83550  0.18088  1.0000
  C   C756      1.0  0.20252  0.82607  0.17321  1.0000
  C   C757      1.0  0.19659  0.80779  0.16546  1.0000
  H   H609      1.0  0.13941  0.80204  0.17220  1.0000
  H   H610      1.0  0.14969  0.83402  0.18621  1.0000
  H   H611      1.0  0.22007  0.83249  0.17361  1.0000
  H   H612      1.0  0.20972  0.80026  0.15997  1.0000
  H   H613      1.0  0.05400  0.58785  0.08123  1.0000
  C   C758      1.0  0.04211  0.70219  0.22007  1.0000
  C   C759      1.0  0.06422  0.59066  0.09000  1.0000
  H   H614      1.0  0.05022  0.71813  0.20969  1.0000
  C   C760      1.0  0.13468  0.65171  0.24426  1.0000
  H   H615      1.0  0.06235  0.56844  0.13162  1.0000
  C   C761      1.0  0.18059  0.81915  0.00683  1.0000
  C   C762      1.0  0.02828  0.65940  0.18651  1.0000
  C   C763      1.0  0.07854  0.62548  0.20462  1.0000
  C   C764      1.0  0.02556  0.65105  0.17244  1.0000
  H   H616      1.0  0.28017  0.97909  0.06916  1.0000
  C   C765      1.0  0.04488  0.70633  0.00932  1.0000
  H   H617      1.0  0.13305  0.60322  0.19738  1.0000
  H   H618      1.0  0.03686  0.69652  0.02256  1.0000
  C   C766      1.0  0.07219  0.62717  0.05311  1.0000
  C   C767      1.0  0.30365  0.95119  0.01368  1.0000
  C   C768      1.0  0.09658  0.61298  0.09722  1.0000
  H   H619      1.0  0.07825  0.65356  0.08855  1.0000
  C   C769      1.0  0.18876  0.88413  0.05809  1.0000
  C   C770      1.0  0.19611  0.89712  0.04088  1.0000
  C   C771      1.0  0.21933  0.90909  0.03328  1.0000
  C   C772      1.0  0.23519  0.90822  0.04288  1.0000
  C   C773      1.0  0.22813  0.89451  0.05998  1.0000
  C   C774      1.0  0.20470  0.88287  0.06763  1.0000
  P   P27       1.0  0.24829  0.89493  0.07271  1.0000
  C   C775      1.0  0.24906  0.92137  0.07979  1.0000
  C   C776      1.0  0.23912  0.86828  0.09020  1.0000
  C   C777      1.0  0.23961  0.86909  0.10688  1.0000
  C   C778      1.0  0.23093  0.84842  0.12041  1.0000
  C   C779      1.0  0.22294  0.82665  0.11725  1.0000
  C   C780      1.0  0.22388  0.82551  0.10053  1.0000
  C   C781      1.0  0.23173  0.84626  0.08705  1.0000
  C   C782      1.0  0.23210  0.92128  0.09407  1.0000
  C   C783      1.0  0.23310  0.94162  0.09976  1.0000
  Fe  Fe52      1.0  0.00610  0.73427  0.07608  1.0000
  C   C784      1.0  0.26654  0.96304  0.07602  1.0000
  C   C785      1.0  0.26585  0.94264  0.07048  1.0000
  C   C786      1.0  0.27643  0.89561  0.06054  1.0000
  C   C787      1.0  0.29575  0.90418  0.06596  1.0000
  H   H620      1.0  0.06580  0.66018  0.05590  1.0000
  C   C788      1.0  0.05647  0.57571  0.10665  1.0000
  C   C789      1.0  0.09375  0.54779  0.06938  1.0000
  S   S109      1.0  0.30361  0.86046  0.18405  1.0000
  H   H621      1.0  0.22518  0.91931  0.01996  1.0000
  H   H622      1.0  0.25296  0.91836  0.03689  1.0000
  H   H623      1.0  0.19868  0.87322  0.08103  1.0000
  H   H624      1.0  0.24659  0.88559  0.10957  1.0000
  H   H625      1.0  0.23052  0.84924  0.13338  1.0000
  H   H626      1.0  0.21614  0.81064  0.12777  1.0000
  H   H627      1.0  0.21816  0.80854  0.09808  1.0000
  H   H628      1.0  0.23198  0.84516  0.07418  1.0000
  H   H629      1.0  0.21831  0.90543  0.10100  1.0000
  C   C790      1.0  0.25046  0.96243  0.09083  1.0000
  H   H630      1.0  0.03946  0.80735  0.04985  1.0000
  C   C791      1.0  0.13609  0.79711  0.00617  1.0000
  H   H631      1.0  0.27876  0.94352  0.05910  1.0000
  H   H632      1.0  0.29379  0.90982  0.07758  1.0000
  H   H633      1.0  0.26483  0.88047  0.04136  1.0000
  C   C792      1.0  0.11122  0.71888  0.22298  1.0000
  H   H634      1.0  0.09140  0.69385  0.09086  1.0000
  P   P28       1.0  0.09322  0.77925  0.22687  1.0000
  C   C793      1.0  0.10950  0.75898  0.22194  1.0000
  H   H635      1.0  0.30369  0.88491  0.02396  1.0000
  H   H636      1.0  0.32638  0.95973  0.18835  1.0000
  H   H637      1.0  0.10295  0.70009  0.22713  1.0000
  C   C794      1.0  0.29771  0.85899  0.13815  1.0000
  C   C795      1.0  0.14614  0.78622  0.01811  1.0000
  C   C796      1.0  0.11170  0.80768  0.22548  1.0000
  H   H638      1.0  0.16840  0.60449  0.02389  1.0000
  H   H639      1.0  0.01279  0.67298  0.20661  1.0000
  C   C797      1.0  0.06866  0.57950  0.11857  1.0000
  P   P29       1.0  0.10789  0.78245  0.00514  1.0000
  H   H640      1.0  0.29150  0.99439  0.11750  1.0000
  C   C798      1.0  0.07715  0.78148  0.21120  1.0000
  C   C799      1.0  0.08717  0.79743  0.19489  1.0000
  C   C800      1.0  0.07483  0.79866  0.18265  1.0000
  C   C801      1.0  0.05260  0.78376  0.18653  1.0000
  C   C802      1.0  0.04279  0.76739  0.20255  1.0000
  C   C803      1.0  0.05505  0.76613  0.21482  1.0000
  C   C804      1.0  0.04365  0.64361  0.04287  1.0000
  Fe  Fe53      1.0  0.01368  0.68734  0.07401  1.0000
  C   C805      1.0  0.27940  0.88773  0.04569  1.0000
  H   H641      1.0  0.06531  0.56776  0.19697  1.0000
  P   P30       1.0  0.05048  0.58284  0.22770  1.0000
  H   H642      1.0  0.09777  0.68368  0.02746  1.0000
  C   C806      1.0  0.10399  0.75095  0.01216  1.0000
  C   C807      1.0  0.31908  0.87468  0.13579  1.0000
  H   H643      1.0  0.08092  0.72768  0.23440  1.0000
  C   C808      1.0  0.24351  0.99650  0.16316  1.0000
  C   C809      1.0  0.26053  0.99582  0.17168  1.0000
  H   H644      1.0  0.08269  0.81063  0.16995  1.0000
  H   H645      1.0  0.04323  0.78445  0.17692  1.0000
  H   H646      1.0  0.02584  0.75534  0.20532  1.0000
  H   H647      1.0  0.00122  0.74242  0.14246  1.0000
  H   H648      1.0  0.05497  0.73776  0.12727  1.0000
  H   H649      1.0  0.11609  0.86661  0.21330  1.0000
  C   C810      1.0  0.01072  0.66667  0.19564  1.0000
  H   H650      1.0  0.30387  0.91919  0.23801  1.0000
  C   C811      1.0  0.04114  0.66253  0.23450  1.0000
  S   S110      1.0  0.07700  0.68455  0.20631  1.0000
  C   C812      1.0  0.05010  0.53045  0.20343  1.0000
  C   C813      1.0  0.02707  0.59385  0.22295  1.0000
  C   C814      1.0  0.06570  0.60784  0.04655  1.0000
  H   H651      1.0  0.17069  0.87527  0.06410  1.0000
  C   C815      1.0  0.10965  0.51495  0.06733  1.0000
  H   H652      1.0  0.13494  0.64407  0.18204  1.0000
  C   C816      1.0  0.06111  0.64507  0.05109  1.0000
  C   C817      1.0  0.16270  0.71927  0.10702  1.0000
  C   C818      1.0  0.17245  0.72348  0.12010  1.0000
  C   C819      1.0  0.17686  0.74595  0.12275  1.0000
  C   C820      1.0  0.17105  0.76414  0.11259  1.0000
  C   C821      1.0  0.16070  0.75991  0.09967  1.0000
  C   C822      1.0  0.15715  0.73746  0.09669  1.0000
  P   P31       1.0  0.15275  0.78310  0.08651  1.0000
  C   C823      1.0  0.12707  0.77039  0.08095  1.0000
  C   C824      1.0  0.14646  0.80403  0.09830  1.0000
  C   C825      1.0  0.12367  0.80315  0.10609  1.0000
  C   C826      1.0  0.11918  0.81833  0.11617  1.0000
  C   C827      1.0  0.13732  0.83460  0.11847  1.0000
  C   C828      1.0  0.16001  0.83600  0.11044  1.0000
  C   C829      1.0  0.16453  0.82096  0.10024  1.0000
  C   C830      1.0  0.12309  0.78089  0.06552  1.0000
  C   C831      1.0  0.10222  0.77220  0.06208  1.0000
  C   C832      1.0  0.08526  0.75303  0.07394  1.0000
  C   C833      1.0  0.08925  0.74225  0.08916  1.0000
  C   C834      1.0  0.10999  0.75090  0.09269  1.0000
  C   C835      1.0  0.17639  0.79843  0.06760  1.0000
  C   C836      1.0  0.19359  0.78777  0.06214  1.0000
  C   C837      1.0  0.21214  0.79998  0.04775  1.0000
  C   C838      1.0  0.21365  0.82287  0.03869  1.0000
  C   C839      1.0  0.19653  0.83352  0.04395  1.0000
  C   C840      1.0  0.17799  0.82141  0.05836  1.0000
  H   H653      1.0  0.15872  0.70168  0.10524  1.0000
  H   H654      1.0  0.17623  0.70923  0.12838  1.0000
  H   H655      1.0  0.18417  0.74912  0.13305  1.0000
  H   H656      1.0  0.17394  0.78108  0.11539  1.0000
  H   H657      1.0  0.14945  0.73371  0.08674  1.0000
  H   H658      1.0  0.10921  0.79028  0.10503  1.0000
  H   H659      1.0  0.10155  0.81693  0.12260  1.0000
  H   H660      1.0  0.13377  0.84587  0.12668  1.0000
  H   H661      1.0  0.17407  0.84831  0.11250  1.0000
  H   H662      1.0  0.18211  0.82204  0.09425  1.0000
  H   H663      1.0  0.13572  0.79609  0.05631  1.0000
  H   H664      1.0  0.09893  0.78062  0.05041  1.0000
  H   H665      1.0  0.06883  0.74676  0.07153  1.0000
  H   H666      1.0  0.07607  0.72742  0.09845  1.0000
  H   H667      1.0  0.11236  0.74252  0.10478  1.0000
  H   H668      1.0  0.19285  0.77008  0.06895  1.0000
  H   H669      1.0  0.22539  0.79170  0.04359  1.0000
  H   H670      1.0  0.22801  0.83231  0.02749  1.0000
  H   H671      1.0  0.19769  0.85117  0.03675  1.0000
  H   H672      1.0  0.16487  0.82993  0.06229  1.0000
  C   C841      1.0  0.09935  0.64046  0.19351  1.0000
  H   H673      1.0  0.11333  0.63711  0.02680  1.0000
  H   H674      1.0  0.03529  0.73403  0.10427  1.0000
  C   C842      1.0  0.27959  0.96940  0.21494  1.0000
  H   H675      1.0  0.27333  0.84381  0.12588  1.0000
  H   H676      1.0  0.03497  0.65740  0.04168  1.0000
  H   H677      1.0  0.12436  0.55008  0.05028  1.0000
  H   H678      1.0  0.12535  0.64050  0.22316  1.0000
  H   H679      1.0  0.03927  0.64552  0.16536  1.0000
  H   H680      1.0  0.02373  0.62331  0.03002  1.0000
  C   C843      1.0  0.14958  0.60284  0.04933  1.0000
  C   C844      1.0  0.10475  0.65884  0.06521  1.0000
  C   C845      1.0  0.12376  0.67535  0.05277  1.0000
  C   C846      1.0  0.13087  0.69851  0.05394  1.0000
  C   C847      1.0  0.11917  0.70527  0.06759  1.0000
  C   C848      1.0  0.10045  0.68885  0.08012  1.0000
  C   C849      1.0  0.03726  0.62435  0.03641  1.0000
  H   H681      1.0  0.09441  0.56617  0.06472  1.0000
  C   C850      1.0  0.09315  0.66582  0.07887  1.0000
  C   C851      1.0  0.11061  0.53872  0.06128  1.0000
  H   H682      1.0  0.08474  0.74659  0.03824  1.0000
  H   H683      1.0  0.06296  0.54035  0.08960  1.0000
  C   C852      1.0  0.99945  0.62484  0.08876  1.0000
  C   C853      1.0  0.05170  0.68319  0.22116  1.0000
  H   H684      1.0  0.31761  0.94784  0.15311  1.0000
  H   H685      1.0  0.14501  0.62629  0.00965  1.0000
  C   C854      1.0  0.13177  0.80912  0.23091  1.0000
  H   H686      1.0  0.14530  0.71129  0.04417  1.0000
  H   H687      1.0  0.22061  0.94119  0.11123  1.0000
  C   C855      1.0  0.14428  0.75173  0.20674  1.0000
  H   H688      1.0  0.16154  0.75851  0.19815  1.0000
  H   H689      1.0  0.12446  0.72323  0.06844  1.0000
  C   C856      1.0  0.07409  0.52096  0.14325  1.0000
  H   H690      1.0  0.14050  0.78615  0.20653  1.0000
  H   H691      1.0  0.28737  0.84907  0.15101  1.0000
  C   C857      1.0  0.11789  0.60951  0.19955  1.0000
  C   C858      1.0  0.13221  0.76742  0.21146  1.0000
  S   S111      1.0  0.27972  0.91924  0.00019  1.0000
  C   C859      1.0  0.04819  0.75178  0.12186  1.0000
  H   H692      1.0  0.04401  0.66024  0.19032  1.0000
  C   C860      1.0  0.14120  0.62132  0.02349  1.0000
  H   H693      1.0  0.32502  0.87665  0.14685  1.0000
  C   C861      1.0  0.03014  0.78775  0.10811  1.0000
  C   C862      1.0  0.11899  0.63249  0.19093  1.0000
  C   C863      1.0  0.07514  0.81741  0.03540  1.0000
  C   C864      1.0  0.12320  0.62738  0.03327  1.0000
  H   H694      1.0  0.06704  0.68405  0.00476  1.0000
  H   H695      1.0  0.10465  0.80857  0.19149  1.0000
  H   H696      1.0  0.01445  0.71506  0.23172  1.0000
  C   C865      1.0  0.08613  0.79119  0.01862  1.0000
  C   C866      1.0  0.06317  0.77735  0.02388  1.0000
  C   C867      1.0  0.04641  0.78339  0.03490  1.0000
  C   C868      1.0  0.05244  0.80317  0.04089  1.0000
  C   C869      1.0  0.27459  0.95130  0.22996  1.0000
  S   S112      1.0  0.00251  0.53639  0.18945  1.0000
  H   H697      1.0  0.99673  0.59715  0.19329  1.0000
  H   H698      1.0  0.02323  0.80178  0.10291  1.0000
  Fe  Fe54      1.0  0.00730  0.71905  0.04310  1.0000
  C   C870      1.0  0.08994  0.71390  0.03469  1.0000
  C   C871      1.0  0.09224  0.73809  0.02917  1.0000
  H   H699      1.0  0.15992  0.59348  0.05555  1.0000
  C   C872      1.0  0.10563  0.82850  0.21980  1.0000
  S   S113      1.0  0.03477  0.66463  0.08340  1.0000
  C   C873      1.0  0.05512  0.55220  0.20719  1.0000
  H   H700      1.0  0.12829  0.60397  0.07293  1.0000
  C   C874      1.0  0.31782  0.90646  0.05608  1.0000
  H   H701      1.0  0.31203  0.99385  0.08857  1.0000
  H   H702      1.0  0.09769  0.60135  0.12332  1.0000
  H   H703      1.0  0.05824  0.76172  0.01956  1.0000
  H   H704      1.0  0.02874  0.77252  0.03895  1.0000
  C   C875      1.0  0.15437  0.60904  0.03151  1.0000
  H   H705      1.0  0.10009  0.65816  0.18664  1.0000
  C   C876      1.0  0.32072  0.89956  0.04093  1.0000
  P   P32       1.0  0.09487  0.62902  0.06368  1.0000
  H   H706      1.0  0.00369  0.64361  0.15641  1.0000
  C   C877      1.0  0.99755  0.61368  0.22978  1.0000
  H   H707      1.0  0.17636  0.78848  0.02722  1.0000
  H   H708      1.0  0.99848  0.51540  0.07596  1.0000
  H   H709      1.0  0.13296  0.67055  0.04203  1.0000
  H   H710      1.0  0.29687  0.86730  0.09659  1.0000
  H   H711      1.0  0.22680  0.98367  0.16857  1.0000
  H   H712      1.0  0.05640  0.52958  0.19045  1.0000
  C   C878      1.0  0.06198  0.69935  0.99924  1.0000
  C   C879      1.0  0.13380  0.72742  0.21257  1.0000
  S   S114      1.0  0.01376  0.76656  0.08575  1.0000
  C   C880      1.0  0.03220  0.53354  0.23645  1.0000
  C   C881      1.0  0.02194  0.70041  0.23247  1.0000
  H   H713      1.0  0.08715  0.59622  0.24437  1.0000
  H   H714      1.0  0.04052  0.56168  0.11050  1.0000
  C   C882      1.0  0.28979  0.85618  0.12401  1.0000
  C   C883      1.0  0.11208  0.71522  0.00659  1.0000
  H   H715      1.0  0.04739  0.75286  0.22698  1.0000
  C   C884      1.0  0.32453  0.88515  0.10515  1.0000
  C   C885      1.0  0.30314  0.86931  0.10752  1.0000
  H   H716      1.0  0.99502  0.70417  0.16290  1.0000
  C   C886      1.0  0.04613  0.55402  0.22371  1.0000
  C   C887      1.0  0.03813  0.72592  0.00221  1.0000
  H   H717      1.0  0.14293  0.71524  0.20860  1.0000
  H   H718      1.0  0.13643  0.79331  0.23591  1.0000
  C   C888      1.0  0.09759  0.64898  0.23880  1.0000
  C   C889      1.0  0.00527  0.64993  0.16747  1.0000
  H   H719      1.0  0.29882  0.91856  0.10620  1.0000
  S   S115      1.0  0.32129  0.95541  0.07533  1.0000
  C   C890      1.0  0.16836  0.79721  0.01838  1.0000
  C   C891      1.0  0.09888  0.73457  0.22730  1.0000
  S   S116      1.0  0.25823  0.92225  0.23200  1.0000
  H   H720      1.0  0.04333  0.59153  0.03321  1.0000
  H   H721      1.0  0.07818  0.53160  0.11630  1.0000
  H   H722      1.0  0.31485  0.00044  0.13890  1.0000
  C   C892      1.0  0.11976  0.64646  0.23434  1.0000
  H   H723      1.0  0.32062  0.91855  0.13711  1.0000
  C   C893      1.0  0.03602  0.51023  0.21611  1.0000
  C   C894      1.0  0.07079  0.51719  0.12782  1.0000
  H   H724      1.0  0.25164  0.97802  0.09548  1.0000
  H   H725      1.0  0.08975  0.82783  0.21626  1.0000
  H   H726      1.0  0.15288  0.86888  0.22094  1.0000
  H   H727      1.0  0.06651  0.50582  0.17042  1.0000
  C   C895      1.0  0.12037  0.85051  0.21826  1.0000
  H   H728      1.0  0.16272  0.83234  0.23245  1.0000
  C   C896      1.0  0.11401  0.73931  0.00094  1.0000
  H   H729      1.0  0.11936  0.70629  0.99767  1.0000
  C   C897      1.0  0.29108  0.99271  0.21411  1.0000
  C   C898      1.0  0.29943  0.94627  0.99871  1.0000
  C   C899      1.0  0.00221  0.59962  0.20445  1.0000
  C   C900      1.0  0.28197  0.95655  0.24390  1.0000
  C   C901      1.0  0.29436  0.97966  0.24282  1.0000
  C   C902      1.0  0.29863  0.99790  0.22799  1.0000
  H   H730      1.0  0.12269  0.50787  0.06102  1.0000
  H   H731      1.0  0.05106  0.78981  0.24235  1.0000
  H   H732      1.0  0.15187  0.64967  0.24083  1.0000
  C   C903      1.0  0.07475  0.50914  0.08963  1.0000
  C   C904      1.0  0.00197  0.51155  0.08831  1.0000
  H   H733      1.0  0.15332  0.74997  0.24443  1.0000
  C   C905      1.0  0.01131  0.67957  0.24578  1.0000
  S   S117      1.0  0.99456  0.57858  0.16115  1.0000
  C   C906      1.0  0.02124  0.50382  0.09005  1.0000
  C   C907      1.0  0.11769  0.66566  0.30764  1.0000
  S   S118      1.0  0.04183  0.51650  0.42496  1.0000
  C   C908      1.0  0.04712  0.68536  0.40817  1.0000
  C   C909      1.0  0.07987  0.62761  0.38029  1.0000
  Fe  Fe55      1.0  0.17408  0.71359  0.46746  1.0000
  S   S119      1.0  0.18435  0.68338  0.45909  1.0000
  S   S120      1.0  0.19776  0.75117  0.46023  1.0000
  H   H734      1.0  0.25428  0.77600  0.43120  1.0000
  C   C910      1.0  0.23486  0.75163  0.49528  1.0000
  C   C911      1.0  0.30517  0.95653  0.45999  1.0000
  Fe  Fe56      1.0  0.15013  0.67429  0.45338  1.0000
  S   S121      1.0  0.14610  0.66468  0.42902  1.0000
  C   C912      1.0  0.10540  0.66290  0.26284  1.0000
  S   S122      1.0  0.14145  0.70667  0.45915  1.0000
  H   H735      1.0  0.08208  0.63641  0.35342  1.0000
  H   H736      1.0  0.19427  0.80292  0.48936  1.0000
  H   H737      1.0  0.03140  0.74561  0.29382  1.0000
  H   H738      1.0  0.29491  0.99274  0.42352  1.0000
  H   H739      1.0  0.01296  0.56457  0.28958  1.0000
  C   C913      1.0  0.06307  0.74449  0.27756  1.0000
  Fe  Fe57      1.0  0.05615  0.56252  0.38128  1.0000
  S   S123      1.0  0.03262  0.52621  0.38713  1.0000
  S   S124      1.0  0.06228  0.58513  0.35443  1.0000
  Fe  Fe58      1.0  0.06529  0.55362  0.41630  1.0000
  C   C914      1.0  0.04959  0.57963  0.28389  1.0000
  S   S125      1.0  0.08208  0.56285  0.43659  1.0000
  H   H740      1.0  0.00158  0.65385  0.44249  1.0000
  Fe  Fe59      1.0  0.01820  0.53219  0.41238  1.0000
  H   H741      1.0  0.08327  0.62367  0.29545  1.0000
  S   S126      1.0  0.08366  0.54975  0.39106  1.0000
  S   S127      1.0  0.03976  0.56960  0.40589  1.0000
  C   C915      1.0  0.03919  0.76864  0.26844  1.0000
  H   H742      1.0  0.14034  0.74297  0.49152  1.0000
  C   C916      1.0  0.15716  0.57741  0.46773  1.0000
  C   C917      1.0  0.09432  0.63144  0.30245  1.0000
  C   C918      1.0  0.02845  0.66021  0.30498  1.0000
  H   H743      1.0  0.32349  0.80195  0.45066  1.0000
  H   H744      1.0  0.00922  0.52802  0.48806  1.0000
  C   C919      1.0  0.13171  0.58326  0.49198  1.0000
  H   H745      1.0  0.30167  0.98904  0.46625  1.0000
  C   C920      1.0  0.30823  0.94166  0.42045  1.0000
  C   C921      1.0  0.10161  0.59056  0.43365  1.0000
  C   C922      1.0  0.10948  0.59533  0.44749  1.0000
  C   C923      1.0  0.12353  0.61779  0.44607  1.0000
  C   C924      1.0  0.12987  0.63572  0.43078  1.0000
  C   C925      1.0  0.12298  0.63058  0.41664  1.0000
  C   C926      1.0  0.10905  0.60799  0.41804  1.0000
  H   H746      1.0  0.10421  0.58187  0.45953  1.0000
  H   H747      1.0  0.12920  0.62125  0.45689  1.0000
  H   H748      1.0  0.12819  0.64419  0.40466  1.0000
  H   H749      1.0  0.10395  0.60406  0.40711  1.0000
  H   H750      1.0  0.29996  0.98350  0.25362  1.0000
  C   C927      1.0  0.04605  0.53446  0.48163  1.0000
  C   C928      1.0  0.03045  0.66542  0.41983  1.0000
  C   C929      1.0  0.05147  0.65985  0.30142  1.0000
  C   C930      1.0  0.29538  0.97690  0.41945  1.0000
  H   H751      1.0  0.29245  0.91748  0.40796  1.0000
  C   C931      1.0  0.06546  0.64460  0.43748  1.0000
  C   C932      1.0  0.12245  0.65080  0.32099  1.0000
  P   P33       1.0  0.03267  0.63604  0.41960  1.0000
  H   H752      1.0  0.04859  0.67495  0.45907  1.0000
  H   H753      1.0  0.21382  0.72882  0.39437  1.0000
  H   H754      1.0  0.26902  0.94288  0.39754  1.0000
  H   H755      1.0  0.13292  0.70802  0.25052  1.0000
  H   H756      1.0  0.11671  0.75126  0.29418  1.0000
  C   C933      1.0  0.04294  0.64734  0.38403  1.0000
  C   C934      1.0  0.23715  0.67489  0.47239  1.0000
  Fe  Fe60      1.0  0.16459  0.66172  0.48579  1.0000
  C   C935      1.0  0.03773  0.59275  0.35048  1.0000
  C   C936      1.0  0.03484  0.59644  0.33394  1.0000
  S   S128      1.0  0.00616  0.63882  0.47645  1.0000
  H   H757      1.0  0.09204  0.59768  0.31898  1.0000
  C   C937      1.0  0.04715  0.70810  0.40951  1.0000
  H   H758      1.0  0.04788  0.59495  0.32362  1.0000
  C   C938      1.0  0.26416  0.71899  0.47182  1.0000
  C   C939      1.0  0.02095  0.66066  0.24671  1.0000
  C   C940      1.0  0.30222  0.77334  0.44451  1.0000
  C   C941      1.0  0.30862  0.79631  0.44614  1.0000
  C   C942      1.0  0.10845  0.71777  0.28828  1.0000
  C   C943      1.0  0.30763  0.89678  0.32005  1.0000
  C   C944      1.0  0.02076  0.59462  0.36379  1.0000
  H   H759      1.0  0.26870  0.89126  0.25818  1.0000
  H   H760      1.0  0.22640  0.79675  0.45821  1.0000
  C   C945      1.0  0.01445  0.69148  0.43446  1.0000
  H   H761      1.0  0.06628  0.73185  0.28747  1.0000
  C   C946      1.0  0.29568  0.81191  0.44222  1.0000
  C   C947      1.0  0.04340  0.75226  0.28117  1.0000
  H   H762      1.0  0.08951  0.65195  0.45221  1.0000
  H   H763      1.0  0.16365  0.60860  0.47671  1.0000
  H   H764      1.0  0.29734  0.87994  0.31973  1.0000
  C   C948      1.0  0.24397  0.79180  0.47792  1.0000
  C   C949      1.0  0.11319  0.62633  0.32504  1.0000
  H   H765      1.0  0.32371  0.95529  0.29893  1.0000
  C   C950      1.0  0.26098  0.71457  0.45646  1.0000
  C   C951      1.0  0.32255  0.95359  0.35820  1.0000
  C   C952      1.0  0.25399  0.70139  0.48730  1.0000
  H   H766      1.0  0.09574  0.70907  0.30049  1.0000
  C   C953      1.0  0.21685  0.76008  0.47228  1.0000
  H   H767      1.0  0.07296  0.65856  0.25626  1.0000
  H   H768      1.0  0.13332  0.65821  0.32824  1.0000
  C   C954      1.0  0.13647  0.75324  0.26898  1.0000
  H   H769      1.0  0.27028  0.98051  0.40547  1.0000
  H   H770      1.0  0.02465  0.53431  0.24920  1.0000
  H   H771      1.0  0.27036  0.86503  0.28490  1.0000
  H   H772      1.0  0.02288  0.59172  0.37654  1.0000
  H   H773      1.0  0.01231  0.60354  0.31816  1.0000
  C   C955      1.0  0.30957  0.96319  0.42458  1.0000
  C   C956      1.0  0.03088  0.71116  0.42271  1.0000
  C   C957      1.0  0.06790  0.62769  0.39656  1.0000
  C   C958      1.0  0.29628  0.93177  0.46537  1.0000
  Fe  Fe61      1.0  0.32033  0.86417  0.46810  1.0000
  C   C959      1.0  0.99772  0.60319  0.34419  1.0000
  C   C960      1.0  0.04872  0.66820  0.47217  1.0000
  C   C961      1.0  0.02974  0.57139  0.26285  1.0000
  H   H774      1.0  0.07126  0.69918  0.26187  1.0000
  H   H775      1.0  0.00938  0.60767  0.39989  1.0000
  C   C962      1.0  0.29376  0.93444  0.41066  1.0000
  C   C963      1.0  0.02455  0.53220  0.49234  1.0000
  C   C964      1.0  0.28116  0.96985  0.40941  1.0000
  H   H776      1.0  0.12542  0.68447  0.30458  1.0000
  H   H777      1.0  0.04915  0.57944  0.29700  1.0000
  H   H778      1.0  0.25305  0.81031  0.47488  1.0000
  H   H779      1.0  0.27801  0.94271  0.25562  1.0000
  S   S129      1.0  0.28537  0.85550  0.48653  1.0000
  C   C965      1.0  0.02925  0.57108  0.27977  1.0000
  C   C966      1.0  0.01406  0.66874  0.43294  1.0000
  C   C967      1.0  0.06715  0.67379  0.28576  1.0000
  C   C968      1.0  0.29616  0.96998  0.47019  1.0000
  C   C969      1.0  0.07088  0.58903  0.25407  1.0000
  C   C970      1.0  0.28503  0.89226  0.26113  1.0000
  H   H780      1.0  0.03074  0.69987  0.26848  1.0000
  H   H781      1.0  0.07273  0.61960  0.40762  1.0000
  C   C971      1.0  0.09931  0.61667  0.31567  1.0000
  H   H782      1.0  0.07956  0.51407  0.44785  1.0000
  C   C972      1.0  0.10331  0.65607  0.29841  1.0000
  C   C973      1.0  0.28039  0.94863  0.40499  1.0000
  C   C974      1.0  0.14243  0.55495  0.47056  1.0000
  C   C975      1.0  0.02099  0.67451  0.29306  1.0000
  C   C976      1.0  0.24738  0.69235  0.45689  1.0000
  H   H783      1.0  0.09384  0.61945  0.37889  1.0000
  C   C977      1.0  0.11309  0.70517  0.27617  1.0000
  C   C978      1.0  0.05486  0.64715  0.36778  1.0000
  C   C979      1.0  0.30708  0.87863  0.27986  1.0000
  C   C980      1.0  0.03657  0.68870  0.27765  1.0000
  H   H784      1.0  0.21137  0.72533  0.48838  1.0000
  H   H785      1.0  0.05677  0.64873  0.31095  1.0000
  H   H786      1.0  0.09346  0.74653  0.25854  1.0000
  H   H787      1.0  0.16598  0.78314  0.47625  1.0000
  C   C981      1.0  0.04926  0.63737  0.39856  1.0000
  H   H788      1.0  0.13939  0.66412  0.26595  1.0000
  H   H789      1.0  0.00250  0.69374  0.44515  1.0000
  H   H790      1.0  0.08225  0.69135  0.46893  1.0000
  H   H791      1.0  0.24457  0.68846  0.44526  1.0000
  H   H792      1.0  0.01291  0.64458  0.25688  1.0000
  H   H793      1.0  0.30396  0.97819  0.36466  1.0000
  C   C982      1.0  0.27980  0.95882  0.48596  1.0000
  Fe  Fe62      1.0  0.12490  0.68312  0.48577  1.0000
  C   C983      1.0  0.05104  0.59880  0.45927  1.0000
  H   H794      1.0  0.30972  0.94514  0.35276  1.0000
  H   H795      1.0  0.26600  0.81645  0.43394  1.0000
  C   C984      1.0  0.12754  0.65987  0.25847  1.0000
  H   H796      1.0  0.27375  0.90161  0.48551  1.0000
  H   H797      1.0  0.04567  0.58105  0.46761  1.0000
  C   C985      1.0  0.12023  0.74166  0.28474  1.0000
  C   C986      1.0  0.06810  0.61608  0.46174  1.0000
  C   C987      1.0  0.00098  0.60018  0.36060  1.0000
  C   C988      1.0  0.06775  0.67747  0.47772  1.0000
  C   C989      1.0  0.05951  0.68828  0.27397  1.0000
  H   H798      1.0  0.30218  0.92089  0.45753  1.0000
  H   H799      1.0  0.17271  0.58395  0.45722  1.0000
  H   H800      1.0  0.08622  0.59517  0.27421  1.0000
  C   C990      1.0  0.22014  0.74387  0.48560  1.0000
  P   P34       1.0  0.09717  0.67451  0.28081  1.0000
  C   C991      1.0  0.32365  0.85396  0.39489  1.0000
  C   C992      1.0  0.05450  0.77702  0.25205  1.0000
  H   H801      1.0  0.04955  0.55035  0.33442  1.0000
  C   C993      1.0  0.05047  0.58063  0.24979  1.0000
  C   C994      1.0  0.12928  0.71701  0.26030  1.0000
  S   S130      1.0  0.15661  0.69234  0.49459  1.0000
  C   C995      1.0  0.07042  0.58851  0.27105  1.0000
  H   H802      1.0  0.07587  0.61175  0.47203  1.0000
  H   H803      1.0  0.11652  0.61476  0.33557  1.0000
  C   C996      1.0  0.07574  0.63878  0.45058  1.0000
  H   H804      1.0  0.06073  0.68342  0.39844  1.0000
  C   C997      1.0  0.99846  0.60317  0.41275  1.0000
  C   C998      1.0  0.16671  0.77452  0.48887  1.0000
  C   C999      1.0  0.01470  0.60127  0.33084  1.0000
  C   C1000     1.0  0.31707  0.87403  0.39720  1.0000
  H   H805      1.0  0.07700  0.53349  0.34707  1.0000
  H   H806      1.0  0.25559  0.73577  0.38146  1.0000
  H   H807      1.0  0.06030  0.72330  0.40066  1.0000
  C   C1001     1.0  0.07833  0.75272  0.26113  1.0000
  P   P35       1.0  0.27538  0.73631  0.43611  1.0000
  C   C1002     1.0  0.30161  0.73015  0.42637  1.0000
  C   C1003     1.0  0.25627  0.73462  0.42253  1.0000
  C   C1004     1.0  0.23268  0.73083  0.42961  1.0000
  C   C1005     1.0  0.21749  0.72892  0.41946  1.0000
  C   C1006     1.0  0.22573  0.73066  0.40212  1.0000
  C   C1007     1.0  0.24925  0.73453  0.39490  1.0000
  C   C1008     1.0  0.26451  0.73656  0.40504  1.0000
  C   C1009     1.0  0.28275  0.76574  0.43890  1.0000
  H   H808      1.0  0.31715  0.88168  0.34228  1.0000
  H   H809      1.0  0.00621  0.54822  0.35537  1.0000
  C   C1010     1.0  0.00492  0.61446  0.42487  1.0000
  H   H810      1.0  0.22625  0.65794  0.47273  1.0000
  C   C1011     1.0  0.26974  0.78148  0.43507  1.0000
  C   C1012     1.0  0.03001  0.65004  0.48346  1.0000
  H   H811      1.0  0.07137  0.66245  0.42922  1.0000
  H   H812      1.0  0.31236  0.76143  0.44775  1.0000
  H   H813      1.0  0.22601  0.72912  0.44308  1.0000
  H   H814      1.0  0.19925  0.72588  0.42515  1.0000
  H   H815      1.0  0.14557  0.77176  0.26622  1.0000
  H   H816      1.0  0.28258  0.73938  0.39922  1.0000
  H   H817      1.0  0.29128  0.69319  0.44068  1.0000
  C   C1013     1.0  0.22890  0.78406  0.46846  1.0000
  C   C1014     1.0  0.30458  0.70746  0.43110  1.0000
  C   C1015     1.0  0.27633  0.80453  0.43660  1.0000
  C   C1016     1.0  0.06768  0.66927  0.49478  1.0000
  H   H818      1.0  0.02839  0.65464  0.38537  1.0000
  P   P36       1.0  0.32574  0.97056  0.43922  1.0000
  H   H819      1.0  0.27416  0.73602  0.47200  1.0000
  C   C1017     1.0  0.27985  0.92071  0.48111  1.0000
  C   C1018     1.0  0.12223  0.54669  0.48402  1.0000
  S   S131      1.0  0.13122  0.65029  0.47956  1.0000
  H   H820      1.0  0.30791  0.86693  0.29139  1.0000
  C   C1019     1.0  0.15197  0.59138  0.47860  1.0000
  H   H821      1.0  0.04752  0.53251  0.46881  1.0000
  C   C1020     1.0  0.24692  0.77560  0.49147  1.0000
  C   C1021     1.0  0.04755  0.62762  0.43536  1.0000
  H   H822      1.0  0.30758  0.87405  0.40978  1.0000
  C   C1022     1.0  0.30944  0.91741  0.30776  1.0000
  C   C1023     1.0  0.07330  0.63725  0.36593  1.0000
  H   H823      1.0  0.00306  0.67447  0.29568  1.0000
  H   H824      1.0  0.30068  0.91662  0.29784  1.0000
  C   C1024     1.0  0.14089  0.74094  0.25674  1.0000
  Fe  Fe63      1.0  0.05840  0.51379  0.39904  1.0000
  C   C1025     1.0  0.04103  0.60438  0.44597  1.0000
  H   H825      1.0  0.08213  0.54267  0.47820  1.0000
  C   C1026     1.0  0.31912  0.97223  0.36506  1.0000
  H   H826      1.0  0.04944  0.65406  0.35668  1.0000
  C   C1027     1.0  0.28598  0.87749  0.27619  1.0000
  H   H827      1.0  0.01626  0.64934  0.31697  1.0000
  C   C1028     1.0  0.04579  0.53137  0.33933  1.0000
  C   C1029     1.0  0.06130  0.52191  0.34646  1.0000
  H   H828      1.0  0.14663  0.54399  0.46226  1.0000
  H   H829      1.0  0.02400  0.77477  0.27126  1.0000
  C   C1030     1.0  0.27177  0.93420  0.49147  1.0000
  H   H830      1.0  0.02810  0.59057  0.44419  1.0000
  H   H831      1.0  0.01311  0.52445  0.33414  1.0000
  H   H832      1.0  0.31765  0.92999  0.42543  1.0000
  H   H833      1.0  0.00160  0.54477  0.44406  1.0000
  H   H834      1.0  0.03137  0.72871  0.42410  1.0000
  H   H835      1.0  0.27387  0.96930  0.49413  1.0000
  H   H836      1.0  0.30045  0.82960  0.44380  1.0000
  C   C1031     1.0  0.02510  0.51650  0.33917  1.0000
  H   H837      1.0  0.01379  0.56502  0.25983  1.0000
  C   C1032     1.0  0.30511  0.90819  0.24966  1.0000
  H   H838      1.0  0.99562  0.61418  0.45158  1.0000
  C   C1033     1.0  0.24064  0.67930  0.48756  1.0000
  S   S132      1.0  0.32544  0.82841  0.47736  1.0000
  C   C1034     1.0  0.32347  0.89436  0.38349  1.0000
  H   H839      1.0  0.32716  0.68541  0.42718  1.0000
  C   C1035     1.0  0.06583  0.54019  0.48713  1.0000
  C   C1036     1.0  0.09028  0.65691  0.25310  1.0000
  S   S133      1.0  0.32322  0.88287  0.44072  1.0000
  H   H840      1.0  0.31909  0.83843  0.40564  1.0000
  C   C1037     1.0  0.31892  0.89786  0.33286  1.0000
  C   C1038     1.0  0.07390  0.76870  0.24818  1.0000
  H   H841      1.0  0.31729  0.76577  0.40990  1.0000
  C   C1039     1.0  0.31928  0.74818  0.41382  1.0000
  H   H842      1.0  0.31871  0.90986  0.38569  1.0000
  C   C1040     1.0  0.32634  0.90953  0.25328  1.0000
  H   H843      1.0  0.11128  0.52906  0.48623  1.0000
  C   C1041     1.0  0.32497  0.70295  0.42344  1.0000
  C   C1042     1.0  0.32241  0.93917  0.30833  1.0000
  C   C1043     1.0  0.11615  0.56118  0.49440  1.0000
  C   C1044     1.0  0.32717  0.89465  0.26849  1.0000
  Fe  Fe64      1.0  0.18286  0.73059  0.70823  1.0000
  S   S134      1.0  0.16493  0.74578  0.68978  1.0000
  S   S135      1.0  0.22080  0.74639  0.70495  1.0000
  C   C1045     1.0  0.12791  0.53400  0.63738  1.0000
  S   S136      1.0  0.12033  0.69982  0.70893  1.0000
  C   C1046     1.0  0.04058  0.71924  0.72534  1.0000
  Fe  Fe65      1.0  0.15263  0.70876  0.68771  1.0000
  S   S137      1.0  0.15551  0.70096  0.66197  1.0000
  Fe  Fe66      1.0  0.13438  0.73518  0.71290  1.0000
  S   S138      1.0  0.17281  0.69421  0.70448  1.0000
  H   H844      1.0  0.21379  0.81131  0.73115  1.0000
  Fe  Fe67      1.0  0.29411  0.83983  0.73820  1.0000
  H   H845      1.0  0.08994  0.72838  0.56318  1.0000
  H   H846      1.0  0.05171  0.65229  0.67672  1.0000
  H   H847      1.0  0.03193  0.63157  0.62669  1.0000
  H   H848      1.0  0.14829  0.68422  0.55488  1.0000
  C   C1047     1.0  0.11647  0.50982  0.73455  1.0000
  H   H849      1.0  0.17065  0.60713  0.63586  1.0000
  C   C1048     1.0  0.05263  0.65254  0.63872  1.0000
  C   C1049     1.0  0.23101  0.68364  0.74370  1.0000
  S   S139      1.0  0.09054  0.68197  0.50228  1.0000
  Fe  Fe68      1.0  0.07244  0.61342  0.59450  1.0000
  S   S140      1.0  0.09807  0.59649  0.58258  1.0000
  H   H850      1.0  0.27870  0.79524  0.72430  1.0000
  Fe  Fe69      1.0  0.08758  0.60899  0.62727  1.0000
  S   S141      1.0  0.11426  0.59161  0.61789  1.0000
  S   S142      1.0  0.08267  0.61520  0.65361  1.0000
  Fe  Fe70      1.0  0.12234  0.61878  0.59292  1.0000
  S   S143      1.0  0.15886  0.63682  0.57772  1.0000
  Fe  Fe71      1.0  0.08737  0.57068  0.60849  1.0000
  C   C1050     1.0  0.03280  0.61057  0.57145  1.0000
  S   S144      1.0  0.09777  0.63801  0.60293  1.0000
  S   S145      1.0  0.05957  0.58582  0.61991  1.0000
  C   C1051     1.0  0.09602  0.69421  0.56511  1.0000
  H   H851      1.0  0.00630  0.53485  0.51662  1.0000
  C   C1052     1.0  0.16317  0.63423  0.55669  1.0000
  C   C1053     1.0  0.18287  0.62859  0.54900  1.0000
  C   C1054     1.0  0.18741  0.62816  0.53182  1.0000
  C   C1055     1.0  0.17265  0.63413  0.52213  1.0000
  C   C1056     1.0  0.15261  0.63919  0.52991  1.0000
  C   C1057     1.0  0.14766  0.63875  0.54728  1.0000
  H   H852      1.0  0.19475  0.62481  0.55628  1.0000
  H   H853      1.0  0.20281  0.62409  0.52588  1.0000
  H   H854      1.0  0.14093  0.64341  0.52255  1.0000
  H   H855      1.0  0.13214  0.64253  0.55324  1.0000
  H   H856      1.0  0.20306  0.68169  0.51196  1.0000
  H   H857      1.0  0.08586  0.56788  0.70704  1.0000
  H   H858      1.0  0.22402  0.66962  0.53317  1.0000
  C   C1058     1.0  0.31730  0.82991  0.65665  1.0000
  C   C1059     1.0  0.00785  0.60530  0.55276  1.0000
  H   H859      1.0  0.26423  0.76373  0.71112  1.0000
  C   C1060     1.0  0.28624  0.78993  0.56616  1.0000
  H   H860      1.0  0.00632  0.67553  0.57779  1.0000
  S   S146      1.0  0.11303  0.76050  0.71628  1.0000
  H   H861      1.0  0.09156  0.79275  0.72872  1.0000
  C   C1061     1.0  0.99882  0.58137  0.56159  1.0000
  H   H862      1.0  0.04791  0.63855  0.65049  1.0000
  C   C1062     1.0  0.13668  0.67537  0.66040  1.0000
  C   C1063     1.0  0.13900  0.67041  0.64449  1.0000
  C   C1064     1.0  0.12257  0.65204  0.64222  1.0000
  C   C1065     1.0  0.10381  0.63824  0.65599  1.0000
  C   C1066     1.0  0.10186  0.64272  0.67203  1.0000
  C   C1067     1.0  0.11830  0.66114  0.67427  1.0000
  H   H863      1.0  0.15344  0.68099  0.63383  1.0000
  H   H864      1.0  0.12445  0.64858  0.62983  1.0000
  H   H865      1.0  0.08752  0.63193  0.68271  1.0000
  H   H866      1.0  0.11658  0.66459  0.68664  1.0000
  C   C1068     1.0  0.23058  0.76922  0.71407  1.0000
  C   C1069     1.0  0.21643  0.78273  0.71970  1.0000
  H   H867      1.0  0.29009  0.90582  0.60735  1.0000
  C   C1070     1.0  0.24728  0.80544  0.72857  1.0000
  C   C1071     1.0  0.26144  0.79198  0.72290  1.0000
  C   C1072     1.0  0.25317  0.77406  0.71554  1.0000
  C   C1073     1.0  0.04334  0.74309  0.72472  1.0000
  C   C1074     1.0  0.10662  0.59841  0.71181  1.0000
  C   C1075     1.0  0.08269  0.61328  0.52007  1.0000
  H   H868      1.0  0.10716  0.66288  0.56536  1.0000
  H   H869      1.0  0.28546  0.91301  0.71247  1.0000
  H   H870      1.0  0.05045  0.61792  0.72001  1.0000
  H   H871      1.0  0.30132  0.97158  0.52606  1.0000
  H   H872      1.0  0.07796  0.68446  0.56919  1.0000
  C   C1076     1.0  0.08628  0.62646  0.71940  1.0000
  S   S147      1.0  0.30760  0.83302  0.51626  1.0000
  H   H873      1.0  0.10656  0.52818  0.66280  1.0000
  H   H874      1.0  0.17690  0.77673  0.58655  1.0000
  C   C1077     1.0  0.03082  0.66563  0.72029  1.0000
  H   H875      1.0  0.19760  0.78274  0.51713  1.0000
  C   C1078     1.0  0.13450  0.52377  0.62421  1.0000
  C   C1079     1.0  0.02285  0.53590  0.50849  1.0000
  C   C1080     1.0  0.28753  0.87576  0.67950  1.0000
  S   S148      1.0  0.15318  0.72259  0.73165  1.0000
  C   C1081     1.0  0.18640  0.75532  0.55167  1.0000
  C   C1082     1.0  0.21004  0.76665  0.54482  1.0000
  C   C1083     1.0  0.22145  0.78203  0.55265  1.0000
  C   C1084     1.0  0.17458  0.75880  0.56688  1.0000
  H   H876      1.0  0.13110  0.75034  0.55209  1.0000
  C   C1085     1.0  0.15267  0.59684  0.73396  1.0000
  C   C1086     1.0  0.13080  0.59719  0.67370  1.0000
  H   H877      1.0  0.04867  0.64491  0.51932  1.0000
  C   C1087     1.0  0.11210  0.52008  0.65280  1.0000
  C   C1088     1.0  0.11157  0.52009  0.52698  1.0000
  C   C1089     1.0  0.18606  0.77411  0.57478  1.0000
  H   H878      1.0  0.12865  0.59432  0.50040  1.0000
  H   H879      1.0  0.05599  0.75666  0.71413  1.0000
  P   P37       1.0  0.17218  0.73538  0.54134  1.0000
  H   H880      1.0  0.21971  0.76367  0.53332  1.0000
  H   H881      1.0  0.23961  0.79099  0.54701  1.0000
  H   H882      1.0  0.13453  0.55286  0.63540  1.0000
  H   H883      1.0  0.29719  0.77245  0.54706  1.0000
  H   H884      1.0  0.05097  0.71489  0.71494  1.0000
  C   C1090     1.0  0.02507  0.70155  0.73947  1.0000
  H   H885      1.0  0.21644  0.69829  0.72404  1.0000
  S   S149      1.0  0.12373  0.65252  0.74477  1.0000
  C   C1091     1.0  0.31569  0.82215  0.56864  1.0000
  H   H886      1.0  0.17906  0.59515  0.68661  1.0000
  S   S150      1.0  0.08721  0.53260  0.61189  1.0000
  H   H887      1.0  0.19687  0.65599  0.70622  1.0000
  C   C1092     1.0  0.21452  0.68248  0.53461  1.0000
  C   C1093     1.0  0.17035  0.75099  0.52074  1.0000
  C   C1094     1.0  0.13837  0.54396  0.71081  1.0000
  C   C1095     1.0  0.06170  0.66808  0.69582  1.0000
  H   H888      1.0  0.01006  0.64001  0.69182  1.0000
  C   C1096     1.0  0.15406  0.74017  0.51331  1.0000
  Fe  Fe72      1.0  0.14147  0.68780  0.72592  1.0000
  C   C1097     1.0  0.08613  0.58419  0.71060  1.0000
  C   C1098     1.0  0.10888  0.54775  0.73362  1.0000
  C   C1099     1.0  0.15236  0.75183  0.49742  1.0000
  C   C1100     1.0  0.18465  0.77388  0.51205  1.0000
  H   H889      1.0  0.29582  0.83465  0.69671  1.0000
  H   H890      1.0  0.05032  0.58044  0.71227  1.0000
  C   C1101     1.0  0.16345  0.60353  0.64955  1.0000
  H   H891      1.0  0.19888  0.71403  0.56215  1.0000
  H   H892      1.0  0.12211  0.63104  0.71708  1.0000
  C   C1102     1.0  0.32525  0.97136  0.50318  1.0000
  S   S151      1.0  0.05192  0.62993  0.57862  1.0000
  C   C1103     1.0  0.01485  0.65400  0.71302  1.0000
  C   C1104     1.0  0.10408  0.52370  0.74180  1.0000
  H   H893      1.0  0.04242  0.53018  0.60527  1.0000
  P   P38       1.0  0.13271  0.58936  0.70778  1.0000
  H   H894      1.0  0.06699  0.68103  0.71718  1.0000
  C   C1105     1.0  0.02445  0.58643  0.57986  1.0000
  C   C1106     1.0  0.02467  0.61986  0.55779  1.0000
  C   C1107     1.0  0.29886  0.85239  0.58893  1.0000
  C   C1108     1.0  0.28761  0.83931  0.60597  1.0000
  C   C1109     1.0  0.26702  0.84262  0.61449  1.0000
  C   C1110     1.0  0.25748  0.85894  0.60605  1.0000
  C   C1111     1.0  0.26855  0.87199  0.58909  1.0000
  C   C1112     1.0  0.28913  0.86871  0.58052  1.0000
  C   C1113     1.0  0.04579  0.65626  0.68874  1.0000
  C   C1114     1.0  0.21300  0.69144  0.54885  1.0000
  H   H895      1.0  0.01595  0.62727  0.50915  1.0000
  H   H896      1.0  0.00162  0.61264  0.54225  1.0000
  H   H897      1.0  0.08431  0.63079  0.51241  1.0000
  C   C1115     1.0  0.30019  0.90029  0.61574  1.0000
  C   C1116     1.0  0.06594  0.59122  0.71359  1.0000
  H   H898      1.0  0.04265  0.69301  0.52458  1.0000
  H   H899      1.0  0.29454  0.82624  0.61257  1.0000
  H   H900      1.0  0.25840  0.83241  0.62762  1.0000
  H   H901      1.0  0.24147  0.86143  0.61262  1.0000
  H   H902      1.0  0.26111  0.88452  0.58244  1.0000
  H   H903      1.0  0.29714  0.87866  0.56727  1.0000
  C   C1117     1.0  0.16803  0.59691  0.67823  1.0000
  H   H904      1.0  0.12939  0.60339  0.64757  1.0000
  P   P39       1.0  0.32433  0.84650  0.57755  1.0000
  C   C1118     1.0  0.05035  0.66613  0.60983  1.0000
  C   C1119     1.0  0.06613  0.68770  0.60783  1.0000
  C   C1120     1.0  0.07518  0.69197  0.62133  1.0000
  C   C1121     1.0  0.06862  0.67400  0.63671  1.0000
  P   P40       1.0  0.09695  0.71917  0.61825  1.0000
  C   C1122     1.0  0.09428  0.72682  0.63836  1.0000
  C   C1123     1.0  0.12494  0.71481  0.61071  1.0000
  C   C1124     1.0  0.14427  0.72749  0.61443  1.0000
  C   C1125     1.0  0.16578  0.72381  0.60872  1.0000
  C   C1126     1.0  0.16821  0.70760  0.59916  1.0000
  C   C1127     1.0  0.14916  0.69516  0.59521  1.0000
  C   C1128     1.0  0.12766  0.69889  0.60082  1.0000
  C   C1129     1.0  0.08241  0.74325  0.64215  1.0000
  C   C1130     1.0  0.08110  0.74935  0.65761  1.0000
  C   C1131     1.0  0.09165  0.73916  0.66934  1.0000
  C   C1132     1.0  0.10326  0.72267  0.66570  1.0000
  C   C1133     1.0  0.10436  0.71639  0.65038  1.0000
  C   C1134     1.0  0.09346  0.74290  0.60253  1.0000
  C   C1135     1.0  0.07142  0.74416  0.60153  1.0000
  C   C1136     1.0  0.06883  0.76216  0.58901  1.0000
  C   C1137     1.0  0.08819  0.77917  0.57753  1.0000
  C   C1138     1.0  0.11015  0.77836  0.57871  1.0000
  C   C1139     1.0  0.11278  0.76041  0.59123  1.0000
  H   H905      1.0  0.04385  0.66270  0.59923  1.0000
  H   H906      1.0  0.07162  0.70078  0.59561  1.0000
  H   H907      1.0  0.07621  0.67617  0.64701  1.0000
  H   H908      1.0  0.14274  0.73988  0.62202  1.0000
  H   H909      1.0  0.18044  0.73298  0.61219  1.0000
  H   H910      1.0  0.18473  0.70425  0.59515  1.0000
  H   H911      1.0  0.15097  0.68221  0.58809  1.0000
  H   H912      1.0  0.11318  0.68909  0.59759  1.0000
  H   H913      1.0  0.07430  0.75152  0.63323  1.0000
  H   H914      1.0  0.07213  0.76218  0.66044  1.0000
  H   H915      1.0  0.09105  0.74415  0.68119  1.0000
  H   H916      1.0  0.11175  0.71494  0.67461  1.0000
  H   H917      1.0  0.11342  0.70361  0.64777  1.0000
  H   H918      1.0  0.05625  0.73121  0.61041  1.0000
  H   H919      1.0  0.05179  0.76294  0.58821  1.0000
  H   H920      1.0  0.08618  0.79310  0.56782  1.0000
  H   H921      1.0  0.12516  0.79171  0.56994  1.0000
  H   H922      1.0  0.12987  0.76031  0.59212  1.0000
  H   H923      1.0  0.19912  0.77933  0.71838  1.0000
  H   H924      1.0  0.00048  0.55337  0.58187  1.0000
  C   C1140     1.0  0.31811  0.81338  0.69045  1.0000
  H   H925      1.0  0.08650  0.64284  0.72288  1.0000
  Fe  Fe73      1.0  0.30489  0.86889  0.50399  1.0000
  H   H926      1.0  0.03067  0.57905  0.59039  1.0000
  C   C1141     1.0  0.04361  0.64855  0.62528  1.0000
  H   H927      1.0  0.05357  0.51180  0.53829  1.0000
  H   H928      1.0  0.23260  0.66562  0.49952  1.0000
  C   C1142     1.0  0.10279  0.71883  0.56171  1.0000
  C   C1143     1.0  0.07524  0.58582  0.54773  1.0000
  C   C1144     1.0  0.07730  0.60842  0.53785  1.0000
  C   C1145     1.0  0.06600  0.61234  0.71800  1.0000
  C   C1146     1.0  0.08599  0.59559  0.51216  1.0000
  C   C1147     1.0  0.08519  0.57320  0.52193  1.0000
  C   C1148     1.0  0.07951  0.56832  0.53984  1.0000
  P   P41       1.0  0.08938  0.55063  0.51135  1.0000
  C   C1149     1.0  0.20021  0.70757  0.55092  1.0000
  C   C1150     1.0  0.32465  0.93238  0.49917  1.0000
  C   C1151     1.0  0.16891  0.62703  0.70690  1.0000
  H   H929      1.0  0.03329  0.76791  0.73789  1.0000
  C   C1152     1.0  0.20288  0.68930  0.52263  1.0000
  C   C1153     1.0  0.02237  0.64927  0.69731  1.0000
  H   H930      1.0  0.31920  0.90295  0.66511  1.0000
  C   C1154     1.0  0.20945  0.78584  0.56761  1.0000
  S   S152      1.0  0.29352  0.89107  0.52108  1.0000
  H   H931      1.0  0.18142  0.71047  0.51527  1.0000
  C   C1155     1.0  0.07010  0.50863  0.53792  1.0000
  C   C1156     1.0  0.32643  0.88623  0.63728  1.0000
  H   H932      1.0  0.22128  0.68544  0.55848  1.0000
  H   H933      1.0  0.03143  0.63839  0.55107  1.0000
  C   C1157     1.0  0.18904  0.71496  0.53862  1.0000
  C   C1158     1.0  0.06424  0.54336  0.50358  1.0000
  C   C1159     1.0  0.04252  0.54155  0.51407  1.0000
  H   H934      1.0  0.07027  0.58183  0.56153  1.0000
  H   H935      1.0  0.07459  0.62216  0.54395  1.0000
  H   H936      1.0  0.07982  0.67358  0.68920  1.0000
  C   C1160     1.0  0.05432  0.67245  0.71163  1.0000
  H   H937      1.0  0.07816  0.55111  0.54783  1.0000
  H   H938      1.0  0.14600  0.53478  0.61201  1.0000
  H   H939      1.0  0.15671  0.74933  0.57280  1.0000
  C   C1161     1.0  0.15309  0.60538  0.71678  1.0000
  C   C1162     1.0  0.30476  0.89691  0.67641  1.0000
  H   H940      1.0  0.27997  0.81072  0.58362  1.0000
  H   H941      1.0  0.01310  0.60667  0.61074  1.0000
  C   C1163     1.0  0.19025  0.70546  0.52464  1.0000
  H   H942      1.0  0.26856  0.77917  0.57004  1.0000
  C   C1164     1.0  0.04883  0.65132  0.50611  1.0000
  H   H943      1.0  0.25973  0.92552  0.50396  1.0000
  H   H944      1.0  0.12759  0.53241  0.51879  1.0000
  C   C1165     1.0  0.30235  0.87752  0.64295  1.0000
  C   C1166     1.0  0.12591  0.55804  0.71794  1.0000
  H   H945      1.0  0.15178  0.55140  0.69890  1.0000
  C   C1167     1.0  0.21930  0.83867  0.66985  1.0000
  C   C1168     1.0  0.21428  0.81427  0.67205  1.0000
  C   C1169     1.0  0.23191  0.80325  0.67141  1.0000
  C   C1170     1.0  0.25454  0.81652  0.66869  1.0000
  C   C1171     1.0  0.25974  0.84105  0.66661  1.0000
  C   C1172     1.0  0.24193  0.85203  0.66715  1.0000
  P   P42       1.0  0.28865  0.85819  0.66436  1.0000
  C   C1173     1.0  0.02729  0.68379  0.53506  1.0000
  C   C1174     1.0  0.30533  0.83801  0.66950  1.0000
  C   C1175     1.0  0.30546  0.82928  0.68649  1.0000
  S   S153      1.0  0.18038  0.63671  0.50010  1.0000
  H   H946      1.0  0.31673  0.83571  0.64357  1.0000
  C   C1176     1.0  0.22482  0.80089  0.72683  1.0000
  C   C1177     1.0  0.14019  0.60141  0.65612  1.0000
  C   C1178     1.0  0.09039  0.52461  0.52649  1.0000
  C   C1179     1.0  0.30715  0.92177  0.51448  1.0000
  C   C1180     1.0  0.13591  0.69421  0.55697  1.0000
  C   C1181     1.0  0.21817  0.69754  0.73682  1.0000
  C   C1182     1.0  0.26964  0.86810  0.69476  1.0000
  C   C1183     1.0  0.29283  0.80790  0.57384  1.0000
  C   C1184     1.0  0.11256  0.68194  0.56291  1.0000
  H   H947      1.0  0.19545  0.60299  0.65548  1.0000
  H   H948      1.0  0.25622  0.70501  0.49914  1.0000
  C   C1185     1.0  0.13360  0.51994  0.71908  1.0000
  C   C1186     1.0  0.02639  0.68603  0.55155  1.0000
  H   H949      1.0  0.20555  0.84713  0.67060  1.0000
  H   H950      1.0  0.19670  0.80377  0.67455  1.0000
  H   H951      1.0  0.22792  0.78423  0.67350  1.0000
  H   H952      1.0  0.26768  0.80732  0.66875  1.0000
  H   H953      1.0  0.24547  0.87082  0.66592  1.0000
  C   C1187     1.0  0.14290  0.71900  0.55310  1.0000
  H   H954      1.0  0.27078  0.87849  0.63602  1.0000
  H   H955      1.0  0.11279  0.59596  0.67827  1.0000
  H   H956      1.0  0.09942  0.55835  0.73960  1.0000
  C   C1188     1.0  0.30822  0.96068  0.51870  1.0000
  C   C1189     1.0  0.28573  0.90281  0.70318  1.0000
  C   C1190     1.0  0.26865  0.88170  0.70644  1.0000
  H   H957      1.0  0.28581  0.92796  0.53621  1.0000
  H   H958      1.0  0.25497  0.87541  0.71826  1.0000
  H   H959      1.0  0.25669  0.85134  0.69791  1.0000
  H   H960      1.0  0.04068  0.54477  0.52657  1.0000
  C   C1191     1.0  0.17737  0.60124  0.66061  1.0000
  H   H961      1.0  0.23921  0.67357  0.73625  1.0000
  C   C1192     1.0  0.14465  0.59498  0.68494  1.0000
  C   C1193     1.0  0.12614  0.73120  0.55564  1.0000
  C   C1194     1.0  0.04826  0.51558  0.60214  1.0000
  H   H962      1.0  0.00921  0.66752  0.51932  1.0000
  H   H963      1.0  0.04103  0.69719  0.55381  1.0000
  C   C1195     1.0  0.30237  0.78604  0.55327  1.0000
  H   H964      1.0  0.14295  0.72242  0.51956  1.0000
  C   C1196     1.0  0.29935  0.93599  0.52439  1.0000
  C   C1197     1.0  0.30383  0.91034  0.68822  1.0000
  H   H965      1.0  0.21834  0.79776  0.57366  1.0000
  C   C1198     1.0  0.28931  0.88473  0.63204  1.0000
  C   C1199     1.0  0.08622  0.77656  0.73894  1.0000
  S   S154      1.0  0.31872  0.86622  0.71480  1.0000
  H   H966      1.0  0.19789  0.72158  0.74094  1.0000
  H   H967      1.0  0.14003  0.58084  0.74209  1.0000
  C   C1200     1.0  0.18438  0.63050  0.73091  1.0000
  C   C1201     1.0  0.18471  0.63932  0.71389  1.0000
  S   S155      1.0  0.25663  0.82738  0.73854  1.0000
  C   C1202     1.0  0.06996  0.51364  0.60335  1.0000
  H   H968      1.0  0.23703  0.73897  0.50572  1.0000
  H   H969      1.0  0.29180  0.98534  0.73731  1.0000
  H   H970      1.0  0.99666  0.64828  0.71951  1.0000
  C   C1203     1.0  0.10655  0.61962  0.71619  1.0000
  C   C1204     1.0  0.32514  0.79998  0.54816  1.0000
  H   H971      1.0  0.16885  0.63465  0.69389  1.0000
  C   C1205     1.0  0.09482  0.75754  0.73658  1.0000
  P   P43       1.0  0.02182  0.67055  0.74105  1.0000
  C   C1206     1.0  0.00856  0.66919  0.53211  1.0000
  C   C1207     1.0  0.00732  0.57192  0.57504  1.0000
  S   S156      1.0  0.31898  0.81882  0.74272  1.0000
  H   H972      1.0  0.14323  0.50916  0.71349  1.0000
  H   H973      1.0  0.31748  0.92629  0.68605  1.0000
  H   H974      1.0  0.26811  0.88336  0.74352  1.0000
  H   H975      1.0  0.19613  0.64038  0.73649  1.0000
  Fe  Fe74      1.0  0.29139  0.82053  0.49676  1.0000
  S   S157      1.0  0.26485  0.78457  0.50430  1.0000
  C   C1208     1.0  0.16828  0.60935  0.74096  1.0000
  H   H976      1.0  0.00596  0.63575  0.58862  1.0000
  C   C1209     1.0  0.00686  0.67344  0.56512  1.0000
  H   H977      1.0  0.31874  0.80723  0.70352  1.0000
  H   H978      1.0  0.32242  0.86426  0.54229  1.0000
  C   C1210     1.0  0.32413  0.90893  0.61027  1.0000
  C   C1211     1.0  0.03064  0.74945  0.73814  1.0000
  C   C1212     1.0  0.18271  0.78559  0.49623  1.0000
  C   C1213     1.0  0.03025  0.64138  0.50038  1.0000
  H   H979      1.0  0.08964  0.59956  0.49837  1.0000
  C   C1214     1.0  0.99557  0.60619  0.61061  1.0000
  H   H980      1.0  0.03783  0.62820  0.74545  1.0000
  Fe  Fe75      1.0  0.25462  0.87128  0.95999  1.0000
  S   S158      1.0  0.27992  0.87115  0.97566  1.0000
  S   S159      1.0  0.22489  0.83787  0.96774  1.0000
  Fe  Fe76      1.0  0.28022  0.92094  0.93825  1.0000
  S   S160      1.0  0.28167  0.95359  0.91838  1.0000
  Fe  Fe77      1.0  0.30691  0.88767  0.95066  1.0000
  Fe  Fe78      1.0  0.27916  0.90811  0.97580  1.0000
  H   H981      1.0  0.01250  0.59274  0.78784  1.0000
  S   S161      1.0  0.28190  0.88520  0.93477  1.0000
  S   S162      1.0  0.25114  0.90693  0.96247  1.0000
  Fe  Fe79      1.0  0.15249  0.76522  0.91862  1.0000
  S   S163      1.0  0.15190  0.72936  0.93376  1.0000
  S   S164      1.0  0.17862  0.80070  0.91349  1.0000
  Fe  Fe80      1.0  0.11030  0.74523  0.90708  1.0000
  S   S165      1.0  0.10573  0.70832  0.92211  1.0000
  S   S166      1.0  0.08848  0.75497  0.88952  1.0000
  Fe  Fe81      1.0  0.11373  0.72411  0.94291  1.0000
  Fe  Fe82      1.0  0.14376  0.71620  0.91173  1.0000
  S   S167      1.0  0.15975  0.69056  0.90034  1.0000
  S   S168      1.0  0.11475  0.76072  0.92894  1.0000
  S   S169      1.0  0.14814  0.75266  0.89560  1.0000
  Fe  Fe83      1.0  0.10801  0.59446  0.85716  1.0000
  S   S170      1.0  0.08519  0.55893  0.85887  1.0000
  S   S171      1.0  0.09571  0.61389  0.87620  1.0000
  Fe  Fe84      1.0  0.14124  0.59545  0.82438  1.0000
  S   S172      1.0  0.12194  0.55984  0.82371  1.0000
  S   S173      1.0  0.17063  0.61831  0.80192  1.0000
  Fe  Fe85      1.0  0.09078  0.57241  0.83073  1.0000
  S   S174      1.0  0.06435  0.56241  0.81695  1.0000
  Fe  Fe86      1.0  0.11797  0.54897  0.85178  1.0000
  S   S175      1.0  0.11021  0.60892  0.82950  1.0000
  S   S176      1.0  0.14074  0.58369  0.85206  1.0000
  H   H982      1.0  0.17475  0.74124  0.81245  1.0000
  H   H983      1.0  0.21219  0.75989  0.79119  1.0000
  S   S177      1.0  0.30308  0.86177  0.75582  1.0000
  H   H984      1.0  0.17347  0.77941  0.94972  1.0000
  H   H985      1.0  0.22395  0.79765  0.89520  1.0000
  H   H986      1.0  0.99922  0.62420  0.76659  1.0000
  C   C1215     1.0  0.28637  0.92903  0.87637  1.0000
  C   C1216     1.0  0.05791  0.76129  0.92910  1.0000
  C   C1217     1.0  0.06242  0.75350  0.76737  1.0000
  C   C1218     1.0  0.07169  0.73469  0.76541  1.0000
  H   H987      1.0  0.05753  0.72743  0.92465  1.0000
  H   H988      1.0  0.25219  0.75825  0.81812  1.0000
  C   C1219     1.0  0.28025  0.99252  0.77735  1.0000
  H   H989      1.0  0.27884  0.91384  0.90352  1.0000
  H   H990      1.0  0.06610  0.71857  0.77566  1.0000
  H   H991      1.0  0.18013  0.84727  0.98621  1.0000
  H   H992      1.0  0.04870  0.64191  0.91788  1.0000
  H   H993      1.0  0.08275  0.63968  0.77710  1.0000
  C   C1220     1.0  0.15838  0.62729  0.78535  1.0000
  C   C1221     1.0  0.13629  0.61470  0.78593  1.0000
  C   C1222     1.0  0.12603  0.62232  0.77317  1.0000
  C   C1223     1.0  0.13764  0.64285  0.75992  1.0000
  C   C1224     1.0  0.15976  0.65550  0.75921  1.0000
  C   C1225     1.0  0.17026  0.64744  0.77179  1.0000
  H   H994      1.0  0.12700  0.59901  0.79617  1.0000
  H   H995      1.0  0.10891  0.61245  0.77376  1.0000
  C   C1226     1.0  0.07762  0.52408  0.90874  1.0000
  H   H996      1.0  0.18735  0.65697  0.77126  1.0000
  C   C1227     1.0  0.04884  0.58271  0.81210  1.0000
  C   C1228     1.0  0.03512  0.57927  0.80105  1.0000
  H   H997      1.0  0.28383  0.63727  0.80578  1.0000
  C   C1229     1.0  0.02402  0.61485  0.80326  1.0000
  C   C1230     1.0  0.03756  0.61828  0.81445  1.0000
  C   C1231     1.0  0.04991  0.60207  0.81896  1.0000
  H   H998      1.0  0.32654  0.98716  0.89842  1.0000
  H   H999      1.0  0.03292  0.51426  0.83243  1.0000
  H   H1000     1.0  0.27231  0.78886  0.79050  1.0000
  H   H1001     1.0  0.06022  0.60453  0.82774  1.0000
  C   C1232     1.0  0.06611  0.73192  0.97503  1.0000
  Fe  Fe87      1.0  0.32355  0.98386  0.82436  1.0000
  C   C1233     1.0  0.12599  0.79391  0.96965  1.0000
  H   H1002     1.0  0.07436  0.74197  0.96187  1.0000
  H   H1003     1.0  0.04637  0.69037  0.76380  1.0000
  C   C1234     1.0  0.14189  0.66867  0.89406  1.0000
  C   C1235     1.0  0.15135  0.65330  0.88607  1.0000
  C   C1236     1.0  0.13753  0.63646  0.88033  1.0000
  C   C1237     1.0  0.11414  0.63482  0.88271  1.0000
  C   C1238     1.0  0.10473  0.64998  0.89083  1.0000
  C   C1239     1.0  0.11852  0.66689  0.89634  1.0000
  H   H1004     1.0  0.16939  0.65444  0.88430  1.0000
  H   H1005     1.0  0.14485  0.62455  0.87432  1.0000
  H   H1006     1.0  0.08668  0.64881  0.89269  1.0000
  H   H1007     1.0  0.11098  0.67868  0.90214  1.0000
  C   C1240     1.0  0.07476  0.73295  0.88110  1.0000
  C   C1241     1.0  0.07435  0.70930  0.88700  1.0000
  C   C1242     1.0  0.06271  0.69200  0.88053  1.0000
  C   C1243     1.0  0.05162  0.69816  0.86796  1.0000
  C   C1244     1.0  0.05225  0.72184  0.86183  1.0000
  C   C1245     1.0  0.06369  0.73915  0.86846  1.0000
  H   H1008     1.0  0.08281  0.70421  0.89663  1.0000
  H   H1009     1.0  0.02608  0.62952  0.85151  1.0000
  H   H1010     1.0  0.06393  0.75740  0.86381  1.0000
  C   C1246     1.0  0.28390  0.95147  0.89737  1.0000
  C   C1247     1.0  0.28250  0.92986  0.89346  1.0000
  C   C1248     1.0  0.28679  0.98073  0.75116  1.0000
  C   C1249     1.0  0.29213  0.94984  0.86315  1.0000
  C   C1250     1.0  0.32028  0.88818  0.88838  1.0000
  C   C1251     1.0  0.10384  0.53498  0.79183  1.0000
  S   S178      1.0  0.30785  0.92460  0.95185  1.0000
  H   H1011     1.0  0.04953  0.68865  0.96030  1.0000
  C   C1252     1.0  0.30093  0.83176  0.90586  1.0000
  C   C1253     1.0  0.19141  0.81044  0.92882  1.0000
  C   C1254     1.0  0.20747  0.83282  0.92387  1.0000
  C   C1255     1.0  0.21809  0.84124  0.93558  1.0000
  C   C1256     1.0  0.21238  0.82756  0.95251  1.0000
  C   C1257     1.0  0.19611  0.80529  0.95756  1.0000
  C   C1258     1.0  0.18581  0.79666  0.94573  1.0000
  H   H1012     1.0  0.21166  0.84384  0.91095  1.0000
  H   H1013     1.0  0.23043  0.85848  0.93157  1.0000
  H   H1014     1.0  0.19155  0.79463  0.97065  1.0000
  H   H1015     1.0  0.22634  0.86367  0.75362  1.0000
  C   C1259     1.0  0.32365  0.79829  0.85625  1.0000
  C   C1260     1.0  0.31082  0.96299  0.98295  1.0000
  H   H1016     1.0  0.29602  0.98728  0.85700  1.0000
  H   H1017     1.0  0.05363  0.79302  0.93559  1.0000
  C   C1261     1.0  0.04043  0.66053  0.75315  1.0000
  H   H1018     1.0  0.14504  0.68987  0.86028  1.0000
  C   C1262     1.0  0.28232  0.95727  0.76056  1.0000
  P   P44       1.0  0.01252  0.69541  0.94516  1.0000
  H   H1019     1.0  0.10244  0.55233  0.79278  1.0000
  H   H1020     1.0  0.04324  0.75362  0.97946  1.0000
  H   H1021     1.0  0.27093  0.77927  0.76318  1.0000
  H   H1022     1.0  0.21470  0.77315  0.76046  1.0000
  C   C1263     1.0  0.02458  0.52318  0.85628  1.0000
  H   H1023     1.0  0.08406  0.51241  0.84664  1.0000
  C   C1264     1.0  0.01541  0.73199  0.75233  1.0000
  P   P45       1.0  0.30454  0.84374  0.88330  1.0000
  H   H1024     1.0  0.13495  0.50929  0.76658  1.0000
  Fe  Fe88      1.0  0.02102  0.68371  0.83873  1.0000
  C   C1265     1.0  0.04613  0.77424  0.93794  1.0000
  C   C1266     1.0  0.17527  0.74723  0.79914  1.0000
  C   C1267     1.0  0.01461  0.73893  0.95207  1.0000
  C   C1268     1.0  0.23437  0.87416  0.76095  1.0000
  H   H1025     1.0  0.06345  0.78932  0.75578  1.0000
  H   H1026     1.0  0.01532  0.77306  0.95636  1.0000
  S   S179      1.0  0.00842  0.63458  0.79725  1.0000
  C   C1269     1.0  0.26220  0.76592  0.77523  1.0000
  C   C1270     1.0  0.19665  0.75761  0.78709  1.0000
  H   H1027     1.0  0.07772  0.72335  0.82397  1.0000
  C   C1271     1.0  0.22257  0.69578  0.76990  1.0000
  H   H1028     1.0  0.03861  0.63345  0.81951  1.0000
  C   C1272     1.0  0.07296  0.71237  0.98219  1.0000
  C   C1273     1.0  0.00964  0.70427  0.91153  1.0000
  H   H1029     1.0  0.09456  0.72191  0.74831  1.0000
  C   C1274     1.0  0.10644  0.79007  0.98323  1.0000
  H   H1030     1.0  0.06655  0.78939  0.80217  1.0000
  S   S180      1.0  0.04118  0.68837  0.81172  1.0000
  C   C1275     1.0  0.29381  0.81209  0.94099  1.0000
  H   H1031     1.0  0.03429  0.56431  0.79573  1.0000
  H   H1032     1.0  0.32044  0.84953  0.82745  1.0000
  S   S181      1.0  0.00515  0.71326  0.83210  1.0000
  C   C1276     1.0  0.02278  0.59532  0.79661  1.0000
  H   H1033     1.0  0.07700  0.64194  0.93485  1.0000
  C   C1277     1.0  0.06433  0.66464  0.94905  1.0000
  C   C1278     1.0  0.22140  0.87607  0.77630  1.0000
  C   C1279     1.0  0.26847  0.89872  0.76459  1.0000
  C   C1280     1.0  0.25552  0.90139  0.77980  1.0000
  C   C1281     1.0  0.23191  0.88956  0.78573  1.0000
  P   P46       1.0  0.26925  0.92051  0.79104  1.0000
  C   C1282     1.0  0.29497  0.91320  0.79443  1.0000
  C   C1283     1.0  0.27660  0.95109  0.77854  1.0000
  C   C1284     1.0  0.24955  0.63838  0.80515  1.0000
  C   C1285     1.0  0.31973  0.87482  0.87651  1.0000
  C   C1286     1.0  0.00623  0.56945  0.86491  1.0000
  C   C1287     1.0  0.31040  0.92822  0.80024  1.0000
  C   C1288     1.0  0.19803  0.76535  0.76976  1.0000
  H   H1034     1.0  0.07317  0.67716  0.77889  1.0000
  H   H1035     1.0  0.26441  0.80268  0.89549  1.0000
  C   C1289     1.0  0.29933  0.89203  0.79207  1.0000
  C   C1290     1.0  0.25024  0.91851  0.81150  1.0000
  C   C1291     1.0  0.23030  0.92609  0.81194  1.0000
  C   C1292     1.0  0.21682  0.92737  0.82735  1.0000
  C   C1293     1.0  0.22346  0.92168  0.84238  1.0000
  C   C1294     1.0  0.24336  0.91439  0.84204  1.0000
  C   C1295     1.0  0.25652  0.91242  0.82677  1.0000
  H   H1036     1.0  0.20320  0.86704  0.78090  1.0000
  S   S182      1.0  0.03640  0.67556  0.86084  1.0000
  H   H1037     1.0  0.22148  0.89059  0.79758  1.0000
  C   C1296     1.0  0.02084  0.56460  0.87519  1.0000
  C   C1297     1.0  0.08592  0.79260  0.97953  1.0000
  H   H1038     1.0  0.30728  0.94446  0.80247  1.0000
  C   C1298     1.0  0.27289  0.64849  0.80300  1.0000
  C   C1299     1.0  0.06993  0.75558  0.81428  1.0000
  H   H1039     1.0  0.28744  0.87951  0.78832  1.0000
  H   H1040     1.0  0.22563  0.93179  0.80023  1.0000
  H   H1041     1.0  0.20169  0.93360  0.82753  1.0000
  H   H1042     1.0  0.21357  0.92356  0.85420  1.0000
  H   H1043     1.0  0.24928  0.91136  0.85345  1.0000
  H   H1044     1.0  0.27214  0.90732  0.82693  1.0000
  C   C1300     1.0  0.20988  0.70984  0.76279  1.0000
  H   H1045     1.0  0.01504  0.70169  0.97883  1.0000
  C   C1301     1.0  0.28211  0.67304  0.79716  1.0000
  C   C1302     1.0  0.26798  0.68752  0.79356  1.0000
  C   C1303     1.0  0.24444  0.67748  0.79599  1.0000
  H   H1046     1.0  0.02017  0.66409  0.92247  1.0000
  P   P47       1.0  0.22601  0.69570  0.79092  1.0000
  C   C1304     1.0  0.19898  0.68307  0.80752  1.0000
  C   C1305     1.0  0.23979  0.73146  0.80629  1.0000
  C   C1306     1.0  0.17790  0.67821  0.80344  1.0000
  C   C1307     1.0  0.15757  0.66554  0.81618  1.0000
  C   C1308     1.0  0.15793  0.65794  0.83315  1.0000
  C   C1309     1.0  0.17866  0.66313  0.83743  1.0000
  C   C1310     1.0  0.19911  0.67540  0.82468  1.0000
  C   C1311     1.0  0.23329  0.68279  0.76017  1.0000
  H   H1047     1.0  0.04362  0.72674  0.85222  1.0000
  H   H1048     1.0  0.07645  0.51659  0.81471  1.0000
  H   H1049     1.0  0.28600  0.91243  0.87336  1.0000
  H   H1050     1.0  0.27551  0.70647  0.78884  1.0000
  H   H1051     1.0  0.07051  0.54944  0.92235  1.0000
  H   H1052     1.0  0.23158  0.71840  0.81844  1.0000
  H   H1053     1.0  0.17697  0.68290  0.79041  1.0000
  H   H1054     1.0  0.14160  0.66082  0.81279  1.0000
  H   H1055     1.0  0.14214  0.64772  0.84293  1.0000
  H   H1056     1.0  0.17898  0.65681  0.85055  1.0000
  H   H1057     1.0  0.21512  0.67783  0.82818  1.0000
  H   H1058     1.0  0.24332  0.67189  0.76519  1.0000
  C   C1312     1.0  0.25958  0.81738  0.88866  1.0000
  C   C1313     1.0  0.02320  0.50793  0.84580  1.0000
  C   C1314     1.0  0.25790  0.88531  0.75520  1.0000
  H   H1059     1.0  0.28394  0.94441  0.75351  1.0000
  C   C1315     1.0  0.04857  0.65188  0.92730  1.0000
  C   C1316     1.0  0.03318  0.67884  0.94133  1.0000
  C   C1317     1.0  0.31937  0.88669  0.79455  1.0000
  H   H1060     1.0  0.09166  0.69012  0.83347  1.0000
  C   C1318     1.0  0.06568  0.66668  0.77137  1.0000
  H   H1061     1.0  0.30025  0.68085  0.79534  1.0000
  H   H1062     1.0  0.07605  0.64993  0.83149  1.0000
  H   H1063     1.0  0.02806  0.70676  0.90783  1.0000
  C   C1319     1.0  0.31039  0.80975  0.86559  1.0000
  C   C1320     1.0  0.03266  0.66494  0.92973  1.0000
  H   H1064     1.0  0.14197  0.79172  0.97208  1.0000
  C   C1321     1.0  0.27599  0.96910  0.78682  1.0000
  C   C1322     1.0  0.07099  0.64556  0.77046  1.0000
  H   H1065     1.0  0.06523  0.61546  0.76044  1.0000
  C   C1323     1.0  0.06105  0.63184  0.76101  1.0000
  S   S183      1.0  0.04011  0.75123  0.78540  1.0000
  C   C1324     1.0  0.32109  0.82872  0.87106  1.0000
  C   C1325     1.0  0.07831  0.77873  0.80380  1.0000
  C   C1326     1.0  0.01264  0.70815  0.75301  1.0000
  H   H1066     1.0  0.14108  0.75120  0.77214  1.0000
  Fe  Fe89      1.0  0.02315  0.71592  0.80484  1.0000
  S   S184      1.0  0.30026  0.94896  0.84180  1.0000
  C   C1327     1.0  0.04828  0.73706  0.93189  1.0000
  C   C1328     1.0  0.00806  0.59277  0.85645  1.0000
  H   H1067     1.0  0.14060  0.82866  0.98608  1.0000
  C   C1329     1.0  0.04856  0.73854  0.98501  1.0000
  C   C1330     1.0  0.26279  0.77138  0.79065  1.0000
  H   H1068     1.0  0.30745  0.95962  0.97137  1.0000
  C   C1331     1.0  0.25152  0.75417  0.80616  1.0000
  C   C1332     1.0  0.29230  0.97126  0.86712  1.0000
  C   C1333     1.0  0.31156  0.80873  0.92905  1.0000
  H   H1069     1.0  0.03727  0.55417  0.91155  1.0000
  C   C1334     1.0  0.23539  0.65278  0.80156  1.0000
  C   C1335     1.0  0.04897  0.67836  0.95111  1.0000
  C   C1336     1.0  0.27945  0.82505  0.93544  1.0000
  H   H1070     1.0  0.13851  0.71879  0.87653  1.0000
  C   C1337     1.0  0.07032  0.77464  0.75429  1.0000
  H   H1071     1.0  0.28877  0.98876  0.88720  1.0000
  C   C1338     1.0  0.28808  0.97205  0.88422  1.0000
  C   C1339     1.0  0.02451  0.61144  0.85812  1.0000
  H   H1072     1.0  0.13193  0.54855  0.76895  1.0000
  H   H1073     1.0  0.11810  0.66863  0.77971  1.0000
  C   C1340     1.0  0.02453  0.76303  0.94952  1.0000
  H   H1074     1.0  0.16873  0.67133  0.74892  1.0000
  C   C1341     1.0  0.03942  0.60681  0.86796  1.0000
  H   H1075     1.0  0.07435  0.77015  0.91976  1.0000
  H   H1076     1.0  0.27243  0.96522  0.80060  1.0000
  C   C1342     1.0  0.03769  0.58352  0.87640  1.0000
  C   C1343     1.0  0.12043  0.53281  0.77841  1.0000
  H   H1077     1.0  0.07672  0.66470  0.95647  1.0000
  H   H1078     1.0  0.14006  0.69559  0.83135  1.0000
  H   H1079     1.0  0.20163  0.72010  0.76999  1.0000
  H   H1080     1.0  0.10804  0.80577  0.78693  1.0000
  C   C1344     1.0  0.17796  0.76290  0.76445  1.0000
  C   C1345     1.0  0.25078  0.74312  0.77530  1.0000
  H   H1081     1.0  0.08966  0.63889  0.80475  1.0000
  H   H1082     1.0  0.03560  0.54110  0.85088  1.0000
  H   H1083     1.0  0.05179  0.74853  0.82082  1.0000
  H   H1084     1.0  0.06233  0.67373  0.88528  1.0000
  H   H1085     1.0  0.05257  0.62133  0.86889  1.0000
  C   C1346     1.0  0.06533  0.53944  0.91377  1.0000
  H   H1086     1.0  0.04986  0.58061  0.88356  1.0000
  P   P48       1.0  0.01659  0.53440  0.88737  1.0000
  C   C1347     1.0  0.23932  0.72567  0.79086  1.0000
  H   H1087     1.0  0.31537  0.78367  0.85205  1.0000
  H   H1088     1.0  0.12746  0.75413  0.86341  1.0000
  C   C1348     1.0  0.31528  0.81869  0.91154  1.0000
  S   S185      1.0  0.12020  0.51253  0.86372  1.0000
  H   H1089     1.0  0.24235  0.61934  0.80954  1.0000
  H   H1090     1.0  0.25133  0.73924  0.76311  1.0000
  C   C1349     1.0  0.12516  0.80078  0.95271  1.0000
  C   C1350     1.0  0.10474  0.80351  0.94917  1.0000
  C   C1351     1.0  0.08512  0.79930  0.96258  1.0000
  H   H1091     1.0  0.14034  0.80380  0.94230  1.0000
  H   H1092     1.0  0.10413  0.80857  0.93602  1.0000
  H   H1093     1.0  0.12216  0.75999  0.83443  1.0000
  Fe  Fe90      1.0  0.00951  0.66330  0.81038  1.0000
  H   H1094     1.0  0.13459  0.78135  0.79026  1.0000
  H   H1095     1.0  0.06918  0.80109  0.95990  1.0000
  S   S186      1.0  0.09532  0.70378  0.97041  1.0000
  C   C1352     1.0  0.12227  0.51043  0.77727  1.0000
  C   C1353     1.0  0.04571  0.63921  0.75247  1.0000
  C   C1354     1.0  0.27587  0.83945  0.88080  1.0000
  C   C1355     1.0  0.23667  0.81445  0.88854  1.0000
  C   C1356     1.0  0.22980  0.83355  0.88074  1.0000
  C   C1357     1.0  0.24583  0.85555  0.87293  1.0000
  C   C1358     1.0  0.26884  0.85853  0.87286  1.0000
  H   H1096     1.0  0.29192  0.80382  0.86837  1.0000
  C   C1359     1.0  0.28295  0.83484  0.91797  1.0000
  H   H1097     1.0  0.09090  0.51592  0.75389  1.0000
  H   H1098     1.0  0.13411  0.70858  0.78127  1.0000
  C   C1360     1.0  0.06444  0.65177  0.93692  1.0000
  C   C1361     1.0  0.02655  0.72570  0.94343  1.0000
  H   H1099     1.0  0.29131  0.80485  0.95455  1.0000
  H   H1100     1.0  0.21184  0.83155  0.88149  1.0000
  H   H1101     1.0  0.24024  0.87037  0.86730  1.0000
  H   H1102     1.0  0.28089  0.87582  0.86696  1.0000
  H   H1103     1.0  0.26564  0.82765  0.94470  1.0000
  H   H1104     1.0  0.27162  0.84489  0.91396  1.0000
  C   C1362     1.0  0.19191  0.85682  0.84606  1.0000
  C   C1363     1.0  0.17544  0.84422  0.86152  1.0000
  C   C1364     1.0  0.17401  0.82066  0.86885  1.0000
  C   C1365     1.0  0.18928  0.80975  0.86090  1.0000
  C   C1366     1.0  0.20617  0.82240  0.84550  1.0000
  C   C1367     1.0  0.20708  0.84591  0.83799  1.0000
  P   P49       1.0  0.22559  0.80846  0.83468  1.0000
  C   C1368     1.0  0.25530  0.82112  0.83382  1.0000
  C   C1369     1.0  0.21756  0.77715  0.84529  1.0000
  C   C1370     1.0  0.22176  0.76955  0.86119  1.0000
  C   C1371     1.0  0.21465  0.74552  0.86997  1.0000
  C   C1372     1.0  0.20368  0.72888  0.86282  1.0000
  C   C1373     1.0  0.19981  0.73620  0.84687  1.0000
  C   C1374     1.0  0.20666  0.76023  0.83813  1.0000
  C   C1375     1.0  0.27143  0.80855  0.83005  1.0000
  C   C1376     1.0  0.29480  0.81885  0.82765  1.0000
  C   C1377     1.0  0.30225  0.84155  0.82944  1.0000
  C   C1378     1.0  0.28636  0.85414  0.83336  1.0000
  C   C1379     1.0  0.26300  0.84408  0.83542  1.0000
  C   C1380     1.0  0.22251  0.81262  0.81329  1.0000
  C   C1381     1.0  0.24189  0.81985  0.79911  1.0000
  C   C1382     1.0  0.23922  0.82178  0.78271  1.0000
  C   C1383     1.0  0.21728  0.81676  0.78025  1.0000
  C   C1384     1.0  0.19788  0.81019  0.79425  1.0000
  C   C1385     1.0  0.20046  0.80820  0.81073  1.0000
  H   H1105     1.0  0.19287  0.87502  0.84031  1.0000
  H   H1106     1.0  0.16371  0.85263  0.86785  1.0000
  H   H1107     1.0  0.16128  0.81087  0.88089  1.0000
  H   H1108     1.0  0.18774  0.79152  0.86696  1.0000
  H   H1109     1.0  0.21950  0.85579  0.82587  1.0000
  H   H1110     1.0  0.23000  0.78226  0.86699  1.0000
  H   H1111     1.0  0.21720  0.73973  0.88251  1.0000
  H   H1112     1.0  0.19788  0.71029  0.86978  1.0000
  H   H1113     1.0  0.19110  0.72322  0.84147  1.0000
  H   H1114     1.0  0.20327  0.76532  0.82588  1.0000
  H   H1115     1.0  0.26609  0.79106  0.82840  1.0000
  H   H1116     1.0  0.30729  0.80948  0.82399  1.0000
  C   C1386     1.0  0.08911  0.51479  0.80419  1.0000
  H   H1117     1.0  0.29229  0.87195  0.83442  1.0000
  H   H1118     1.0  0.25122  0.85441  0.83811  1.0000
  H   H1119     1.0  0.25914  0.82393  0.80052  1.0000
  H   H1120     1.0  0.25429  0.82724  0.77189  1.0000
  H   H1121     1.0  0.21539  0.81804  0.76745  1.0000
  H   H1122     1.0  0.18087  0.80627  0.79231  1.0000
  H   H1123     1.0  0.18527  0.80269  0.82153  1.0000
  H   H1124     1.0  0.28687  0.90698  0.75994  1.0000
  H   H1125     1.0  0.17897  0.76873  0.75099  1.0000
  H   H1126     1.0  0.16751  0.60303  0.75435  1.0000
  C   C1387     1.0  0.32627  0.98441  0.98219  1.0000
  H   H1127     1.0  0.21736  0.64460  0.80308  1.0000
  C   C1388     1.0  0.04668  0.54229  0.90744  1.0000
  C   C1389     1.0  0.08792  0.73668  0.74999  1.0000
  H   H1128     1.0  0.12314  0.74860  0.98776  1.0000
  C   C1390     1.0  0.05045  0.67416  0.76275  1.0000
  C   C1391     1.0  0.11242  0.67343  0.79141  1.0000
  C   C1392     1.0  0.09621  0.65671  0.80550  1.0000
  C   C1393     1.0  0.08868  0.66292  0.82054  1.0000
  C   C1394     1.0  0.09761  0.68582  0.82158  1.0000
  C   C1395     1.0  0.11440  0.70265  0.80758  1.0000
  C   C1396     1.0  0.12145  0.69629  0.79239  1.0000
  P   P50       1.0  0.12713  0.73172  0.80948  1.0000
  C   C1397     1.0  0.10808  0.75010  0.80689  1.0000
  C   C1398     1.0  0.13082  0.72814  0.83070  1.0000
  C   C1399     1.0  0.12746  0.74478  0.83980  1.0000
  C   C1400     1.0  0.13051  0.74156  0.85623  1.0000
  C   C1401     1.0  0.13675  0.72172  0.86365  1.0000
  C   C1402     1.0  0.14034  0.70531  0.85455  1.0000
  C   C1403     1.0  0.13746  0.70855  0.83815  1.0000
  C   C1404     1.0  0.11655  0.77371  0.79683  1.0000
  C   C1405     1.0  0.10163  0.78784  0.79512  1.0000
  C   C1406     1.0  0.08468  0.74126  0.81580  1.0000
  C   C1407     1.0  0.15496  0.74484  0.79395  1.0000
  C   C1408     1.0  0.15650  0.75286  0.77648  1.0000
  C   C1409     1.0  0.04065  0.53038  0.89557  1.0000
  H   H1129     1.0  0.31236  0.88003  0.90189  1.0000
  H   H1130     1.0  0.32287  0.87068  0.79222  1.0000
  C   C1410     1.0  0.20766  0.71065  0.74636  1.0000
  H   H1131     1.0  0.32283  0.79885  0.93336  1.0000
  C   C1411     1.0  0.01252  0.51513  0.87369  1.0000
  C   C1412     1.0  0.07112  0.51137  0.89754  1.0000
  H   H1132     1.0  0.00799  0.71180  0.88543  1.0000
  C   C1413     1.0  0.05274  0.51444  0.89096  1.0000
  H   H1133     1.0  0.07041  0.78927  0.98963  1.0000
  H   H1134     1.0  0.00125  0.69482  0.76431  1.0000
  H   H1135     1.0  0.00644  0.73695  0.76311  1.0000
  H   H1136     1.0  0.09236  0.52215  0.91335  1.0000
  C   C1414     1.0  0.28581  0.99836  0.75954  1.0000
  H   H1137     1.0  0.99711  0.59650  0.84829  1.0000
  C   C1415     1.0  0.99835  0.70743  0.89875  1.0000
  C   C1416     1.0  0.17038  0.83045  0.99537  1.0000
  C   C1417     1.0  0.14811  0.81966  0.99518  1.0000
  H   H1138     1.0  0.04862  0.50477  0.88194  1.0000
  H   H1139     1.0  0.99751  0.73074  0.96064  1.0000
  C   C1418     1.0  0.99974  0.68763  0.98061  1.0000
  C   C1419     1.0  0.99735  0.69824  0.92887  1.0000
  H   H1140     1.0  0.38603  0.37002  0.22474  1.0000
  H   H1141     1.0  0.38088  0.23341  0.00914  1.0000
  C   C1420     1.0  0.39117  0.02399  0.14585  1.0000
  C   C1421     1.0  0.41619  0.26714  0.03223  1.0000
  H   H1142     1.0  0.45966  0.47639  0.14209  1.0000
  S   S187      1.0  0.33323  0.20247  0.07303  1.0000
  C   C1422     1.0  0.41259  0.41525  0.23633  1.0000
  C   C1423     1.0  0.50479  0.01881  0.18627  1.0000
  S   S188      1.0  0.36284  0.17117  0.10200  1.0000
  Fe  Fe91      1.0  0.41309  0.22875  0.08371  1.0000
  S   S189      1.0  0.41510  0.19740  0.10282  1.0000
  S   S190      1.0  0.44248  0.26209  0.07163  1.0000
  Fe  Fe92      1.0  0.39899  0.17567  0.08740  1.0000
  S   S191      1.0  0.41035  0.14400  0.08265  1.0000
  Fe  Fe93      1.0  0.37890  0.19557  0.11563  1.0000
  S   S192      1.0  0.36713  0.18823  0.14415  1.0000
  S   S193      1.0  0.40017  0.20707  0.06686  1.0000
  S   S194      1.0  0.37784  0.22864  0.09759  1.0000
  C   C1424     1.0  0.44367  0.10386  0.24377  1.0000
  Fe  Fe94      1.0  0.51548  0.38180  0.14254  1.0000
  S   S195      1.0  0.51325  0.34754  0.13525  1.0000
  S   S196      1.0  0.55125  0.40766  0.13585  1.0000
  Fe  Fe95      1.0  0.46313  0.36927  0.15641  1.0000
  S   S197      1.0  0.45686  0.33428  0.15054  1.0000
  S   S198      1.0  0.43555  0.38375  0.16925  1.0000
  Fe  Fe96      1.0  0.48707  0.33105  0.16064  1.0000
  S   S199      1.0  0.48493  0.29504  0.17629  1.0000
  Fe  Fe97      1.0  0.48330  0.35330  0.12561  1.0000
  S   S200      1.0  0.48056  0.34922  0.09956  1.0000
  S   S201      1.0  0.49128  0.36458  0.16880  1.0000
  S   S202      1.0  0.48761  0.38920  0.13056  1.0000
  C   C1425     1.0  0.40809  0.12639  0.14671  1.0000
  H   H1143     1.0  0.49699  0.49931  0.12158  1.0000
  H   H1144     1.0  0.35853  0.01206  0.21015  1.0000
  H   H1145     1.0  0.36861  0.28813  0.05702  1.0000
  C   C1426     1.0  0.40258  0.37989  0.08362  1.0000
  S   S203      1.0  0.42093  0.06695  0.21751  1.0000
  H   H1146     1.0  0.36430  0.14448  0.13491  1.0000
  C   C1427     1.0  0.48797  0.11679  0.15322  1.0000
  Fe  Fe98      1.0  0.35307  0.04509  0.04851  1.0000
  C   C1428     1.0  0.37421  0.19792  0.02439  1.0000
  S   S204      1.0  0.59399  0.47776  0.17596  1.0000
  C   C1429     1.0  0.40591  0.36856  0.17546  1.0000
  C   C1430     1.0  0.39731  0.34550  0.17428  1.0000
  C   C1431     1.0  0.37333  0.33438  0.17984  1.0000
  C   C1432     1.0  0.35807  0.34646  0.18640  1.0000
  C   C1433     1.0  0.36684  0.36943  0.18738  1.0000
  C   C1434     1.0  0.39051  0.38029  0.18209  1.0000
  H   H1147     1.0  0.40904  0.33624  0.16919  1.0000
  H   H1148     1.0  0.36672  0.31659  0.17906  1.0000
  H   H1149     1.0  0.35522  0.37883  0.19249  1.0000
  H   H1150     1.0  0.39692  0.39801  0.18309  1.0000
  C   C1435     1.0  0.55422  0.32862  0.18989  1.0000
  H   H1151     1.0  0.40779  0.27595  0.05614  1.0000
  C   C1436     1.0  0.42517  0.37902  0.07784  1.0000
  C   C1437     1.0  0.41476  0.28279  0.04238  1.0000
  C   C1438     1.0  0.48710  0.29010  0.23125  1.0000
  C   C1439     1.0  0.47748  0.26996  0.22666  1.0000
  C   C1440     1.0  0.47670  0.27172  0.20975  1.0000
  C   C1441     1.0  0.48549  0.29356  0.19742  1.0000
  C   C1442     1.0  0.49499  0.31372  0.20202  1.0000
  C   C1443     1.0  0.49596  0.31198  0.21889  1.0000
  C   C1444     1.0  0.51429  0.47250  0.12814  1.0000
  H   H1152     1.0  0.46911  0.25623  0.20624  1.0000
  H   H1153     1.0  0.50209  0.33052  0.19249  1.0000
  H   H1154     1.0  0.50319  0.32766  0.22235  1.0000
  H   H1155     1.0  0.38393  0.01425  0.13784  1.0000
  H   H1156     1.0  0.36939  0.24412  0.05266  1.0000
  C   C1445     1.0  0.38361  0.18074  0.03186  1.0000
  C   C1446     1.0  0.34556  0.20224  0.14814  1.0000
  C   C1447     1.0  0.61403  0.05627  0.10228  1.0000
  C   C1448     1.0  0.39201  0.13919  0.14550  1.0000
  C   C1449     1.0  0.33997  0.19508  0.21280  1.0000
  H   H1157     1.0  0.40505  0.05603  0.12565  1.0000
  C   C1450     1.0  0.35557  0.36859  0.24383  1.0000
  C   C1451     1.0  0.59212  0.04859  0.06345  1.0000
  C   C1452     1.0  0.35433  0.18574  0.22137  1.0000
  H   H1158     1.0  0.41028  0.24837  0.03834  1.0000
  H   H1159     1.0  0.34873  0.20425  0.17310  1.0000
  C   C1453     1.0  0.45202  0.28511  0.08084  1.0000
  C   C1454     1.0  0.46661  0.30640  0.06963  1.0000
  C   C1455     1.0  0.47528  0.32539  0.07578  1.0000
  C   C1456     1.0  0.46984  0.32348  0.09333  1.0000
  C   C1457     1.0  0.45544  0.30205  0.10479  1.0000
  C   C1458     1.0  0.44630  0.28291  0.09853  1.0000
  H   H1160     1.0  0.47125  0.30829  0.05601  1.0000
  H   H1161     1.0  0.48636  0.34176  0.06682  1.0000
  H   H1162     1.0  0.45122  0.30039  0.11835  1.0000
  H   H1163     1.0  0.43513  0.26647  0.10732  1.0000
  C   C1459     1.0  0.39177  0.12538  0.07474  1.0000
  C   C1460     1.0  0.39594  0.10411  0.07253  1.0000
  C   C1461     1.0  0.38127  0.08919  0.06607  1.0000
  C   C1462     1.0  0.36243  0.09555  0.06181  1.0000
  C   C1463     1.0  0.35846  0.11689  0.06388  1.0000
  C   C1464     1.0  0.37294  0.13169  0.07046  1.0000
  H   H1164     1.0  0.41054  0.09919  0.07577  1.0000
  H   H1165     1.0  0.38455  0.07281  0.06440  1.0000
  C   C1465     1.0  0.42155  0.20854  0.02062  1.0000
  H   H1166     1.0  0.36968  0.14809  0.07207  1.0000
  C   C1466     1.0  0.33528  0.32728  0.23632  1.0000
  H   H1167     1.0  0.38555  0.31134  0.07466  1.0000
  C   C1467     1.0  0.58205  0.45924  0.16419  1.0000
  C   C1468     1.0  0.55923  0.44490  0.17099  1.0000
  C   C1469     1.0  0.54946  0.42924  0.16240  1.0000
  C   C1470     1.0  0.56251  0.42750  0.14702  1.0000
  C   C1471     1.0  0.58527  0.44195  0.14016  1.0000
  C   C1472     1.0  0.59494  0.45787  0.14860  1.0000
  H   H1168     1.0  0.54909  0.44588  0.18300  1.0000
  H   H1169     1.0  0.53186  0.41848  0.16767  1.0000
  H   H1170     1.0  0.59556  0.44068  0.12831  1.0000
  H   H1171     1.0  0.61254  0.46867  0.14325  1.0000
  H   H1172     1.0  0.43109  0.28035  0.23150  1.0000
  C   C1473     1.0  0.46262  0.25918  0.14829  1.0000
  C   C1474     1.0  0.46141  0.24788  0.13536  1.0000
  C   C1475     1.0  0.44826  0.22438  0.13943  1.0000
  C   C1476     1.0  0.43632  0.21214  0.15645  1.0000
  C   C1477     1.0  0.43726  0.22351  0.16950  1.0000
  C   C1478     1.0  0.45048  0.24710  0.16525  1.0000
  P   P51       1.0  0.42023  0.20931  0.19135  1.0000
  C   C1479     1.0  0.40244  0.18020  0.19290  1.0000
  C   C1480     1.0  0.43800  0.20594  0.20586  1.0000
  C   C1481     1.0  0.42763  0.19611  0.22353  1.0000
  C   C1482     1.0  0.44114  0.19386  0.23491  1.0000
  C   C1483     1.0  0.46507  0.20098  0.22875  1.0000
  C   C1484     1.0  0.47552  0.21010  0.21118  1.0000
  C   C1485     1.0  0.46207  0.21251  0.19974  1.0000
  C   C1486     1.0  0.38494  0.17770  0.18461  1.0000
  C   C1487     1.0  0.37173  0.15533  0.18538  1.0000
  P   P52       1.0  0.42939  0.09159  0.13960  1.0000
  C   C1488     1.0  0.39347  0.13723  0.20241  1.0000
  C   C1489     1.0  0.40679  0.15963  0.20161  1.0000
  C   C1490     1.0  0.40323  0.22930  0.19615  1.0000
  C   C1491     1.0  0.39068  0.23700  0.18496  1.0000
  C   C1492     1.0  0.37875  0.25359  0.18775  1.0000
  C   C1493     1.0  0.37898  0.26257  0.20187  1.0000
  C   C1494     1.0  0.39159  0.25532  0.21298  1.0000
  C   C1495     1.0  0.40403  0.23916  0.20999  1.0000
  H   H1173     1.0  0.47274  0.27746  0.14518  1.0000
  H   H1174     1.0  0.47054  0.25741  0.12216  1.0000
  H   H1175     1.0  0.44714  0.21574  0.12934  1.0000
  H   H1176     1.0  0.42619  0.19403  0.15921  1.0000
  H   H1177     1.0  0.45111  0.25628  0.17508  1.0000
  H   H1178     1.0  0.40907  0.19050  0.22855  1.0000
  H   H1179     1.0  0.54168  0.31568  0.15448  1.0000
  H   H1180     1.0  0.52180  0.44547  0.10361  1.0000
  H   H1181     1.0  0.49410  0.21585  0.20642  1.0000
  H   H1182     1.0  0.47059  0.21992  0.18622  1.0000
  H   H1183     1.0  0.38167  0.19286  0.17716  1.0000
  C   C1496     1.0  0.57802  0.47038  0.10062  1.0000
  H   H1184     1.0  0.37306  0.06615  0.17194  1.0000
  C   C1497     1.0  0.38539  0.35934  0.09351  1.0000
  H   H1185     1.0  0.42055  0.16062  0.20772  1.0000
  H   H1186     1.0  0.39051  0.23076  0.17376  1.0000
  H   H1187     1.0  0.36936  0.25952  0.17889  1.0000
  H   H1188     1.0  0.36958  0.27531  0.20414  1.0000
  H   H1189     1.0  0.39199  0.26255  0.22382  1.0000
  H   H1190     1.0  0.41438  0.23488  0.21845  1.0000
  H   H1191     1.0  0.42281  0.04749  0.09703  1.0000
  H   H1192     1.0  0.53165  0.05794  0.12879  1.0000
  C   C1498     1.0  0.43344  0.01556  0.10052  1.0000
  C   C1499     1.0  0.47286  0.10900  0.14400  1.0000
  C   C1500     1.0  0.33046  0.01244  0.12988  1.0000
  H   H1193     1.0  0.61260  0.36527  0.20987  1.0000
  C   C1501     1.0  0.55422  0.46742  0.10426  1.0000
  P   P53       1.0  0.59524  0.03320  0.09687  1.0000
  H   H1194     1.0  0.33757  0.20193  0.12423  1.0000
  C   C1502     1.0  0.42559  0.27574  0.01446  1.0000
  H   H1195     1.0  0.54946  0.03363  0.15992  1.0000
  C   C1503     1.0  0.54023  0.44824  0.10083  1.0000
  C   C1504     1.0  0.55660  0.49833  0.14039  1.0000
  S   S205      1.0  0.42459  0.01631  0.04707  1.0000
  C   C1505     1.0  0.62437  0.03310  0.06636  1.0000
  H   H1196     1.0  0.63385  0.01960  0.10738  1.0000
  H   H1197     1.0  0.56023  0.35888  0.14244  1.0000
  H   H1198     1.0  0.35583  0.19410  0.02612  1.0000
  H   H1199     1.0  0.60588  0.03688  0.12882  1.0000
  C   C1506     1.0  0.44903  0.40097  0.21959  1.0000
  S   S206      1.0  0.65436  0.04834  0.16933  1.0000
  H   H1200     1.0  0.64732  0.03334  0.04283  1.0000
  Fe  Fe99      1.0  0.33569  0.03780  0.24291  1.0000
  H   H1201     1.0  0.43973  0.21214  0.01947  1.0000
  H   H1202     1.0  0.65577  0.10439  0.11429  1.0000
  C   C1507     1.0  0.56656  0.36382  0.16603  1.0000
  H   H1203     1.0  0.34405  0.12190  0.06045  1.0000
  H   H1204     1.0  0.37670  0.01094  0.09992  1.0000
  P   P54       1.0  0.43820  0.35777  0.24399  1.0000
  C   C1508     1.0  0.35574  0.05188  0.11578  1.0000
  H   H1205     1.0  0.36076  0.05763  0.14711  1.0000
  H   H1206     1.0  0.40903  0.01956  0.23907  1.0000
  H   H1207     1.0  0.45361  0.02145  0.18143  1.0000
  H   H1208     1.0  0.55182  0.31982  0.20314  1.0000
  C   C1509     1.0  0.43646  0.34659  0.21293  1.0000
  H   H1209     1.0  0.47099  0.25296  0.23605  1.0000
  H   H1210     1.0  0.57177  0.05697  0.11998  1.0000
  H   H1211     1.0  0.47499  0.09760  0.07101  1.0000
  C   C1510     1.0  0.35546  0.06457  0.17162  1.0000
  H   H1212     1.0  0.34487  0.06918  0.19684  1.0000
  H   H1213     1.0  0.37259  0.16340  0.03926  1.0000
  C   C1511     1.0  0.46965  0.25496  0.01138  1.0000
  H   H1214     1.0  0.60726  0.00500  0.21457  1.0000
  H   H1215     1.0  0.43860  0.39498  0.07041  1.0000
  C   C1512     1.0  0.41176  0.04893  0.16583  1.0000
  C   C1513     1.0  0.41344  0.33696  0.09162  1.0000
  C   C1514     1.0  0.39077  0.33776  0.09780  1.0000
  C   C1515     1.0  0.36836  0.36032  0.23160  1.0000
  C   C1516     1.0  0.46720  0.07881  0.09758  1.0000
  C   C1517     1.0  0.37589  0.13507  0.19433  1.0000
  C   C1518     1.0  0.38167  0.29383  0.12438  1.0000
  C   C1519     1.0  0.37843  0.26962  0.12573  1.0000
  C   C1520     1.0  0.39062  0.25699  0.13460  1.0000
  C   C1521     1.0  0.40563  0.26823  0.14256  1.0000
  C   C1522     1.0  0.40811  0.29195  0.14200  1.0000
  C   C1523     1.0  0.39658  0.30489  0.13267  1.0000
  S   S207      1.0  0.43790  0.01718  0.12053  1.0000
  C   C1524     1.0  0.47166  0.44667  0.15159  1.0000
  C   C1525     1.0  0.42759  0.04144  0.21369  1.0000
  H   H1216     1.0  0.42054  0.13147  0.15347  1.0000
  H   H1217     1.0  0.41802  0.32050  0.09457  1.0000
  H   H1218     1.0  0.34285  0.21403  0.20866  1.0000
  H   H1219     1.0  0.36699  0.26047  0.11964  1.0000
  H   H1220     1.0  0.38876  0.23859  0.13501  1.0000
  H   H1221     1.0  0.41560  0.25866  0.14895  1.0000
  H   H1222     1.0  0.41956  0.30047  0.14836  1.0000
  H   H1223     1.0  0.39972  0.32362  0.13162  1.0000
  H   H1224     1.0  0.36273  0.15417  0.23217  1.0000
  C   C1526     1.0  0.47424  0.46914  0.14122  1.0000
  H   H1225     1.0  0.36575  0.11366  0.11946  1.0000
  H   H1226     1.0  0.34253  0.07054  0.99840  1.0000
  H   H1227     1.0  0.53884  0.41687  0.09213  1.0000
  C   C1527     1.0  0.53642  0.04775  0.12004  1.0000
  S   S208      1.0  0.32795  0.33405  0.19407  1.0000
  C   C1528     1.0  0.55209  0.01736  0.15750  1.0000
  C   C1529     1.0  0.42305  0.30714  0.03491  1.0000
  C   C1530     1.0  0.43421  0.30024  0.00704  1.0000
  H   H1228     1.0  0.42527  0.44691  0.21531  1.0000
  H   H1229     1.0  0.45761  0.43416  0.20043  1.0000
  H   H1230     1.0  0.44909  0.11042  0.19077  1.0000
  C   C1531     1.0  0.40001  0.02494  0.17262  1.0000
  C   C1532     1.0  0.65660  0.49973  0.09960  1.0000
  C   C1533     1.0  0.43321  0.31403  0.23686  1.0000
  C   C1534     1.0  0.44581  0.11340  0.10433  1.0000
  C   C1535     1.0  0.57216  0.01132  0.15928  1.0000
  C   C1536     1.0  0.34584  0.31950  0.12338  1.0000
  H   H1231     1.0  0.48829  0.41967  0.15835  1.0000
  H   H1232     1.0  0.65900  0.43700  0.15708  1.0000
  C   C1537     1.0  0.54985  0.43210  0.09416  1.0000
  C   C1538     1.0  0.59827  0.34049  0.23465  1.0000
  H   H1233     1.0  0.39379  0.09080  0.12164  1.0000
  C   C1539     1.0  0.33556  0.03688  0.12795  1.0000
  C   C1540     1.0  0.42235  0.03317  0.07544  1.0000
  H   H1234     1.0  0.63450  0.02602  0.07413  1.0000
  C   C1541     1.0  0.57351  0.43504  0.09075  1.0000
  C   C1542     1.0  0.38976  0.01245  0.16263  1.0000
  H   H1235     1.0  0.35843  0.15393  0.17879  1.0000
  H   H1236     1.0  0.45510  0.43639  0.16037  1.0000
  Fe  Fe100     1.0  0.38717  0.05681  0.23768  1.0000
  H   H1237     1.0  0.43751  0.36477  0.20730  1.0000
  C   C1543     1.0  0.64387  0.09123  0.11095  1.0000
  P   P55       1.0  0.36879  0.31118  0.11080  1.0000
  C   C1544     1.0  0.63182  0.03743  0.04859  1.0000
  C   C1545     1.0  0.34323  0.25223  0.02057  1.0000
  C   C1546     1.0  0.61935  0.04713  0.03827  1.0000
  C   C1547     1.0  0.49320  0.25752  0.00863  1.0000
  C   C1548     1.0  0.59920  0.00487  0.10633  1.0000
  H   H1238     1.0  0.39842  0.39655  0.08059  1.0000
  C   C1549     1.0  0.49547  0.48206  0.12955  1.0000
  H   H1239     1.0  0.42237  0.31916  0.04289  1.0000
  C   C1550     1.0  0.46004  0.25798  0.99749  1.0000
  H   H1240     1.0  0.49113  0.12327  0.17723  1.0000
  H   H1241     1.0  0.50635  0.12241  0.14728  1.0000
  C   C1551     1.0  0.59689  0.35429  0.21929  1.0000
  C   C1552     1.0  0.36536  0.01823  0.10778  1.0000
  C   C1553     1.0  0.56556  0.03351  0.10393  1.0000
  H   H1242     1.0  0.61490  0.34088  0.23690  1.0000
  H   H1243     1.0  0.50067  0.07457  0.17212  1.0000
  C   C1554     1.0  0.35958  0.28511  0.07032  1.0000
  C   C1555     1.0  0.40322  0.04788  0.13895  1.0000
  C   C1556     1.0  0.36905  0.29828  0.08034  1.0000
  C   C1557     1.0  0.40839  0.10811  0.13870  1.0000
  H   H1244     1.0  0.60587  0.45621  0.09157  1.0000
  C   C1558     1.0  0.46712  0.09707  0.08409  1.0000
  H   H1245     1.0  0.36806  0.36048  0.09794  1.0000
  H   H1246     1.0  0.50187  0.03482  0.11839  1.0000
  C   C1559     1.0  0.54855  0.02056  0.09810  1.0000
  H   H1247     1.0  0.36817  0.33302  0.21857  1.0000
  H   H1248     1.0  0.53694  0.48686  0.07819  1.0000
  C   C1560     1.0  0.58760  0.45423  0.09390  1.0000
  C   C1561     1.0  0.35721  0.29439  0.09755  1.0000
  H   H1249     1.0  0.39866  0.42098  0.24291  1.0000
  C   C1562     1.0  0.43408  0.30750  0.20904  1.0000
  C   C1563     1.0  0.43577  0.33129  0.20243  1.0000
  H   H1250     1.0  0.64886  0.48258  0.10885  1.0000
  S   S209      1.0  0.34329  0.07719  0.05408  1.0000
  C   C1564     1.0  0.40725  0.18601  0.02997  1.0000
  H   H1251     1.0  0.43418  0.29587  0.20074  1.0000
  H   H1252     1.0  0.43675  0.33793  0.18906  1.0000
  C   C1565     1.0  0.51126  0.04136  0.20651  1.0000
  C   C1566     1.0  0.34628  0.32279  0.13951  1.0000
  H   H1253     1.0  0.57709  0.05370  0.06888  1.0000
  H   H1254     1.0  0.55505  0.03557  0.20164  1.0000
  C   C1567     1.0  0.33654  0.18137  0.99700  1.0000
  C   C1568     1.0  0.50198  0.03855  0.17549  1.0000
  C   C1569     1.0  0.51157  0.45004  0.13877  1.0000
  H   H1255     1.0  0.36560  0.11771  0.19494  1.0000
  H   H1256     1.0  0.39211  0.15356  0.15141  1.0000
  S   S210      1.0  0.34813  0.27127  0.00018  1.0000
  C   C1570     1.0  0.44899  0.10170  0.15155  1.0000
  C   C1571     1.0  0.44398  0.02110  0.19400  1.0000
  C   C1572     1.0  0.47943  0.11736  0.17005  1.0000
  H   H1257     1.0  0.63219  0.06753  0.13637  1.0000
  H   H1258     1.0  0.43947  0.33476  0.01146  1.0000
  C   C1573     1.0  0.43274  0.31588  0.01722  1.0000
  H   H1259     1.0  0.65174  0.11126  0.08470  1.0000
  C   C1574     1.0  0.44107  0.04212  0.19766  1.0000
  C   C1575     1.0  0.62006  0.00373  0.11002  1.0000
  C   C1576     1.0  0.64168  0.09497  0.09428  1.0000
  H   H1260     1.0  0.62514  0.05048  0.02450  1.0000
  C   C1577     1.0  0.45661  0.11448  0.08749  1.0000
  C   C1578     1.0  0.62676  0.07760  0.08994  1.0000
  H   H1261     1.0  0.54275  0.48321  0.14853  1.0000
  C   C1579     1.0  0.37638  0.13418  0.13607  1.0000
  H   H1262     1.0  0.59541  0.03938  0.20115  1.0000
  H   H1263     1.0  0.32981  0.12736  0.22794  1.0000
  C   C1580     1.0  0.42765  0.42994  0.22082  1.0000
  C   C1581     1.0  0.33605  0.27697  0.10461  1.0000
  C   C1582     1.0  0.63867  0.40050  0.16559  1.0000
  C   C1583     1.0  0.43578  0.33821  0.23021  1.0000
  H   H1264     1.0  0.41658  0.04708  0.06862  1.0000
  S   S211      1.0  0.36324  0.01901  0.06681  1.0000
  C   C1584     1.0  0.55877  0.35031  0.15563  1.0000
  H   H1265     1.0  0.36826  0.19736  0.22403  1.0000
  C   C1585     1.0  0.62559  0.43255  0.17360  1.0000
  C   C1586     1.0  0.60437  0.41670  0.18325  1.0000
  C   C1587     1.0  0.60016  0.39251  0.18426  1.0000
  C   C1588     1.0  0.61579  0.05304  0.11909  1.0000
  P   P56       1.0  0.57294  0.37138  0.19664  1.0000
  C   C1589     1.0  0.32793  0.32417  0.11653  1.0000
  C   C1590     1.0  0.55079  0.38548  0.20279  1.0000
  C   C1591     1.0  0.55303  0.39996  0.21385  1.0000
  C   C1592     1.0  0.53604  0.41100  0.21864  1.0000
  C   C1593     1.0  0.51624  0.40689  0.21301  1.0000
  C   C1594     1.0  0.51341  0.39168  0.20262  1.0000
  C   C1595     1.0  0.53066  0.38113  0.19743  1.0000
  H   H1266     1.0  0.44872  0.05874  0.18792  1.0000
  C   C1596     1.0  0.41219  0.22595  0.01309  1.0000
  C   C1597     1.0  0.35829  0.33950  0.22804  1.0000
  H   H1267     1.0  0.51472  0.04263  0.21855  1.0000
  H   H1268     1.0  0.61460  0.36601  0.17578  1.0000
  H   H1269     1.0  0.47497  0.06503  0.09500  1.0000
  H   H1270     1.0  0.50038  0.25510  0.01945  1.0000
  C   C1598     1.0  0.61752  0.38455  0.17532  1.0000
  H   H1271     1.0  0.59137  0.42371  0.18952  1.0000
  C   C1599     1.0  0.44501  0.09454  0.11789  1.0000
  H   H1272     1.0  0.49822  0.03738  0.16354  1.0000
  H   H1273     1.0  0.35362  0.28885  0.24446  1.0000
  H   H1274     1.0  0.50314  0.41551  0.21671  1.0000
  H   H1275     1.0  0.49809  0.38832  0.19826  1.0000
  H   H1276     1.0  0.52817  0.36978  0.18914  1.0000
  H   H1277     1.0  0.58081  0.42211  0.08605  1.0000
  C   C1600     1.0  0.33730  0.22158  0.05280  1.0000
  H   H1278     1.0  0.57386  0.38276  0.16069  1.0000
  Fe  Fe101     1.0  0.36490  0.20424  0.08260  1.0000
  C   C1601     1.0  0.42584  0.03336  0.09154  1.0000
  H   H1279     1.0  0.52575  0.44227  0.13785  1.0000
  C   C1602     1.0  0.43250  0.29882  0.22631  1.0000
  H   H1280     1.0  0.44813  0.35700  0.07744  1.0000
  C   C1603     1.0  0.43055  0.35757  0.08178  1.0000
  C   C1604     1.0  0.33964  0.06654  0.18559  1.0000
  C   C1605     1.0  0.35675  0.24093  0.04567  1.0000
  H   H1281     1.0  0.62860  0.45123  0.17277  1.0000
  C   C1606     1.0  0.57538  0.35385  0.21632  1.0000
  C   C1607     1.0  0.50341  0.05953  0.18032  1.0000
  C   C1608     1.0  0.55537  0.33972  0.22903  1.0000
  H   H1282     1.0  0.39927  0.01589  0.18556  1.0000
  H   H1283     1.0  0.41946  0.05793  0.17390  1.0000
  H   H1284     1.0  0.45893  0.25075  0.02440  1.0000
  C   C1609     1.0  0.44059  0.10247  0.16847  1.0000
  C   C1610     1.0  0.54848  0.32603  0.16237  1.0000
  H   H1285     1.0  0.45619  0.06312  0.12472  1.0000
  H   H1286     1.0  0.44090  0.13893  0.24343  1.0000
  H   H1287     1.0  0.62542  0.08083  0.07695  1.0000
  H   H1288     1.0  0.39684  0.12151  0.20929  1.0000
  C   C1611     1.0  0.37699  0.11660  0.12759  1.0000
  C   C1612     1.0  0.35944  0.25653  0.02977  1.0000
  C   C1613     1.0  0.35081  0.16136  0.22640  1.0000
  S   S212      1.0  0.65009  0.02160  0.13921  1.0000
  H   H1289     1.0  0.53781  0.29644  0.18474  1.0000
  H   H1290     1.0  0.45634  0.12861  0.07707  1.0000
  H   H1291     1.0  0.37432  0.27174  0.02439  1.0000
  H   H1292     1.0  0.33396  0.14759  0.03172  1.0000
  S   S213      1.0  0.36062  0.07381  0.23083  1.0000
  C   C1614     1.0  0.63071  0.07039  0.12338  1.0000
  Fe  Fe102     1.0  0.35682  0.01857  0.02130  1.0000
  P   P57       1.0  0.42968  0.25563  0.00155  1.0000
  C   C1615     1.0  0.41855  0.02007  0.22645  1.0000
  H   H1293     1.0  0.42229  0.09695  0.17469  1.0000
  Fe  Fe103     1.0  0.39031  0.02016  0.04376  1.0000
  C   C1616     1.0  0.50797  0.06091  0.19586  1.0000
  C   C1617     1.0  0.37062  0.04254  0.10584  1.0000
  C   C1618     1.0  0.45576  0.11024  0.17765  1.0000
  C   C1619     1.0  0.64271  0.42452  0.16472  1.0000
  H   H1294     1.0  0.41441  0.17272  0.03608  1.0000
  Fe  Fe104     1.0  0.62699  0.02266  0.16353  1.0000
  S   S214      1.0  0.59280  0.03059  0.16519  1.0000
  C   C1620     1.0  0.49037  0.43721  0.15044  1.0000
  C   C1621     1.0  0.39293  0.10363  0.12888  1.0000
  S   S215      1.0  0.38189  0.04846  0.02571  1.0000
  H   H1295     1.0  0.47993  0.10879  0.13097  1.0000
  H   H1296     1.0  0.51256  0.01053  0.09915  1.0000
  H   H1297     1.0  0.50880  0.07707  0.19972  1.0000
  C   C1622     1.0  0.45635  0.07764  0.11443  1.0000
  C   C1623     1.0  0.33438  0.20797  0.13560  1.0000
  C   C1624     1.0  0.60421  0.03822  0.07395  1.0000
  C   C1625     1.0  0.34511  0.00329  0.11953  1.0000
  C   C1626     1.0  0.54635  0.31518  0.17944  1.0000
  H   H1298     1.0  0.53863  0.33923  0.22704  1.0000
  H   H1299     1.0  0.58919  0.48475  0.10332  1.0000
  C   C1627     1.0  0.41358  0.06067  0.14889  1.0000
  P   P58       1.0  0.54159  0.48842  0.11258  1.0000
  H   H1300     1.0  0.43769  0.12705  0.10658  1.0000
  C   C1628     1.0  0.56427  0.35311  0.18325  1.0000
  C   C1629     1.0  0.34039  0.20896  0.16328  1.0000
  C   C1630     1.0  0.55926  0.04709  0.11499  1.0000
  H   H1301     1.0  0.38594  0.05423  0.09630  1.0000
  H   H1302     1.0  0.56813  0.40305  0.21851  1.0000
  C   C1631     1.0  0.34840  0.05983  0.15753  1.0000
  H   H1303     1.0  0.59006  0.06066  0.03767  1.0000
  C   C1632     1.0  0.59957  0.05282  0.04569  1.0000
  C   C1633     1.0  0.38845  0.22034  0.01493  1.0000
  H   H1304     1.0  0.53826  0.42279  0.22670  1.0000
  C   C1634     1.0  0.51964  0.03466  0.11426  1.0000
  C   C1635     1.0  0.50983  0.02020  0.20174  1.0000
  H   H1305     1.0  0.35974  0.07086  0.11365  1.0000
  C   C1636     1.0  0.41552  0.39324  0.24338  1.0000
  H   H1306     1.0  0.44091  0.10474  0.23126  1.0000
  H   H1307     1.0  0.35975  0.31947  0.14519  1.0000
  C   C1637     1.0  0.43360  0.38578  0.23490  1.0000
  H   H1308     1.0  0.47550  0.19964  0.23764  1.0000
  C   C1638     1.0  0.33196  0.14619  0.22400  1.0000
  C   C1639     1.0  0.55678  0.32579  0.24428  1.0000
  H   H1309     1.0  0.33124  0.25753  0.06977  1.0000
  C   C1640     1.0  0.33847  0.26787  0.07746  1.0000
  C   C1641     1.0  0.44589  0.42281  0.21247  1.0000
  C   C1642     1.0  0.52570  0.02101  0.10335  1.0000
  C   C1643     1.0  0.32799  0.23423  0.24189  1.0000
  H   H1310     1.0  0.46334  0.39576  0.21305  1.0000
  H   H1311     1.0  0.32973  0.33339  0.16090  1.0000
  C   C1644     1.0  0.58254  0.02271  0.20785  1.0000
  C   C1645     1.0  0.42718  0.01555  0.06790  1.0000
  C   C1646     1.0  0.33379  0.25877  0.23889  1.0000
  H   H1312     1.0  0.33363  0.11617  0.16415  1.0000
  C   C1647     1.0  0.55949  0.02044  0.20818  1.0000
  C   C1648     1.0  0.32918  0.33072  0.14855  1.0000
  H   H1313     1.0  0.52053  0.00777  0.15048  1.0000
  H   H1314     1.0  0.33091  0.15771  0.05925  1.0000
  H   H1315     1.0  0.55289  0.01004  0.08951  1.0000
  H   H1316     1.0  0.65189  0.39429  0.15860  1.0000
  C   C1649     1.0  0.32933  0.15721  0.99793  1.0000
  H   H1317     1.0  0.47191  0.33035  0.24547  1.0000
  C   C1650     1.0  0.58925  0.00324  0.21527  1.0000
  H   H1318     1.0  0.43308  0.18689  0.24856  1.0000
  C   C1651     1.0  0.35540  0.05119  0.42839  1.0000
  H   H1319     1.0  0.58296  0.40192  0.48631  1.0000
  H   H1320     1.0  0.58585  0.46485  0.38779  1.0000
  C   C1652     1.0  0.45458  0.03202  0.42514  1.0000
  C   C1653     1.0  0.49402  0.22240  0.38147  1.0000
  H   H1321     1.0  0.38148  0.10260  0.27913  1.0000
  H   H1322     1.0  0.55967  0.21962  0.41770  1.0000
  Fe  Fe105     1.0  0.61279  0.02532  0.40596  1.0000
  C   C1654     1.0  0.48562  0.00830  0.47460  1.0000
  S   S216      1.0  0.57791  0.03190  0.40764  1.0000
  C   C1655     1.0  0.44374  0.12311  0.25060  1.0000
  H   H1323     1.0  0.44063  0.35024  0.28000  1.0000
  S   S217      1.0  0.63426  0.01523  0.38485  1.0000
  H   H1324     1.0  0.52951  0.38145  0.42817  1.0000
  Fe  Fe106     1.0  0.42278  0.21449  0.28686  1.0000
  Fe  Fe107     1.0  0.45446  0.26388  0.27037  1.0000
  S   S218      1.0  0.43015  0.28068  0.28400  1.0000
  Fe  Fe108     1.0  0.42529  0.25143  0.30717  1.0000
  S   S219      1.0  0.42308  0.25655  0.33368  1.0000
  Fe  Fe109     1.0  0.40304  0.25534  0.27768  1.0000
  S   S220      1.0  0.45181  0.23625  0.29402  1.0000
  S   S221      1.0  0.42773  0.24095  0.26200  1.0000
  H   H1325     1.0  0.47723  0.01075  0.48663  1.0000
  S   S222      1.0  0.36848  0.38145  0.47731  1.0000
  Fe  Fe110     1.0  0.47319  0.36058  0.36939  1.0000
  S   S223      1.0  0.45405  0.38105  0.38405  1.0000
  S   S224      1.0  0.46989  0.35629  0.34343  1.0000
  Fe  Fe111     1.0  0.49919  0.35014  0.39615  1.0000
  S   S225      1.0  0.48173  0.36873  0.41329  1.0000
  S   S226      1.0  0.52810  0.33565  0.40161  1.0000
  Fe  Fe112     1.0  0.44983  0.35143  0.40702  1.0000
  S   S227      1.0  0.41650  0.33085  0.42675  1.0000
  Fe  Fe113     1.0  0.48775  0.39680  0.38901  1.0000
  S   S228      1.0  0.50296  0.43588  0.38572  1.0000
  S   S229      1.0  0.46684  0.33001  0.39208  1.0000
  S   S230      1.0  0.50731  0.37920  0.37214  1.0000
  C   C1656     1.0  0.54208  0.46086  0.42253  1.0000
  C   C1657     1.0  0.59231  0.01830  0.31996  1.0000
  C   C1658     1.0  0.53228  0.46815  0.39551  1.0000
  C   C1659     1.0  0.51833  0.44482  0.39993  1.0000
  C   C1660     1.0  0.51632  0.42950  0.41574  1.0000
  C   C1661     1.0  0.52791  0.43759  0.42709  1.0000
  H   H1326     1.0  0.53363  0.48021  0.38346  1.0000
  H   H1327     1.0  0.50528  0.41168  0.41945  1.0000
  H   H1328     1.0  0.52565  0.42585  0.43948  1.0000
  C   C1662     1.0  0.38144  0.36741  0.46304  1.0000
  C   C1663     1.0  0.39702  0.38094  0.44735  1.0000
  C   C1664     1.0  0.40849  0.36995  0.43630  1.0000
  C   C1665     1.0  0.40332  0.34530  0.44052  1.0000
  C   C1666     1.0  0.38704  0.33174  0.45589  1.0000
  C   C1667     1.0  0.37638  0.34277  0.46726  1.0000
  H   H1329     1.0  0.40041  0.39995  0.44383  1.0000
  H   H1330     1.0  0.42095  0.38046  0.42439  1.0000
  H   H1331     1.0  0.38302  0.31264  0.45920  1.0000
  C   C1668     1.0  0.51621  0.29616  0.45739  1.0000
  C   C1669     1.0  0.53847  0.30556  0.44641  1.0000
  C   C1670     1.0  0.54197  0.31779  0.42931  1.0000
  C   C1671     1.0  0.52325  0.32095  0.42318  1.0000
  C   C1672     1.0  0.50098  0.31189  0.43419  1.0000
  C   C1673     1.0  0.49742  0.29902  0.45119  1.0000
  H   H1332     1.0  0.55295  0.30311  0.45110  1.0000
  H   H1333     1.0  0.55917  0.32476  0.42077  1.0000
  H   H1334     1.0  0.48652  0.31474  0.42959  1.0000
  H   H1335     1.0  0.48016  0.29170  0.45948  1.0000
  C   C1674     1.0  0.43547  0.28462  0.33617  1.0000
  C   C1675     1.0  0.43389  0.28731  0.35271  1.0000
  C   C1676     1.0  0.44418  0.30917  0.35516  1.0000
  C   C1677     1.0  0.45596  0.32865  0.34104  1.0000
  C   C1678     1.0  0.45718  0.32606  0.32450  1.0000
  C   C1679     1.0  0.44710  0.30413  0.32206  1.0000
  H   H1336     1.0  0.42482  0.27238  0.36368  1.0000
  H   H1337     1.0  0.44306  0.31090  0.36796  1.0000
  H   H1338     1.0  0.46628  0.34100  0.31352  1.0000
  H   H1339     1.0  0.44854  0.30232  0.30926  1.0000
  C   C1680     1.0  0.41729  0.34287  0.26443  1.0000
  H   H1340     1.0  0.60808  0.05174  0.36532  1.0000
  C   C1681     1.0  0.46323  0.13820  0.44148  1.0000
  H   H1341     1.0  0.40024  0.02111  0.27720  1.0000
  H   H1342     1.0  0.40862  0.12708  0.29060  1.0000
  C   C1682     1.0  0.45432  0.20242  0.45214  1.0000
  H   H1343     1.0  0.49310  0.35488  0.44704  1.0000
  Fe  Fe114     1.0  0.39291  0.07371  0.49401  1.0000
  H   H1344     1.0  0.36585  0.19851  0.46427  1.0000
  C   C1683     1.0  0.61245  0.41641  0.44308  1.0000
  H   H1345     1.0  0.48733  0.12121  0.40676  1.0000
  H   H1346     1.0  0.44266  0.43047  0.42583  1.0000
  C   C1684     1.0  0.41887  0.20808  0.44661  1.0000
  H   H1347     1.0  0.49981  0.47496  0.43567  1.0000
  H   H1348     1.0  0.64601  0.04842  0.25751  1.0000
  C   C1685     1.0  0.64256  0.07146  0.35047  1.0000
  S   S231      1.0  0.42052  0.17605  0.28891  1.0000
  C   C1686     1.0  0.61187  0.02108  0.49501  1.0000
  C   C1687     1.0  0.64200  0.03461  0.28448  1.0000
  H   H1349     1.0  0.36419  0.33213  0.47922  1.0000
  C   C1688     1.0  0.52699  0.01527  0.38503  1.0000
  C   C1689     1.0  0.54017  0.02430  0.39521  1.0000
  C   C1690     1.0  0.56171  0.02029  0.39480  1.0000
  C   C1691     1.0  0.52444  0.21030  0.41689  1.0000
  C   C1692     1.0  0.60751  0.33791  0.43061  1.0000
  H   H1350     1.0  0.51045  0.01851  0.38535  1.0000
  H   H1351     1.0  0.53375  0.03464  0.40328  1.0000
  C   C1693     1.0  0.40711  0.32987  0.29552  1.0000
  H   H1352     1.0  0.33907  0.19849  0.29509  1.0000
  H   H1353     1.0  0.51243  0.16698  0.46158  1.0000
  C   C1694     1.0  0.47035  0.18178  0.39075  1.0000
  C   C1695     1.0  0.39840  0.13514  0.28345  1.0000
  C   C1696     1.0  0.40028  0.15927  0.28109  1.0000
  Fe  Fe115     1.0  0.35642  0.03007  0.27297  1.0000
  C   C1697     1.0  0.33266  0.35612  0.25243  1.0000
  C   C1698     1.0  0.46084  0.42405  0.46201  1.0000
  H   H1354     1.0  0.55331  0.27045  0.42730  1.0000
  C   C1699     1.0  0.65470  0.04487  0.26736  1.0000
  H   H1355     1.0  0.41209  0.32873  0.30734  1.0000
  H   H1356     1.0  0.48831  0.19804  0.41970  1.0000
  H   H1357     1.0  0.47276  0.18462  0.47934  1.0000
  C   C1700     1.0  0.48487  0.45969  0.44007  1.0000
  C   C1701     1.0  0.58459  0.43989  0.45991  1.0000
  P   P59       1.0  0.52555  0.03955  0.47562  1.0000
  H   H1358     1.0  0.40332  0.16162  0.48127  1.0000
  C   C1702     1.0  0.55580  0.04283  0.46686  1.0000
  C   C1703     1.0  0.56380  0.02267  0.46731  1.0000
  C   C1704     1.0  0.58688  0.02498  0.45969  1.0000
  C   C1705     1.0  0.60209  0.04736  0.45146  1.0000
  C   C1706     1.0  0.59431  0.06747  0.45089  1.0000
  C   C1707     1.0  0.57126  0.06527  0.45853  1.0000
  C   C1708     1.0  0.37952  0.00543  0.30325  1.0000
  H   H1359     1.0  0.59885  0.03723  0.31769  1.0000
  H   H1360     1.0  0.45979  0.18599  0.31527  1.0000
  H   H1361     1.0  0.55724  0.01956  0.32271  1.0000
  H   H1362     1.0  0.38083  0.10648  0.32426  1.0000
  C   C1709     1.0  0.51873  0.06727  0.46967  1.0000
  C   C1710     1.0  0.52550  0.08521  0.47742  1.0000
  C   C1711     1.0  0.52024  0.10670  0.47289  1.0000
  C   C1712     1.0  0.50804  0.11031  0.46072  1.0000
  C   C1713     1.0  0.50075  0.09234  0.45331  1.0000
  C   C1714     1.0  0.50617  0.07098  0.45764  1.0000
  C   C1715     1.0  0.37057  0.15539  0.26625  1.0000
  H   H1363     1.0  0.49075  0.44842  0.46444  1.0000
  H   H1364     1.0  0.55495  0.49412  0.40311  1.0000
  H   H1365     1.0  0.59308  0.00947  0.45990  1.0000
  C   C1716     1.0  0.58110  0.49464  0.35106  1.0000
  C   C1717     1.0  0.59775  0.48853  0.49229  1.0000
  H   H1366     1.0  0.35360  0.05324  0.40260  1.0000
  H   H1367     1.0  0.61991  0.04913  0.44541  1.0000
  H   H1368     1.0  0.60613  0.08475  0.44423  1.0000
  H   H1369     1.0  0.56559  0.08110  0.45749  1.0000
  C   C1718     1.0  0.34391  0.01176  0.44757  1.0000
  H   H1370     1.0  0.39657  0.17821  0.44257  1.0000
  C   C1719     1.0  0.47963  0.44444  0.45646  1.0000
  H   H1371     1.0  0.46084  0.02413  0.40067  1.0000
  C   C1720     1.0  0.49530  0.38814  0.25712  1.0000
  H   H1372     1.0  0.53485  0.08254  0.48693  1.0000
  H   H1373     1.0  0.52546  0.12049  0.47890  1.0000
  H   H1374     1.0  0.50393  0.12687  0.45717  1.0000
  H   H1375     1.0  0.49060  0.09470  0.44432  1.0000
  H   H1376     1.0  0.50016  0.05743  0.45166  1.0000
  H   H1377     1.0  0.62348  0.03044  0.28759  1.0000
  C   C1721     1.0  0.36046  0.19425  0.47808  1.0000
  H   H1378     1.0  0.36231  0.07009  0.42601  1.0000
  C   C1722     1.0  0.33329  0.20105  0.30765  1.0000
  S   S232      1.0  0.36277  0.02025  0.24809  1.0000
  C   C1723     1.0  0.35570  0.23247  0.25862  1.0000
  H   H1379     1.0  0.37233  0.30867  0.30806  1.0000
  C   C1724     1.0  0.42847  0.35538  0.49305  1.0000
  H   H1380     1.0  0.38704  0.42701  0.40537  1.0000
  H   H1381     1.0  0.55211  0.00517  0.47327  1.0000
  C   C1725     1.0  0.35783  0.35997  0.41498  1.0000
  H   H1382     1.0  0.33660  0.29558  0.46752  1.0000
  C   C1726     1.0  0.51903  0.01671  0.45053  1.0000
  Fe  Fe116     1.0  0.42833  0.25371  0.48717  1.0000
  C   C1727     1.0  0.46647  0.15011  0.47449  1.0000
  C   C1728     1.0  0.38470  0.31860  0.29593  1.0000
  C   C1729     1.0  0.62169  0.43283  0.45116  1.0000
  C   C1730     1.0  0.47478  0.38453  0.25235  1.0000
  H   H1383     1.0  0.38866  0.14911  0.32275  1.0000
  C   C1731     1.0  0.47088  0.14644  0.29317  1.0000
  H   H1384     1.0  0.35927  0.16976  0.31947  1.0000
  H   H1385     1.0  0.57932  0.31540  0.25896  1.0000
  C   C1732     1.0  0.33712  0.18625  0.48684  1.0000
  S   S233      1.0  0.65349  0.49993  0.45462  1.0000
  C   C1733     1.0  0.65325  0.02986  0.29725  1.0000
  H   H1386     1.0  0.50795  0.33697  0.25362  1.0000
  H   H1387     1.0  0.46760  0.16365  0.39008  1.0000
  C   C1734     1.0  0.45274  0.43464  0.43449  1.0000
  H   H1388     1.0  0.34207  0.38778  0.45354  1.0000
  C   C1735     1.0  0.49056  0.19896  0.38068  1.0000
  Fe  Fe117     1.0  0.59015  0.49862  0.42629  1.0000
  C   C1736     1.0  0.37953  0.27002  0.49337  1.0000
  P   P60       1.0  0.45526  0.40261  0.48239  1.0000
  C   C1737     1.0  0.38297  0.12122  0.27701  1.0000
  C   C1738     1.0  0.35516  0.15104  0.32044  1.0000
  H   H1389     1.0  0.44607  0.13676  0.27198  1.0000
  C   C1739     1.0  0.35222  0.03619  0.44452  1.0000
  C   C1740     1.0  0.54537  0.27658  0.40305  1.0000
  C   C1741     1.0  0.53996  0.26795  0.42082  1.0000
  C   C1742     1.0  0.51718  0.25677  0.43030  1.0000
  C   C1743     1.0  0.49983  0.25418  0.42200  1.0000
  C   C1744     1.0  0.50494  0.26338  0.40422  1.0000
  C   C1745     1.0  0.52798  0.27409  0.39474  1.0000
  P   P61       1.0  0.48239  0.25893  0.39362  1.0000
  C   C1746     1.0  0.47721  0.22883  0.39229  1.0000
  C   C1747     1.0  0.45639  0.26437  0.40456  1.0000
  C   C1748     1.0  0.45588  0.27504  0.41802  1.0000
  C   C1749     1.0  0.43569  0.27942  0.42612  1.0000
  C   C1750     1.0  0.41595  0.27364  0.42066  1.0000
  C   C1751     1.0  0.41643  0.26359  0.40696  1.0000
  C   C1752     1.0  0.43659  0.25904  0.39889  1.0000
  C   C1753     1.0  0.45705  0.21142  0.40250  1.0000
  C   C1754     1.0  0.45362  0.18802  0.40165  1.0000
  P   P62       1.0  0.57700  0.39178  0.43211  1.0000
  C   C1755     1.0  0.49102  0.27920  0.37253  1.0000
  C   C1756     1.0  0.50221  0.30307  0.37007  1.0000
  C   C1757     1.0  0.50804  0.31915  0.35396  1.0000
  C   C1758     1.0  0.50268  0.31154  0.34021  1.0000
  C   C1759     1.0  0.49123  0.28787  0.34260  1.0000
  C   C1760     1.0  0.48520  0.27177  0.35874  1.0000
  H   H1390     1.0  0.56295  0.28576  0.39573  1.0000
  C   C1761     1.0  0.58908  0.41148  0.44351  1.0000
  H   H1391     1.0  0.48234  0.24538  0.42947  1.0000
  H   H1392     1.0  0.53261  0.28084  0.38097  1.0000
  H   H1393     1.0  0.47112  0.28080  0.42196  1.0000
  H   H1394     1.0  0.43541  0.28800  0.43636  1.0000
  H   H1395     1.0  0.40055  0.27766  0.42682  1.0000
  H   H1396     1.0  0.40133  0.25984  0.40238  1.0000
  H   H1397     1.0  0.43686  0.25168  0.38808  1.0000
  H   H1398     1.0  0.44406  0.21578  0.41124  1.0000
  H   H1399     1.0  0.43796  0.17469  0.40947  1.0000
  H   H1400     1.0  0.50602  0.30939  0.38068  1.0000
  H   H1401     1.0  0.51597  0.33772  0.35228  1.0000
  H   H1402     1.0  0.50640  0.32425  0.32791  1.0000
  H   H1403     1.0  0.48607  0.28227  0.33211  1.0000
  H   H1404     1.0  0.47539  0.25380  0.36045  1.0000
  C   C1762     1.0  0.57427  0.40841  0.41225  1.0000
  C   C1763     1.0  0.58171  0.43320  0.40719  1.0000
  C   C1764     1.0  0.58019  0.44572  0.39149  1.0000
  C   C1765     1.0  0.57081  0.43364  0.38088  1.0000
  C   C1766     1.0  0.56366  0.40896  0.38574  1.0000
  C   C1767     1.0  0.56577  0.39637  0.40121  1.0000
  S   S234      1.0  0.39582  0.22706  0.30214  1.0000
  H   H1405     1.0  0.62371  0.40808  0.43625  1.0000
  H   H1406     1.0  0.58850  0.44305  0.41531  1.0000
  H   H1407     1.0  0.56880  0.44335  0.36901  1.0000
  H   H1408     1.0  0.55624  0.39953  0.37761  1.0000
  H   H1409     1.0  0.56033  0.37722  0.40472  1.0000
  C   C1768     1.0  0.49171  0.05344  0.30605  1.0000
  C   C1769     1.0  0.51217  0.06837  0.30639  1.0000
  C   C1770     1.0  0.51447  0.09250  0.30405  1.0000
  C   C1771     1.0  0.49625  0.10168  0.30148  1.0000
  C   C1772     1.0  0.47546  0.08674  0.30129  1.0000
  C   C1773     1.0  0.47346  0.06254  0.30350  1.0000
  P   P63       1.0  0.45138  0.09806  0.29842  1.0000
  C   C1774     1.0  0.42547  0.07658  0.31260  1.0000
  C   C1775     1.0  0.45416  0.12589  0.30396  1.0000
  C   C1776     1.0  0.43973  0.12729  0.31904  1.0000
  C   C1777     1.0  0.44197  0.14884  0.32318  1.0000
  H   H1410     1.0  0.43206  0.30691  0.25017  1.0000
  H   H1411     1.0  0.48208  0.14589  0.28141  1.0000
  C   C1778     1.0  0.34977  0.26999  0.24627  1.0000
  C   C1779     1.0  0.40531  0.07173  0.30733  1.0000
  C   C1780     1.0  0.38541  0.05494  0.31832  1.0000
  C   C1781     1.0  0.38546  0.04299  0.33467  1.0000
  C   C1782     1.0  0.40542  0.04780  0.34005  1.0000
  C   C1783     1.0  0.42534  0.06457  0.32909  1.0000
  C   C1784     1.0  0.44983  0.10109  0.27658  1.0000
  C   C1785     1.0  0.44961  0.08177  0.26960  1.0000
  C   C1786     1.0  0.44681  0.12178  0.26691  1.0000
  H   H1412     1.0  0.48982  0.03467  0.30802  1.0000
  H   H1413     1.0  0.52615  0.06117  0.30861  1.0000
  H   H1414     1.0  0.53034  0.10407  0.30438  1.0000
  H   H1415     1.0  0.49851  0.12033  0.29994  1.0000
  H   H1416     1.0  0.45760  0.05050  0.30363  1.0000
  H   H1417     1.0  0.42657  0.11193  0.32758  1.0000
  H   H1418     1.0  0.43050  0.14995  0.33461  1.0000
  H   H1419     1.0  0.34305  0.08440  0.32245  1.0000
  C   C1787     1.0  0.35987  0.25028  0.47600  1.0000
  C   C1788     1.0  0.36035  0.25685  0.25643  1.0000
  H   H1420     1.0  0.40493  0.08061  0.29468  1.0000
  H   H1421     1.0  0.37014  0.05068  0.31395  1.0000
  H   H1422     1.0  0.37021  0.02955  0.34298  1.0000
  H   H1423     1.0  0.40562  0.03827  0.35263  1.0000
  H   H1424     1.0  0.44069  0.06798  0.33345  1.0000
  H   H1425     1.0  0.64413  0.08396  0.35807  1.0000
  C   C1789     1.0  0.46621  0.36380  0.24784  1.0000
  C   C1790     1.0  0.43868  0.03633  0.43804  1.0000
  C   C1791     1.0  0.50742  0.37114  0.25741  1.0000
  H   H1426     1.0  0.45085  0.34279  0.44961  1.0000
  H   H1427     1.0  0.43677  0.01846  0.28400  1.0000
  C   C1792     1.0  0.60778  0.44457  0.45954  1.0000
  C   C1793     1.0  0.33365  0.22723  0.32604  1.0000
  C   C1794     1.0  0.41275  0.41093  0.49329  1.0000
  C   C1795     1.0  0.44513  0.34626  0.46186  1.0000
  C   C1796     1.0  0.49747  0.39445  0.48353  1.0000
  H   H1428     1.0  0.50975  0.23557  0.37360  1.0000
  H   H1429     1.0  0.47152  0.03192  0.42650  1.0000
  H   H1430     1.0  0.63787  0.33791  0.41223  1.0000
  H   H1431     1.0  0.42421  0.08610  0.44585  1.0000
  H   H1432     1.0  0.42049  0.31210  0.47268  1.0000
  H   H1433     1.0  0.36032  0.24192  0.46571  1.0000
  C   C1797     1.0  0.35594  0.39869  0.41788  1.0000
  H   H1434     1.0  0.55217  0.49088  0.32096  1.0000
  P   P64       1.0  0.63698  0.01627  0.31942  1.0000
  C   C1798     1.0  0.60707  0.00371  0.32095  1.0000
  C   C1799     1.0  0.37883  0.40831  0.40802  1.0000
  H   H1435     1.0  0.58647  0.00382  0.38383  1.0000
  H   H1436     1.0  0.61168  0.48722  0.48244  1.0000
  C   C1800     1.0  0.64675  0.48428  0.32427  1.0000
  H   H1437     1.0  0.47028  0.20958  0.45488  1.0000
  H   H1438     1.0  0.35102  0.23816  0.29912  1.0000
  S   S235      1.0  0.64249  0.05245  0.40832  1.0000
  H   H1439     1.0  0.61521  0.45795  0.46517  1.0000
  C   C1801     1.0  0.50199  0.19660  0.42563  1.0000
  C   C1802     1.0  0.56649  0.49506  0.32634  1.0000
  C   C1803     1.0  0.44660  0.08320  0.25326  1.0000
  C   C1804     1.0  0.61172  0.04460  0.49333  1.0000
  H   H1440     1.0  0.64477  0.37935  0.39549  1.0000
  H   H1441     1.0  0.43291  0.40394  0.45495  1.0000
  C   C1805     1.0  0.38074  0.36961  0.40522  1.0000
  Fe  Fe118     1.0  0.36617  0.02350  0.49592  1.0000
  H   H1442     1.0  0.35968  0.16334  0.25977  1.0000
  H   H1443     1.0  0.38741  0.18798  0.27083  1.0000
  C   C1806     1.0  0.50923  0.01892  0.46682  1.0000
  C   C1807     1.0  0.50827  0.35689  0.45159  1.0000
  H   H1444     1.0  0.45112  0.06535  0.27691  1.0000
  H   H1445     1.0  0.33027  0.40434  0.47752  1.0000
  C   C1808     1.0  0.52927  0.37168  0.44073  1.0000
  H   H1446     1.0  0.55746  0.42065  0.45176  1.0000
  C   C1809     1.0  0.54437  0.47606  0.40664  1.0000
  C   C1810     1.0  0.59625  0.37444  0.42621  1.0000
  C   C1811     1.0  0.33888  0.25185  0.48543  1.0000
  C   C1812     1.0  0.44855  0.02759  0.41053  1.0000
  S   S236      1.0  0.38331  0.06506  0.26300  1.0000
  C   C1813     1.0  0.57525  0.42337  0.45196  1.0000
  C   C1814     1.0  0.39472  0.33154  0.26497  1.0000
  C   C1815     1.0  0.54941  0.37330  0.44607  1.0000
  C   C1816     1.0  0.48164  0.40668  0.48869  1.0000
  H   H1447     1.0  0.44598  0.06811  0.24804  1.0000
  C   C1817     1.0  0.40020  0.01374  0.29026  1.0000
  H   H1448     1.0  0.60451  0.33886  0.48688  1.0000
  H   H1449     1.0  0.62924  0.47795  0.33221  1.0000
  C   C1818     1.0  0.38622  0.16940  0.27256  1.0000
  H   H1450     1.0  0.33955  0.24465  0.32778  1.0000
  H   H1451     1.0  0.41200  0.41350  0.48018  1.0000
  C   C1819     1.0  0.59254  0.35101  0.43563  1.0000
  H   H1452     1.0  0.57794  0.34253  0.44664  1.0000
  C   C1820     1.0  0.38017  0.25895  0.48016  1.0000
  S   S237      1.0  0.51244  0.28147  0.47888  1.0000
  H   H1453     1.0  0.61142  0.38199  0.47501  1.0000
  C   C1821     1.0  0.47163  0.45463  0.42900  1.0000
  H   H1454     1.0  0.50350  0.19416  0.37216  1.0000
  H   H1455     1.0  0.51291  0.25053  0.44413  1.0000
  C   C1822     1.0  0.47033  0.16594  0.48445  1.0000
  S   S238      1.0  0.38731  0.05491  0.47411  1.0000
  H   H1456     1.0  0.38984  0.33124  0.25326  1.0000
  S   S239      1.0  0.40604  0.25487  0.46940  1.0000
  S   S240      1.0  0.37784  0.27147  0.26714  1.0000
  C   C1823     1.0  0.44553  0.37323  0.47985  1.0000
  H   H1457     1.0  0.50166  0.40397  0.26084  1.0000
  C   C1824     1.0  0.33361  0.13864  0.31959  1.0000
  C   C1825     1.0  0.42762  0.17076  0.44686  1.0000
  C   C1826     1.0  0.45419  0.36825  0.46436  1.0000
  C   C1827     1.0  0.37191  0.13931  0.32244  1.0000
  H   H1458     1.0  0.56311  0.36174  0.46713  1.0000
  Fe  Fe119     1.0  0.64693  0.02255  0.42737  1.0000
  H   H1459     1.0  0.47635  0.46589  0.41603  1.0000
  C   C1828     1.0  0.50701  0.34391  0.46796  1.0000
  H   H1460     1.0  0.60430  0.31973  0.43781  1.0000
  C   C1829     1.0  0.37849  0.31959  0.28068  1.0000
  C   C1830     1.0  0.36906  0.13128  0.26832  1.0000
  C   C1831     1.0  0.39126  0.39375  0.40178  1.0000
  H   H1461     1.0  0.40913  0.40107  0.39443  1.0000
  H   H1462     1.0  0.46729  0.38163  0.45395  1.0000
  H   H1463     1.0  0.35004  0.34124  0.41739  1.0000
  H   H1464     1.0  0.49076  0.33193  0.47613  1.0000
  H   H1465     1.0  0.60517  0.02204  0.34914  1.0000
  H   H1466     1.0  0.44373  0.23434  0.45193  1.0000
  C   C1832     1.0  0.41286  0.18509  0.44500  1.0000
  C   C1833     1.0  0.54789  0.36064  0.46271  1.0000
  C   C1834     1.0  0.59588  0.37185  0.48501  1.0000
  C   C1835     1.0  0.62636  0.34811  0.41618  1.0000
  S   S241      1.0  0.48783  0.28803  0.25244  1.0000
  C   C1836     1.0  0.57980  0.38308  0.49134  1.0000
  C   C1837     1.0  0.59195  0.34755  0.49167  1.0000
  C   C1838     1.0  0.54233  0.20873  0.42440  1.0000
  H   H1467     1.0  0.40373  0.38221  0.25544  1.0000
  C   C1839     1.0  0.52683  0.34584  0.47354  1.0000
  H   H1468     1.0  0.34491  0.33563  0.44895  1.0000
  C   C1840     1.0  0.45858  0.16916  0.31233  1.0000
  H   H1469     1.0  0.36337  0.38471  0.24661  1.0000
  S   S242      1.0  0.34916  0.11389  0.26048  1.0000
  C   C1841     1.0  0.63025  0.37144  0.40675  1.0000
  H   H1470     1.0  0.63988  0.43722  0.45038  1.0000
  H   H1471     1.0  0.49473  0.15305  0.42067  1.0000
  C   C1842     1.0  0.62232  0.05326  0.35456  1.0000
  C   C1843     1.0  0.61526  0.38454  0.41172  1.0000
  H   H1472     1.0  0.40442  0.03961  0.44598  1.0000
  C   C1844     1.0  0.42678  0.02807  0.40860  1.0000
  S   S243      1.0  0.44633  0.04126  0.45644  1.0000
  H   H1473     1.0  0.39419  0.03287  0.41996  1.0000
  C   C1845     1.0  0.41108  0.03276  0.42135  1.0000
  C   C1846     1.0  0.41690  0.03662  0.43610  1.0000
  C   C1847     1.0  0.40691  0.15466  0.49315  1.0000
  H   H1474     1.0  0.34655  0.41024  0.42256  1.0000
  C   C1848     1.0  0.43937  0.10101  0.44033  1.0000
  S   S244      1.0  0.41863  0.02281  0.39048  1.0000
  H   H1475     1.0  0.33808  0.01020  0.40804  1.0000
  C   C1849     1.0  0.42334  0.34204  0.27986  1.0000
  Fe  Fe120     1.0  0.35453  0.07912  0.25708  1.0000
  S   S245      1.0  0.46773  0.01824  0.35259  1.0000
  H   H1476     1.0  0.43084  0.11797  0.46006  1.0000
  S   S246      1.0  0.35320  0.00613  0.29872  1.0000
  H   H1477     1.0  0.61849  0.40258  0.40419  1.0000
  H   H1478     1.0  0.48549  0.18387  0.28875  1.0000
  H   H1479     1.0  0.61584  0.05664  0.48071  1.0000
  C   C1850     1.0  0.46327  0.12592  0.48183  1.0000
  C   C1851     1.0  0.47497  0.12078  0.41830  1.0000
  C   C1852     1.0  0.47906  0.13886  0.42633  1.0000
  C   C1853     1.0  0.45517  0.10181  0.42534  1.0000
  C   C1854     1.0  0.51542  0.17911  0.44919  1.0000
  H   H1480     1.0  0.57403  0.44985  0.46562  1.0000
  C   C1855     1.0  0.49897  0.35050  0.25298  1.0000
  H   H1481     1.0  0.54117  0.31456  0.25383  1.0000
  S   S247      1.0  0.44940  0.28574  0.49167  1.0000
  H   H1482     1.0  0.55169  0.19196  0.44638  1.0000
  H   H1483     1.0  0.45217  0.08750  0.41936  1.0000
  H   H1484     1.0  0.39055  0.35824  0.40065  1.0000
  C   C1856     1.0  0.51894  0.39933  0.48684  1.0000
  S   S248      1.0  0.62131  0.48556  0.42048  1.0000
  C   C1857     1.0  0.57824  0.32619  0.24711  1.0000
  H   H1485     1.0  0.40747  0.21928  0.44530  1.0000
  C   C1858     1.0  0.49728  0.18081  0.44180  1.0000
  C   C1859     1.0  0.53781  0.19318  0.44056  1.0000
  C   C1860     1.0  0.56880  0.00843  0.32262  1.0000
  C   C1861     1.0  0.36752  0.11529  0.32327  1.0000
  C   C1862     1.0  0.43946  0.21663  0.45033  1.0000
  C   C1863     1.0  0.56267  0.48933  0.34408  1.0000
  H   H1486     1.0  0.52594  0.33531  0.48604  1.0000
  C   C1864     1.0  0.34011  0.22360  0.30988  1.0000
  C   C1865     1.0  0.42787  0.32887  0.47489  1.0000
  H   H1487     1.0  0.46050  0.11311  0.47466  1.0000
  P   P65       1.0  0.46852  0.16151  0.45206  1.0000
  C   C1866     1.0  0.37688  0.19726  0.48715  1.0000
  H   H1488     1.0  0.33551  0.20225  0.25339  1.0000
  H   H1489     1.0  0.54543  0.48069  0.35244  1.0000
  S   S249      1.0  0.64972  0.02122  0.45411  1.0000
  S   S250      1.0  0.39146  0.11160  0.48789  1.0000
  H   H1490     1.0  0.49344  0.38157  0.47659  1.0000
  S   S251      1.0  0.45534  0.23433  0.48607  1.0000
  C   C1867     1.0  0.63920  0.03809  0.33143  1.0000
  H   H1491     1.0  0.61586  0.01523  0.48360  1.0000
  H   H1492     1.0  0.36142  0.31012  0.28090  1.0000
  C   C1868     1.0  0.44863  0.17935  0.45033  1.0000
  H   H1493     1.0  0.36419  0.22231  0.26619  1.0000
  Fe  Fe121     1.0  0.41726  0.04160  0.47797  1.0000
  C   C1869     1.0  0.42086  0.01212  0.29412  1.0000
  H   H1494     1.0  0.53687  0.02569  0.44369  1.0000
  C   C1870     1.0  0.44328  0.11909  0.44835  1.0000
  C   C1871     1.0  0.62073  0.03646  0.34527  1.0000
  H   H1495     1.0  0.52792  0.22240  0.40438  1.0000
  C   C1872     1.0  0.47303  0.16795  0.29735  1.0000
  C   C1873     1.0  0.34543  0.37433  0.42179  1.0000
  C   C1874     1.0  0.44727  0.41958  0.45096  1.0000
  Fe  Fe122     1.0  0.47514  0.26507  0.49291  1.0000
  H   H1496     1.0  0.42227  0.15297  0.44582  1.0000
  H   H1497     1.0  0.46531  0.39759  0.25269  1.0000
  C   C1875     1.0  0.32928  0.11444  0.32055  1.0000
  S   S252      1.0  0.55558  0.47101  0.43728  1.0000
  C   C1876     1.0  0.57003  0.00721  0.38413  1.0000
  H   H1498     1.0  0.57811  0.49049  0.36481  1.0000
  H   H1499     1.0  0.64217  0.49685  0.28394  1.0000
  H   H1500     1.0  0.52318  0.37378  0.26127  1.0000
  H   H1501     1.0  0.53117  0.39011  0.48249  1.0000
  H   H1502     1.0  0.35628  0.04338  0.45470  1.0000
  C   C1877     1.0  0.34137  0.01726  0.41846  1.0000
  H   H1503     1.0  0.39496  0.20371  0.48041  1.0000
  C   C1878     1.0  0.41977  0.33329  0.49057  1.0000
  C   C1879     1.0  0.34626  0.10289  0.32221  1.0000
  C   C1880     1.0  0.33938  0.22114  0.25143  1.0000
  C   C1881     1.0  0.35031  0.04169  0.41528  1.0000
  C   C1882     1.0  0.65950  0.05647  0.32746  1.0000
  H   H1504     1.0  0.65487  0.45288  0.33603  1.0000
  C   C1883     1.0  0.47844  0.34681  0.24826  1.0000
  C   C1884     1.0  0.52478  0.41651  0.49529  1.0000
  C   C1885     1.0  0.50551  0.00392  0.44234  1.0000
  C   C1886     1.0  0.32776  0.32390  0.45232  1.0000
  H   H1505     1.0  0.33297  0.10187  0.57954  1.0000
  H   H1506     1.0  0.35134  0.24688  0.72383  1.0000
  C   C1887     1.0  0.37007  0.19231  0.50494  1.0000
  H   H1507     1.0  0.56225  0.47791  0.55632  1.0000
  H   H1508     1.0  0.37929  0.21918  0.59942  1.0000
  C   C1888     1.0  0.56658  0.00389  0.57088  1.0000
  C   C1889     1.0  0.42190  0.45792  0.68148  1.0000
  H   H1509     1.0  0.40264  0.43894  0.73792  1.0000
  C   C1890     1.0  0.35009  0.32524  0.61937  1.0000
  C   C1891     1.0  0.63077  0.49007  0.52445  1.0000
  H   H1510     1.0  0.59927  0.04387  0.53525  1.0000
  H   H1511     1.0  0.44245  0.46859  0.59472  1.0000
  S   S253      1.0  0.55923  0.46333  0.64318  1.0000
  Fe  Fe123     1.0  0.47664  0.40225  0.59830  1.0000
  S   S254      1.0  0.47357  0.36720  0.61575  1.0000
  S   S255      1.0  0.50781  0.43430  0.58922  1.0000
  Fe  Fe124     1.0  0.42738  0.38619  0.59560  1.0000
  S   S256      1.0  0.42009  0.34980  0.61306  1.0000
  S   S257      1.0  0.40131  0.40030  0.58455  1.0000
  Fe  Fe125     1.0  0.43841  0.36843  0.62904  1.0000
  S   S258      1.0  0.42877  0.36217  0.65770  1.0000
  Fe  Fe126     1.0  0.45566  0.35171  0.59823  1.0000
  S   S259      1.0  0.46543  0.32130  0.58992  1.0000
  S   S260      1.0  0.44288  0.40476  0.61283  1.0000
  S   S261      1.0  0.46163  0.38670  0.57947  1.0000
  Fe  Fe127     1.0  0.43968  0.21957  0.51438  1.0000
  S   S262      1.0  0.46190  0.24889  0.52138  1.0000
  S   S263      1.0  0.43270  0.18101  0.52813  1.0000
  H   H1512     1.0  0.37844  0.41378  0.50188  1.0000
  C   C1892     1.0  0.48155  0.39227  0.65726  1.0000
  H   H1513     1.0  0.55381  0.49098  0.61172  1.0000
  H   H1514     1.0  0.41216  0.39792  0.54113  1.0000
  Fe  Fe128     1.0  0.43411  0.26695  0.51948  1.0000
  S   S264      1.0  0.41771  0.28693  0.53629  1.0000
  C   C1893     1.0  0.57206  0.33451  0.50476  1.0000
  S   S265      1.0  0.41095  0.23638  0.51477  1.0000
  S   S266      1.0  0.36877  0.04358  0.51558  1.0000
  C   C1894     1.0  0.63286  0.48404  0.54117  1.0000
  P   P66       1.0  0.45992  0.45116  0.66016  1.0000
  H   H1515     1.0  0.54769  0.37908  0.50919  1.0000
  C   C1895     1.0  0.34391  0.38158  0.66427  1.0000
  C   C1896     1.0  0.42417  0.33034  0.73484  1.0000
  H   H1516     1.0  0.34326  0.00699  0.72610  1.0000
  H   H1517     1.0  0.49712  0.00548  0.54842  1.0000
  C   C1897     1.0  0.56654  0.43432  0.56641  1.0000
  H   H1518     1.0  0.51323  0.36911  0.53673  1.0000
  C   C1898     1.0  0.57244  0.49278  0.55918  1.0000
  C   C1899     1.0  0.34679  0.10971  0.53654  1.0000
  C   C1900     1.0  0.45334  0.31313  0.57405  1.0000
  C   C1901     1.0  0.46000  0.29592  0.56674  1.0000
  C   C1902     1.0  0.44947  0.28804  0.55486  1.0000
  C   C1903     1.0  0.43195  0.29708  0.55052  1.0000
  C   C1904     1.0  0.42540  0.31440  0.55775  1.0000
  C   C1905     1.0  0.43630  0.32266  0.56932  1.0000
  H   H1519     1.0  0.47300  0.28835  0.57051  1.0000
  H   H1520     1.0  0.45456  0.27467  0.54934  1.0000
  H   H1521     1.0  0.41190  0.32149  0.55436  1.0000
  H   H1522     1.0  0.43110  0.33593  0.57493  1.0000
  C   C1906     1.0  0.38323  0.38091  0.57675  1.0000
  C   C1907     1.0  0.36590  0.38810  0.57049  1.0000
  C   C1908     1.0  0.35046  0.37248  0.56507  1.0000
  C   C1909     1.0  0.35239  0.34962  0.56582  1.0000
  C   C1910     1.0  0.37027  0.34276  0.57149  1.0000
  C   C1911     1.0  0.38565  0.35835  0.57696  1.0000
  H   H1523     1.0  0.36408  0.40560  0.57021  1.0000
  H   H1524     1.0  0.42971  0.40394  0.68030  1.0000
  H   H1525     1.0  0.37175  0.32507  0.57222  1.0000
  H   H1526     1.0  0.39900  0.35271  0.58171  1.0000
  C   C1912     1.0  0.54505  0.45556  0.62804  1.0000
  C   C1913     1.0  0.53341  0.43184  0.63048  1.0000
  C   C1914     1.0  0.52159  0.42515  0.61884  1.0000
  C   C1915     1.0  0.52170  0.44215  0.60447  1.0000
  C   C1916     1.0  0.53352  0.46585  0.60193  1.0000
  C   C1917     1.0  0.53455  0.46137  0.68977  1.0000
  H   H1527     1.0  0.53379  0.41857  0.64132  1.0000
  H   H1528     1.0  0.51275  0.40680  0.62083  1.0000
  H   H1529     1.0  0.32789  0.37346  0.67417  1.0000
  C   C1918     1.0  0.58853  0.44515  0.55506  1.0000
  C   C1919     1.0  0.35432  0.32963  0.68999  1.0000
  C   C1920     1.0  0.36065  0.32776  0.67320  1.0000
  C   C1921     1.0  0.38343  0.33806  0.66297  1.0000
  C   C1922     1.0  0.39997  0.34961  0.66973  1.0000
  C   C1923     1.0  0.39367  0.35105  0.68660  1.0000
  C   C1924     1.0  0.37084  0.34145  0.69662  1.0000
  H   H1530     1.0  0.34795  0.31845  0.66809  1.0000
  H   H1531     1.0  0.38828  0.33672  0.65001  1.0000
  H   H1532     1.0  0.40648  0.35965  0.69193  1.0000
  H   H1533     1.0  0.36611  0.34293  0.70955  1.0000
  H   H1534     1.0  0.44522  0.20740  0.72491  1.0000
  H   H1535     1.0  0.61413  0.48540  0.52209  1.0000
  H   H1536     1.0  0.35231  0.10079  0.52700  1.0000
  C   C1925     1.0  0.32928  0.17293  0.60280  1.0000
  H   H1537     1.0  0.52841  0.49760  0.72295  1.0000
  C   C1926     1.0  0.56219  0.49231  0.51776  1.0000
  C   C1927     1.0  0.40671  0.12128  0.51526  1.0000
  C   C1928     1.0  0.41531  0.13688  0.52429  1.0000
  C   C1929     1.0  0.42033  0.16142  0.51747  1.0000
  H   H1538     1.0  0.34547  0.20687  0.58475  1.0000
  C   C1930     1.0  0.45958  0.44313  0.72404  1.0000
  H   H1539     1.0  0.40324  0.10240  0.52041  1.0000
  H   H1540     1.0  0.41856  0.12995  0.53635  1.0000
  H   H1541     1.0  0.56034  0.49264  0.67329  1.0000
  C   C1931     1.0  0.50312  0.01265  0.53463  1.0000
  H   H1542     1.0  0.37406  0.42030  0.71149  1.0000
  C   C1932     1.0  0.47123  0.15782  0.50125  1.0000
  H   H1543     1.0  0.51375  0.44244  0.50674  1.0000
  C   C1933     1.0  0.36389  0.28164  0.72667  1.0000
  S   S267      1.0  0.39571  0.00860  0.49837  1.0000
  H   H1544     1.0  0.64924  0.01381  0.55066  1.0000
  H   H1545     1.0  0.35855  0.28167  0.51215  1.0000
  H   H1546     1.0  0.60022  0.45678  0.62065  1.0000
  C   C1934     1.0  0.34480  0.13261  0.53134  1.0000
  C   C1935     1.0  0.45423  0.45665  0.63944  1.0000
  C   C1936     1.0  0.47129  0.45833  0.62474  1.0000
  Fe  Fe129     1.0  0.58395  0.49994  0.63512  1.0000
  H   H1547     1.0  0.62320  0.08484  0.55509  1.0000
  H   H1548     1.0  0.57558  0.02217  0.56466  1.0000
  C   C1937     1.0  0.36640  0.39410  0.63458  1.0000
  C   C1938     1.0  0.38587  0.40356  0.63939  1.0000
  C   C1939     1.0  0.38456  0.40162  0.65660  1.0000
  C   C1940     1.0  0.61568  0.04710  0.56527  1.0000
  H   H1549     1.0  0.50438  0.24691  0.56501  1.0000
  C   C1941     1.0  0.56493  0.47006  0.51707  1.0000
  C   C1942     1.0  0.47108  0.41052  0.65450  1.0000
  C   C1943     1.0  0.49993  0.40998  0.67608  1.0000
  H   H1550     1.0  0.34577  0.22376  0.54113  1.0000
  C   C1944     1.0  0.53104  0.01887  0.50760  1.0000
  H   H1551     1.0  0.50691  0.22986  0.54024  1.0000
  H   H1552     1.0  0.43477  0.00638  0.51459  1.0000
  C   C1945     1.0  0.60703  0.05276  0.50785  1.0000
  H   H1553     1.0  0.40203  0.41215  0.62975  1.0000
  H   H1554     1.0  0.39991  0.40817  0.66026  1.0000
  C   C1946     1.0  0.44446  0.36988  0.70637  1.0000
  H   H1555     1.0  0.53335  0.47911  0.59102  1.0000
  H   H1556     1.0  0.38164  0.07938  0.73216  1.0000
  C   C1947     1.0  0.52972  0.48722  0.71388  1.0000
  C   C1948     1.0  0.34675  0.18439  0.51382  1.0000
  H   H1557     1.0  0.51138  0.40989  0.68422  1.0000
  C   C1949     1.0  0.60767  0.00560  0.51121  1.0000
  C   C1950     1.0  0.46676  0.44842  0.73801  1.0000
  C   C1951     1.0  0.61863  0.02108  0.60385  1.0000
  H   H1558     1.0  0.66059  0.01252  0.61733  1.0000
  C   C1952     1.0  0.62006  0.46490  0.73748  1.0000
  C   C1953     1.0  0.52453  0.29816  0.53273  1.0000
  C   C1954     1.0  0.60858  0.45352  0.60887  1.0000
  H   H1559     1.0  0.42954  0.47666  0.67544  1.0000
  H   H1560     1.0  0.32961  0.27637  0.53798  1.0000
  C   C1955     1.0  0.35878  0.19295  0.54493  1.0000
  H   H1561     1.0  0.60732  0.07111  0.50649  1.0000
  H   H1562     1.0  0.47142  0.44066  0.71344  1.0000
  C   C1956     1.0  0.47708  0.48209  0.67806  1.0000
  H   H1563     1.0  0.43096  0.43509  0.71351  1.0000
  H   H1564     1.0  0.34899  0.14084  0.51775  1.0000
  C   C1957     1.0  0.33411  0.13341  0.56095  1.0000
  C   C1958     1.0  0.35802  0.21582  0.54579  1.0000
  C   C1959     1.0  0.37402  0.22934  0.55197  1.0000
  C   C1960     1.0  0.39077  0.22021  0.55751  1.0000
  C   C1961     1.0  0.39185  0.19762  0.55655  1.0000
  C   C1962     1.0  0.37614  0.18415  0.55010  1.0000
  H   H1565     1.0  0.44578  0.39688  0.51961  1.0000
  H   H1566     1.0  0.62751  0.03833  0.62263  1.0000
  H   H1567     1.0  0.56989  0.31593  0.51024  1.0000
  C   C1963     1.0  0.42061  0.44219  0.73776  1.0000
  C   C1964     1.0  0.47498  0.42869  0.66250  1.0000
  H   H1568     1.0  0.41185  0.46513  0.62057  1.0000
  H   H1569     1.0  0.33309  0.16338  0.59339  1.0000
  C   C1965     1.0  0.33832  0.14469  0.54352  1.0000
  C   C1966     1.0  0.51620  0.46365  0.71812  1.0000
  H   H1570     1.0  0.49410  0.31181  0.51428  1.0000
  C   C1967     1.0  0.35114  0.28156  0.55478  1.0000
  C   C1968     1.0  0.62261  0.02667  0.56406  1.0000
  H   H1571     1.0  0.39222  0.46314  0.69763  1.0000
  H   H1572     1.0  0.50869  0.43265  0.70880  1.0000
  C   C1969     1.0  0.42221  0.41714  0.68431  1.0000
  H   H1573     1.0  0.38302  0.19412  0.51179  1.0000
  H   H1574     1.0  0.41907  0.45774  0.64884  1.0000
  H   H1575     1.0  0.62896  0.03622  0.59340  1.0000
  H   H1576     1.0  0.40363  0.23120  0.56165  1.0000
  H   H1577     1.0  0.40560  0.19095  0.55995  1.0000
  H   H1578     1.0  0.37821  0.16724  0.54864  1.0000
  H   H1579     1.0  0.34646  0.25090  0.63634  1.0000
  H   H1580     1.0  0.33650  0.37775  0.56098  1.0000
  H   H1581     1.0  0.63128  0.45439  0.73357  1.0000
  H   H1582     1.0  0.49274  0.44199  0.67972  1.0000
  C   C1970     1.0  0.45619  0.15457  0.73778  1.0000
  C   C1971     1.0  0.48204  0.36563  0.52923  1.0000
  C   C1972     1.0  0.46695  0.35298  0.52197  1.0000
  H   H1583     1.0  0.55347  0.45433  0.52661  1.0000
  C   C1973     1.0  0.51210  0.24886  0.53817  1.0000
  C   C1974     1.0  0.50631  0.33925  0.52607  1.0000
  C   C1975     1.0  0.50184  0.35907  0.53103  1.0000
  P   P67       1.0  0.53129  0.32988  0.52924  1.0000
  C   C1976     1.0  0.53882  0.33718  0.54770  1.0000
  C   C1977     1.0  0.64261  0.02880  0.55140  1.0000
  C   C1978     1.0  0.49683  0.03219  0.50817  1.0000
  C   C1979     1.0  0.37478  0.24742  0.73959  1.0000
  C   C1980     1.0  0.62827  0.06907  0.55384  1.0000
  H   H1584     1.0  0.45985  0.32409  0.51080  1.0000
  H   H1585     1.0  0.56065  0.44088  0.57726  1.0000
  C   C1981     1.0  0.52165  0.33651  0.56198  1.0000
  C   C1982     1.0  0.52741  0.34244  0.57617  1.0000
  C   C1983     1.0  0.55040  0.34884  0.57631  1.0000
  C   C1984     1.0  0.56765  0.34919  0.56225  1.0000
  C   C1985     1.0  0.56192  0.34332  0.54801  1.0000
  C   C1986     1.0  0.55565  0.34563  0.51099  1.0000
  H   H1586     1.0  0.60099  0.04615  0.57543  1.0000
  C   C1987     1.0  0.43205  0.40631  0.49803  1.0000
  Fe  Fe130     1.0  0.40019  0.03114  0.51635  1.0000
  C   C1988     1.0  0.39038  0.42624  0.70169  1.0000
  H   H1587     1.0  0.54870  0.49335  0.52800  1.0000
  H   H1588     1.0  0.47813  0.38024  0.53377  1.0000
  H   H1589     1.0  0.34428  0.08095  0.55782  1.0000
  H   H1590     1.0  0.42873  0.38919  0.72229  1.0000
  C   C1989     1.0  0.37793  0.29553  0.73398  1.0000
  C   C1990     1.0  0.33820  0.25311  0.58276  1.0000
  C   C1991     1.0  0.45986  0.17811  0.72887  1.0000
  H   H1591     1.0  0.40627  0.31976  0.50066  1.0000
  H   H1592     1.0  0.47846  0.37834  0.65098  1.0000
  H   H1593     1.0  0.50377  0.33132  0.56216  1.0000
  H   H1594     1.0  0.51393  0.34192  0.58712  1.0000
  H   H1595     1.0  0.55478  0.35340  0.58735  1.0000
  H   H1596     1.0  0.58547  0.35395  0.56244  1.0000
  H   H1597     1.0  0.57555  0.34349  0.53736  1.0000
  H   H1598     1.0  0.37835  0.40619  0.53241  1.0000
  C   C1992     1.0  0.55922  0.40589  0.55020  1.0000
  H   H1599     1.0  0.63828  0.44153  0.56679  1.0000
  C   C1993     1.0  0.51974  0.26378  0.52154  1.0000
  C   C1994     1.0  0.40114  0.40967  0.69690  1.0000
  C   C1995     1.0  0.43152  0.37228  0.72155  1.0000
  C   C1996     1.0  0.65505  0.05073  0.53993  1.0000
  H   H1600     1.0  0.40259  0.11421  0.73914  1.0000
  C   C1997     1.0  0.52576  0.28830  0.51881  1.0000
  C   C1998     1.0  0.65001  0.50283  0.51075  1.0000
  H   H1601     1.0  0.65819  0.08795  0.53263  1.0000
  H   H1602     1.0  0.54159  0.42065  0.49750  1.0000
  C   C1999     1.0  0.49566  0.49329  0.64765  1.0000
  C   C2000     1.0  0.47181  0.33403  0.51623  1.0000
  C   C2001     1.0  0.33156  0.25599  0.63382  1.0000
  C   C2002     1.0  0.33182  0.21025  0.61006  1.0000
  H   H1603     1.0  0.45605  0.34575  0.69320  1.0000
  C   C2003     1.0  0.42856  0.46357  0.62172  1.0000
  H   H1604     1.0  0.46766  0.12744  0.52168  1.0000
  C   C2004     1.0  0.41251  0.40188  0.52772  1.0000
  H   H1605     1.0  0.37919  0.31422  0.73146  1.0000
  P   P68       1.0  0.34174  0.24217  0.60370  1.0000
  C   C2005     1.0  0.65442  0.49165  0.54407  1.0000
  C   C2006     1.0  0.49130  0.32707  0.51834  1.0000
  H   H1606     1.0  0.48597  0.04046  0.50175  1.0000
  H   H1607     1.0  0.53090  0.29946  0.50581  1.0000
  H   H1608     1.0  0.47374  0.02565  0.53315  1.0000
  C   C2007     1.0  0.51684  0.28301  0.54942  1.0000
  H   H1609     1.0  0.32997  0.14265  0.57049  1.0000
  H   H1610     1.0  0.59036  0.47195  0.59420  1.0000
  H   H1611     1.0  0.36514  0.31894  0.61938  1.0000
  H   H1612     1.0  0.41126  0.29836  0.60650  1.0000
  H   H1613     1.0  0.50407  0.37784  0.67006  1.0000
  C   C2008     1.0  0.49586  0.39192  0.66810  1.0000
  H   H1614     1.0  0.49777  0.49025  0.63516  1.0000
  C   C2009     1.0  0.54558  0.49763  0.69776  1.0000
  H   H1615     1.0  0.43543  0.27103  0.60403  1.0000
  H   H1616     1.0  0.47643  0.18794  0.71996  1.0000
  C   C2010     1.0  0.60290  0.01388  0.52578  1.0000
  H   H1617     1.0  0.48046  0.46445  0.59737  1.0000
  C   C2011     1.0  0.55187  0.41497  0.56386  1.0000
  H   H1618     1.0  0.54779  0.39085  0.54835  1.0000
  C   C2012     1.0  0.52383  0.01036  0.52546  1.0000
  C   C2013     1.0  0.43276  0.45924  0.63780  1.0000
  C   C2014     1.0  0.51873  0.45086  0.70587  1.0000
  C   C2015     1.0  0.35873  0.27281  0.50216  1.0000
  C   C2016     1.0  0.35418  0.27328  0.57092  1.0000
  H   H1619     1.0  0.39297  0.39099  0.70297  1.0000
  H   H1620     1.0  0.61352  0.44226  0.53348  1.0000
  H   H1621     1.0  0.36353  0.29716  0.54569  1.0000
  H   H1622     1.0  0.36914  0.28263  0.57390  1.0000
  C   C2017     1.0  0.60249  0.03737  0.52407  1.0000
  C   C2018     1.0  0.40070  0.45035  0.69394  1.0000
  C   C2019     1.0  0.39343  0.40655  0.52284  1.0000
  H   H1623     1.0  0.54714  0.01690  0.50087  1.0000
  C   C2020     1.0  0.61415  0.45847  0.57837  1.0000
  C   C2021     1.0  0.43660  0.44000  0.72398  1.0000
  S   S268      1.0  0.40571  0.01782  0.54195  1.0000
  H   H1624     1.0  0.36252  0.38916  0.68241  1.0000
  H   H1625     1.0  0.53503  0.00831  0.56554  1.0000
  C   C2022     1.0  0.43675  0.32800  0.71941  1.0000
  S   S269      1.0  0.37398  0.38625  0.74399  1.0000
  C   C2023     1.0  0.51064  0.25848  0.55210  1.0000
  C   C2024     1.0  0.41768  0.26555  0.60376  1.0000
  C   C2025     1.0  0.58146  0.41585  0.53928  1.0000
  C   C2026     1.0  0.48943  0.42824  0.67339  1.0000
  C   C2027     1.0  0.60314  0.46226  0.59376  1.0000
  P   P69       1.0  0.49582  0.44969  0.73901  1.0000
  H   H1626     1.0  0.62916  0.43421  0.62050  1.0000
  H   H1627     1.0  0.58461  0.45096  0.50357  1.0000
  C   C2028     1.0  0.46719  0.46316  0.60865  1.0000
  C   C2029     1.0  0.34532  0.38272  0.64701  1.0000
  C   C2030     1.0  0.54796  0.48469  0.68574  1.0000
  C   C2031     1.0  0.59617  0.43526  0.54178  1.0000
  C   C2032     1.0  0.40872  0.24344  0.60148  1.0000
  H   H1628     1.0  0.51519  0.28997  0.56044  1.0000
  C   C2033     1.0  0.41620  0.17021  0.50185  1.0000
  C   C2034     1.0  0.40250  0.13022  0.49964  1.0000
  S   S270      1.0  0.34698  0.32504  0.51629  1.0000
  H   H1629     1.0  0.37423  0.24741  0.55163  1.0000
  H   H1630     1.0  0.41958  0.23180  0.59992  1.0000
  C   C2035     1.0  0.36355  0.39083  0.66902  1.0000
  H   H1631     1.0  0.53668  0.45150  0.68033  1.0000
  H   H1632     1.0  0.53478  0.40697  0.57259  1.0000
  H   H1633     1.0  0.46435  0.47018  0.68935  1.0000
  H   H1634     1.0  0.35421  0.28957  0.71884  1.0000
  C   C2036     1.0  0.54505  0.47259  0.61371  1.0000
  C   C2037     1.0  0.43293  0.44136  0.67669  1.0000
  C   C2038     1.0  0.44579  0.46559  0.60715  1.0000
  C   C2039     1.0  0.62996  0.44503  0.57846  1.0000
  C   C2040     1.0  0.38582  0.23642  0.60113  1.0000
  H   H1635     1.0  0.37100  0.28650  0.60546  1.0000
  H   H1636     1.0  0.53345  0.42728  0.73456  1.0000
  P   P70       1.0  0.60735  0.46988  0.55880  1.0000
  C   C2041     1.0  0.61805  0.02232  0.62052  1.0000
  H   H1637     1.0  0.45121  0.35746  0.52108  1.0000
  H   H1638     1.0  0.58741  0.40834  0.52902  1.0000
  H   H1639     1.0  0.64629  0.49783  0.72590  1.0000
  C   C2042     1.0  0.37176  0.25160  0.60299  1.0000
  C   C2043     1.0  0.40398  0.28095  0.60523  1.0000
  C   C2044     1.0  0.44689  0.34773  0.70524  1.0000
  C   C2045     1.0  0.64794  0.07086  0.54116  1.0000
  H   H1640     1.0  0.46046  0.31561  0.74301  1.0000
  C   C2046     1.0  0.36235  0.25760  0.72943  1.0000
  P   P71       1.0  0.33819  0.17532  0.53686  1.0000
  H   H1641     1.0  0.47371  0.17011  0.50894  1.0000
  H   H1642     1.0  0.36824  0.15903  0.74353  1.0000
  C   C2047     1.0  0.39038  0.28547  0.74430  1.0000
  C   C2048     1.0  0.38120  0.27415  0.60464  1.0000
  H   H1643     1.0  0.45975  0.41020  0.64625  1.0000
  C   C2049     1.0  0.46783  0.13377  0.50844  1.0000
  H   H1644     1.0  0.35655  0.34576  0.63675  1.0000
  H   H1645     1.0  0.36791  0.39541  0.62115  1.0000
  C   C2050     1.0  0.47845  0.47776  0.66197  1.0000
  H   H1646     1.0  0.45202  0.38499  0.69530  1.0000
  H   H1647     1.0  0.48961  0.49471  0.74396  1.0000
  H   H1648     1.0  0.33003  0.42482  0.58371  1.0000
  H   H1649     1.0  0.43826  0.31080  0.71825  1.0000
  C   C2051     1.0  0.43167  0.40156  0.51541  1.0000
  C   C2052     1.0  0.33025  0.18112  0.50468  1.0000
  H   H1650     1.0  0.46083  0.09912  0.50442  1.0000
  H   H1651     1.0  0.48777  0.45581  0.62571  1.0000
  C   C2053     1.0  0.62846  0.48955  0.73302  1.0000
  C   C2054     1.0  0.44224  0.18904  0.73162  1.0000
  S   S271      1.0  0.33011  0.32814  0.56315  1.0000
  Fe  Fe131     1.0  0.34015  0.35482  0.49883  1.0000
  C   C2055     1.0  0.59456  0.49357  0.56097  1.0000
  H   H1652     1.0  0.64797  0.42639  0.59357  1.0000
  C   C2056     1.0  0.33211  0.26986  0.55040  1.0000
  C   C2057     1.0  0.33630  0.19762  0.59794  1.0000
  C   C2058     1.0  0.42088  0.17641  0.74318  1.0000
  C   C2059     1.0  0.58251  0.46815  0.50419  1.0000
  H   H1653     1.0  0.42124  0.35852  0.50511  1.0000
  H   H1654     1.0  0.40774  0.18546  0.74542  1.0000
  C   C2060     1.0  0.37355  0.08497  0.74291  1.0000
  C   C2061     1.0  0.42129  0.35258  0.73570  1.0000
  C   C2062     1.0  0.55974  0.37004  0.50423  1.0000
  C   C2063     1.0  0.48986  0.02393  0.52601  1.0000
  C   C2064     1.0  0.34523  0.34065  0.62913  1.0000
  C   C2065     1.0  0.50911  0.42879  0.50049  1.0000
  H   H1655     1.0  0.52038  0.25634  0.51072  1.0000
  H   H1656     1.0  0.64593  0.00900  0.52161  1.0000
  H   H1657     1.0  0.46991  0.14615  0.73583  1.0000
  H   H1658     1.0  0.60592  0.00349  0.64727  1.0000
  C   C2066     1.0  0.33597  0.31861  0.60920  1.0000
  H   H1659     1.0  0.53473  0.38614  0.74498  1.0000
  C   C2067     1.0  0.62482  0.44072  0.60878  1.0000
  C   C2068     1.0  0.51779  0.41383  0.74218  1.0000
  H   H1660     1.0  0.37329  0.22870  0.74205  1.0000
  Fe  Fe132     1.0  0.33864  0.36447  0.74470  1.0000
  C   C2069     1.0  0.33599  0.11041  0.56611  1.0000
  C   C2070     1.0  0.63542  0.43636  0.59361  1.0000
  C   C2071     1.0  0.34238  0.09859  0.55390  1.0000
  H   H1661     1.0  0.47612  0.43443  0.50053  1.0000
  H   H1662     1.0  0.34003  0.30725  0.60120  1.0000
  C   C2072     1.0  0.39354  0.41102  0.50564  1.0000
  H   H1663     1.0  0.65641  0.48873  0.55689  1.0000
  H   H1664     1.0  0.33338  0.38923  0.60257  1.0000
  C   C2073     1.0  0.33832  0.26361  0.49827  1.0000
  H   H1665     1.0  0.39512  0.27672  0.49671  1.0000
  C   C2074     1.0  0.49258  0.50158  0.67977  1.0000
  H   H1666     1.0  0.42018  0.18903  0.49645  1.0000
  C   C2075     1.0  0.51730  0.02939  0.49876  1.0000
  S   S272      1.0  0.42471  0.06286  0.49626  1.0000
  C   C2076     1.0  0.46383  0.11783  0.49874  1.0000
  C   C2077     1.0  0.48768  0.42402  0.49710  1.0000
  C   C2078     1.0  0.51212  0.45644  0.76701  1.0000
  C   C2079     1.0  0.60544  0.47208  0.83992  1.0000
  P   P72       1.0  0.32873  0.32407  0.86085  1.0000
  S   S273      1.0  0.40661  0.02978  0.81548  1.0000
  H   H1667     1.0  0.41465  0.38984  0.75611  1.0000
  Fe  Fe133     1.0  0.37233  0.17759  0.84114  1.0000
  S   S274      1.0  0.34332  0.19339  0.83864  1.0000
  S   S275      1.0  0.36767  0.13844  0.85131  1.0000
  Fe  Fe134     1.0  0.40830  0.22566  0.82817  1.0000
  S   S276      1.0  0.38232  0.24529  0.82438  1.0000
  S   S277      1.0  0.44639  0.24303  0.82180  1.0000
  Fe  Fe135     1.0  0.36064  0.22075  0.84973  1.0000
  H   H1668     1.0  0.38588  0.43052  0.88058  1.0000
  Fe  Fe136     1.0  0.36747  0.21646  0.81366  1.0000
  S   S278      1.0  0.35668  0.22484  0.78959  1.0000
  S   S279      1.0  0.38778  0.20314  0.85452  1.0000
  S   S280      1.0  0.39529  0.19847  0.81514  1.0000
  Fe  Fe137     1.0  0.46923  0.42040  0.82732  1.0000
  S   S281      1.0  0.43252  0.40815  0.84350  1.0000
  Fe  Fe138     1.0  0.46458  0.37423  0.81667  1.0000
  S   S282      1.0  0.42786  0.35856  0.83206  1.0000
  S   S283      1.0  0.48476  0.35488  0.80164  1.0000
  Fe  Fe139     1.0  0.42414  0.39460  0.82169  1.0000
  S   S284      1.0  0.39171  0.39831  0.81448  1.0000
  Fe  Fe140     1.0  0.43951  0.37332  0.85227  1.0000
  S   S285      1.0  0.43160  0.35095  0.87927  1.0000
  S   S286      1.0  0.46026  0.40952  0.80466  1.0000
  S   S287      1.0  0.47682  0.38636  0.83765  1.0000
  C   C2080     1.0  0.47703  0.40190  0.75665  1.0000
  C   C2081     1.0  0.39696  0.02973  0.91557  1.0000
  S   S288      1.0  0.34505  0.26524  0.95638  1.0000
  C   C2082     1.0  0.40291  0.34174  0.89176  1.0000
  C   C2083     1.0  0.35776  0.32680  0.91334  1.0000
  C   C2084     1.0  0.37271  0.31276  0.91518  1.0000
  C   C2085     1.0  0.39531  0.32039  0.90464  1.0000
  C   C2086     1.0  0.33609  0.23736  0.91669  1.0000
  H   H1669     1.0  0.40688  0.30956  0.90633  1.0000
  H   H1670     1.0  0.36695  0.29602  0.92471  1.0000
  C   C2087     1.0  0.34454  0.06277  0.93644  1.0000
  C   C2088     1.0  0.47795  0.37871  0.76247  1.0000
  H   H1671     1.0  0.34279  0.35280  0.82564  1.0000
  H   H1672     1.0  0.41380  0.38447  0.96616  1.0000
  C   C2089     1.0  0.45713  0.48207  0.92396  1.0000
  H   H1673     1.0  0.44062  0.07087  0.86348  1.0000
  C   C2090     1.0  0.45618  0.27423  0.81588  1.0000
  C   C2091     1.0  0.44101  0.28829  0.81717  1.0000
  C   C2092     1.0  0.44951  0.31309  0.81294  1.0000
  C   C2093     1.0  0.47325  0.32391  0.80706  1.0000
  C   C2094     1.0  0.48832  0.30986  0.80512  1.0000
  C   C2095     1.0  0.47985  0.28515  0.80971  1.0000
  H   H1674     1.0  0.42277  0.28006  0.82164  1.0000
  H   H1675     1.0  0.43768  0.32376  0.81408  1.0000
  H   H1676     1.0  0.50665  0.31806  0.80047  1.0000
  H   H1677     1.0  0.49169  0.27444  0.80857  1.0000
  H   H1678     1.0  0.38907  0.19649  0.96836  1.0000
  S   S289      1.0  0.34054  0.23645  0.86783  1.0000
  H   H1679     1.0  0.40876  0.29224  0.84663  1.0000
  C   C2096     1.0  0.34389  0.20658  0.89662  1.0000
  C   C2097     1.0  0.42072  0.26270  0.98223  1.0000
  C   C2098     1.0  0.46836  0.28932  0.76072  1.0000
  C   C2099     1.0  0.33727  0.17929  0.77320  1.0000
  C   C2100     1.0  0.49447  0.48654  0.90524  1.0000
  H   H1680     1.0  0.37610  0.10485  0.87978  1.0000
  H   H1681     1.0  0.36206  0.31687  0.87955  1.0000
  H   H1682     1.0  0.34917  0.41850  0.86634  1.0000
  H   H1683     1.0  0.48676  0.29693  0.75563  1.0000
  C   C2101     1.0  0.35311  0.08143  0.98585  1.0000
  C   C2102     1.0  0.42945  0.29019  0.76043  1.0000
  C   C2103     1.0  0.49870  0.37304  0.75818  1.0000
  C   C2104     1.0  0.59724  0.45379  0.74698  1.0000
  C   C2105     1.0  0.35432  0.11959  0.84053  1.0000
  C   C2106     1.0  0.35751  0.09696  0.84228  1.0000
  C   C2107     1.0  0.34708  0.08160  0.83384  1.0000
  C   C2108     1.0  0.57019  0.44054  0.84717  1.0000
  H   H1684     1.0  0.36840  0.09138  0.84990  1.0000
  H   H1685     1.0  0.34992  0.06434  0.83510  1.0000
  C   C2109     1.0  0.50256  0.46575  0.75416  1.0000
  H   H1686     1.0  0.51588  0.43957  0.76806  1.0000
  H   H1687     1.0  0.40254  0.26341  0.78080  1.0000
  C   C2110     1.0  0.36537  0.34826  0.90044  1.0000
  H   H1688     1.0  0.51390  0.41893  0.80971  1.0000
  C   C2111     1.0  0.38952  0.07503  0.88613  1.0000
  C   C2112     1.0  0.34103  0.19943  0.91436  1.0000
  C   C2113     1.0  0.40079  0.04841  0.92316  1.0000
  C   C2114     1.0  0.58088  0.49025  0.80514  1.0000
  H   H1689     1.0  0.51222  0.49676  0.89900  1.0000
  C   C2115     1.0  0.40127  0.09433  0.80867  1.0000
  C   C2116     1.0  0.41006  0.11066  0.81691  1.0000
  C   C2117     1.0  0.41262  0.13470  0.81022  1.0000
  C   C2118     1.0  0.40650  0.14240  0.79520  1.0000
  C   C2119     1.0  0.39702  0.12598  0.78713  1.0000
  C   C2120     1.0  0.58279  0.46732  0.75206  1.0000
  C   C2121     1.0  0.38512  0.02057  0.95130  1.0000
  H   H1690     1.0  0.41458  0.10456  0.82856  1.0000
  H   H1691     1.0  0.41913  0.14735  0.81674  1.0000
  H   H1692     1.0  0.40886  0.16112  0.79003  1.0000
  C   C2122     1.0  0.50903  0.46693  0.83640  1.0000
  C   C2123     1.0  0.57223  0.49340  0.79080  1.0000
  C   C2124     1.0  0.35280  0.09834  0.77120  1.0000
  H   H1693     1.0  0.33106  0.15102  0.94539  1.0000
  C   C2125     1.0  0.42694  0.07842  0.86790  1.0000
  C   C2126     1.0  0.53182  0.41941  0.80806  1.0000
  Fe  Fe141     1.0  0.34400  0.00826  0.78673  1.0000
  H   H1694     1.0  0.49145  0.01470  0.87711  1.0000
  S   S290      1.0  0.36288  0.04124  0.79175  1.0000
  H   H1695     1.0  0.50935  0.27221  0.96516  1.0000
  H   H1696     1.0  0.64507  0.00872  0.81393  1.0000
  H   H1697     1.0  0.41074  0.12861  0.85650  1.0000
  H   H1698     1.0  0.47116  0.26136  0.78055  1.0000
  H   H1699     1.0  0.61940  0.48611  0.83063  1.0000
  H   H1700     1.0  0.34325  0.02705  0.93548  1.0000
  H   H1701     1.0  0.42600  0.32650  0.77720  1.0000
  P   P73       1.0  0.38988  0.13614  0.76745  1.0000
  C   C2127     1.0  0.36080  0.30766  0.84073  1.0000
  C   C2128     1.0  0.64743  0.47851  0.77291  1.0000
  H   H1702     1.0  0.49939  0.35514  0.76322  1.0000
  H   H1703     1.0  0.61490  0.48631  0.77624  1.0000
  H   H1704     1.0  0.65314  0.48717  0.75935  1.0000
  C   C2129     1.0  0.48014  0.49498  0.91637  1.0000
  H   H1705     1.0  0.57064  0.48007  0.78394  1.0000
  C   C2130     1.0  0.42089  0.27047  0.77478  1.0000
  C   C2131     1.0  0.51032  0.48970  0.77876  1.0000
  C   C2132     1.0  0.34091  0.07889  0.76695  1.0000
  C   C2133     1.0  0.36078  0.00778  0.89606  1.0000
  H   H1706     1.0  0.55639  0.42997  0.84367  1.0000
  C   C2134     1.0  0.37871  0.38817  0.76392  1.0000
  C   C2135     1.0  0.51862  0.39058  0.74804  1.0000
  H   H1707     1.0  0.37023  0.15412  0.94084  1.0000
  C   C2136     1.0  0.63245  0.45530  0.80781  1.0000
  H   H1708     1.0  0.41489  0.44783  0.76283  1.0000
  H   H1709     1.0  0.33746  0.14391  0.82925  1.0000
  Fe  Fe142     1.0  0.33093  0.03700  0.81200  1.0000
  C   C2137     1.0  0.38722  0.39409  0.79498  1.0000
  H   H1710     1.0  0.56905  0.38777  0.79739  1.0000
  C   C2138     1.0  0.35130  0.07216  0.75284  1.0000
  H   H1711     1.0  0.38560  0.29483  0.82568  1.0000
  C   C2139     1.0  0.33883  0.24446  0.89905  1.0000
  H   H1712     1.0  0.34687  0.19473  0.88887  1.0000
  C   C2140     1.0  0.65426  0.45626  0.79820  1.0000
  C   C2141     1.0  0.32921  0.11092  0.82256  1.0000
  H   H1713     1.0  0.45504  0.45262  0.76349  1.0000
  H   H1714     1.0  0.37710  0.15358  0.97047  1.0000
  H   H1715     1.0  0.65581  0.01052  0.78305  1.0000
  H   H1716     1.0  0.42917  0.24460  0.79270  1.0000
  S   S291      1.0  0.32916  0.20426  0.94694  1.0000
  H   H1717     1.0  0.34195  0.18210  0.92026  1.0000
  H   H1718     1.0  0.35407  0.06193  0.94592  1.0000
  H   H1719     1.0  0.52263  0.46094  0.78943  1.0000
  H   H1720     1.0  0.62676  0.44561  0.82122  1.0000
  C   C2142     1.0  0.35681  0.10125  0.95632  1.0000
  H   H1721     1.0  0.62785  0.49549  0.91116  1.0000
  C   C2143     1.0  0.45044  0.45007  0.75203  1.0000
  C   C2144     1.0  0.43592  0.25984  0.78166  1.0000
  C   C2145     1.0  0.37116  0.31046  0.77395  1.0000
  H   H1722     1.0  0.61759  0.47920  0.86118  1.0000
  H   H1723     1.0  0.36088  0.30139  0.76710  1.0000
  C   C2146     1.0  0.40073  0.39012  0.76633  1.0000
  H   H1724     1.0  0.38046  0.01700  0.96511  1.0000
  C   C2147     1.0  0.62572  0.47794  0.78254  1.0000
  H   H1725     1.0  0.33620  0.24488  0.76457  1.0000
  H   H1726     1.0  0.41053  0.35470  0.74704  1.0000
  C   C2148     1.0  0.37252  0.18548  0.97667  1.0000
  C   C2149     1.0  0.36057  0.15710  0.78566  1.0000
  H   H1727     1.0  0.40572  0.02363  0.86012  1.0000
  C   C2150     1.0  0.39082  0.10182  0.96648  1.0000
  S   S292      1.0  0.32978  0.31809  0.92721  1.0000
  C   C2151     1.0  0.34305  0.08771  0.97268  1.0000
  H   H1728     1.0  0.39783  0.05813  0.94693  1.0000
  H   H1729     1.0  0.44575  0.03420  0.82830  1.0000
  C   C2152     1.0  0.40761  0.27881  0.98007  1.0000
  H   H1730     1.0  0.40251  0.28736  0.98988  1.0000
  C   C2153     1.0  0.39358  0.29841  0.84910  1.0000
  C   C2154     1.0  0.37519  0.11125  0.76136  1.0000
  C   C2155     1.0  0.36288  0.13429  0.92281  1.0000
  C   C2156     1.0  0.36763  0.13501  0.90539  1.0000
  C   C2157     1.0  0.38226  0.15525  0.89296  1.0000
  C   C2158     1.0  0.38773  0.17450  0.91505  1.0000
  C   C2159     1.0  0.37336  0.15416  0.92752  1.0000
  H   H1731     1.0  0.39519  0.19002  0.91874  1.0000
  C   C2160     1.0  0.36189  0.16228  0.75576  1.0000
  S   S293      1.0  0.34590  0.00929  0.75911  1.0000
  C   C2161     1.0  0.36104  0.38926  0.77708  1.0000
  H   H1732     1.0  0.37236  0.36111  0.85328  1.0000
  C   C2162     1.0  0.37695  0.08861  0.98278  1.0000
  H   H1733     1.0  0.38817  0.08895  0.78767  1.0000
  C   C2163     1.0  0.34409  0.14727  0.98827  1.0000
  C   C2164     1.0  0.43237  0.02845  0.88774  1.0000
  H   H1734     1.0  0.58548  0.44820  0.88298  1.0000
  H   H1735     1.0  0.34233  0.31828  0.78899  1.0000
  H   H1736     1.0  0.46079  0.00472  0.84457  1.0000
  H   H1737     1.0  0.45105  0.05961  0.89309  1.0000
  C   C2165     1.0  0.39992  0.28333  0.96541  1.0000
  C   C2166     1.0  0.36567  0.16136  0.97777  1.0000
  H   H1738     1.0  0.39922  0.07567  0.81388  1.0000
  C   C2167     1.0  0.45964  0.26929  0.77473  1.0000
  H   H1739     1.0  0.38577  0.15569  0.87952  1.0000
  C   C2168     1.0  0.39479  0.10193  0.79384  1.0000
  C   C2169     1.0  0.39490  0.04378  0.94100  1.0000
  C   C2170     1.0  0.33842  0.04284  0.93054  1.0000
  S   S294      1.0  0.49251  0.45754  0.82285  1.0000
  C   C2171     1.0  0.38873  0.26126  0.74701  1.0000
  C   C2172     1.0  0.38055  0.29993  0.83733  1.0000
  C   C2173     1.0  0.61809  0.46638  0.80010  1.0000
  C   C2174     1.0  0.54675  0.43798  0.81119  1.0000
  C   C2175     1.0  0.42824  0.10141  0.85913  1.0000
  C   C2176     1.0  0.38346  0.01758  0.88554  1.0000
  H   H1740     1.0  0.39193  0.11762  0.94059  1.0000
  S   S295      1.0  0.34053  0.01453  0.83286  1.0000
  C   C2177     1.0  0.53986  0.40137  0.80304  1.0000
  H   H1741     1.0  0.34228  0.05673  0.74980  1.0000
  C   C2178     1.0  0.36973  0.15352  0.76979  1.0000
  H   H1742     1.0  0.38951  0.29553  0.96398  1.0000
  H   H1743     1.0  0.46272  0.36521  0.77084  1.0000
  H   H1744     1.0  0.34417  0.38834  0.77522  1.0000
  H   H1745     1.0  0.36563  0.33960  0.80474  1.0000
  C   C2179     1.0  0.36057  0.31987  0.78646  1.0000
  C   C2180     1.0  0.38083  0.10794  0.95323  1.0000
  C   C2181     1.0  0.51606  0.46849  0.77917  1.0000
  C   C2182     1.0  0.45208  0.04374  0.88918  1.0000
  H   H1746     1.0  0.44303  0.11149  0.84845  1.0000
  H   H1747     1.0  0.41077  0.45597  0.85216  1.0000
  H   H1748     1.0  0.45319  0.46741  0.84678  1.0000
  C   C2183     1.0  0.49693  0.41962  0.74634  1.0000
  H   H1749     1.0  0.35172  0.39394  0.80241  1.0000
  C   C2184     1.0  0.53627  0.48331  0.85714  1.0000
  C   C2185     1.0  0.35433  0.31450  0.85575  1.0000
  C   C2186     1.0  0.35824  0.36770  0.85845  1.0000
  C   C2187     1.0  0.39701  0.33355  0.79234  1.0000
  H   H1750     1.0  0.46564  0.00539  0.91690  1.0000
  H   H1751     1.0  0.46809  0.26836  0.96977  1.0000
  C   C2188     1.0  0.57807  0.42079  0.80388  1.0000
  C   C2189     1.0  0.51132  0.45100  0.85038  1.0000
  H   H1752     1.0  0.36006  0.12018  0.90121  1.0000
  H   H1753     1.0  0.37413  0.06478  0.89620  1.0000
  C   C2190     1.0  0.39488  0.31320  0.77022  1.0000
  C   C2191     1.0  0.56946  0.43666  0.86449  1.0000
  C   C2192     1.0  0.34586  0.17531  0.75744  1.0000
  H   H1754     1.0  0.52576  0.44682  0.87184  1.0000
  H   H1755     1.0  0.54009  0.45153  0.81544  1.0000
  C   C2193     1.0  0.41837  0.44993  0.86223  1.0000
  C   C2194     1.0  0.40438  0.43551  0.87819  1.0000
  C   C2195     1.0  0.41426  0.42751  0.89111  1.0000
  C   C2196     1.0  0.43828  0.43339  0.88798  1.0000
  C   C2197     1.0  0.45216  0.44815  0.87201  1.0000
  P   P74       1.0  0.45160  0.42462  0.90463  1.0000
  C   C2198     1.0  0.46302  0.45159  0.90985  1.0000
  C   C2199     1.0  0.43153  0.40149  0.92252  1.0000
  C   C2200     1.0  0.43032  0.40214  0.93946  1.0000
  C   C2201     1.0  0.41487  0.38382  0.95311  1.0000
  C   C2202     1.0  0.40084  0.36458  0.94995  1.0000
  C   C2203     1.0  0.40254  0.36344  0.93316  1.0000
  C   C2204     1.0  0.41802  0.38164  0.91950  1.0000
  C   C2205     1.0  0.48592  0.46507  0.90187  1.0000
  C   C2206     1.0  0.44852  0.46057  0.92057  1.0000
  C   C2207     1.0  0.47378  0.41131  0.89723  1.0000
  C   C2208     1.0  0.47200  0.39889  0.88489  1.0000
  C   C2209     1.0  0.48810  0.38677  0.88026  1.0000
  C   C2210     1.0  0.50624  0.38720  0.88775  1.0000
  C   C2211     1.0  0.50806  0.39943  0.90013  1.0000
  C   C2212     1.0  0.49171  0.41116  0.90504  1.0000
  H   H1756     1.0  0.35385  0.35917  0.89890  1.0000
  H   H1757     1.0  0.40304  0.41688  0.90348  1.0000
  H   H1758     1.0  0.44591  0.48888  0.93230  1.0000
  H   H1759     1.0  0.44144  0.41654  0.94219  1.0000
  C   C2213     1.0  0.39062  0.09776  0.87699  1.0000
  H   H1760     1.0  0.38877  0.35042  0.96049  1.0000
  H   H1761     1.0  0.39186  0.34841  0.93068  1.0000
  H   H1762     1.0  0.41942  0.38021  0.90657  1.0000
  H   H1763     1.0  0.49719  0.45935  0.89278  1.0000
  H   H1764     1.0  0.43050  0.45111  0.92612  1.0000
  H   H1765     1.0  0.45786  0.39803  0.87911  1.0000
  H   H1766     1.0  0.48614  0.37659  0.87114  1.0000
  H   H1767     1.0  0.51861  0.37771  0.88414  1.0000
  H   H1768     1.0  0.52193  0.39952  0.90612  1.0000
  H   H1769     1.0  0.49295  0.41994  0.91502  1.0000
  C   C2214     1.0  0.40768  0.32440  0.77974  1.0000
  P   P75       1.0  0.58933  0.46373  0.81231  1.0000
  C   C2215     1.0  0.49820  0.26713  0.97807  1.0000
  C   C2216     1.0  0.33082  0.25056  0.77585  1.0000
  H   H1770     1.0  0.39379  0.37226  0.87971  1.0000
  H   H1771     1.0  0.35049  0.30781  0.83180  1.0000
  H   H1772     1.0  0.34272  0.15757  0.87995  1.0000
  H   H1773     1.0  0.40697  0.34257  0.79947  1.0000
  Fe  Fe143     1.0  0.37150  0.01694  0.81214  1.0000
  H   H1774     1.0  0.44233  0.30722  0.99342  1.0000
  H   H1775     1.0  0.36563  0.14999  0.79684  1.0000
  H   H1776     1.0  0.47065  0.45351  0.86952  1.0000
  H   H1777     1.0  0.38078  0.40191  0.85532  1.0000
  C   C2217     1.0  0.36729  0.31254  0.86760  1.0000
  C   C2218     1.0  0.41008  0.11108  0.86367  1.0000
  C   C2219     1.0  0.58650  0.45061  0.86953  1.0000
  H   H1778     1.0  0.48866  0.05117  0.88581  1.0000
  H   H1779     1.0  0.40313  0.19094  0.88809  1.0000
  C   C2220     1.0  0.41692  0.15261  0.75193  1.0000
  H   H1780     1.0  0.59584  0.42083  0.80235  1.0000
  C   C2221     1.0  0.44226  0.45635  0.85918  1.0000
  H   H1781     1.0  0.55525  0.42335  0.87406  1.0000
  C   C2222     1.0  0.42755  0.44724  0.75178  1.0000
  C   C2223     1.0  0.36536  0.39252  0.79244  1.0000
  C   C2224     1.0  0.40785  0.06533  0.88182  1.0000
  H   H1782     1.0  0.34465  0.10307  0.78237  1.0000
  H   H1783     1.0  0.42186  0.39416  0.78370  1.0000
  H   H1784     1.0  0.39695  0.30340  0.87339  1.0000
  H   H1785     1.0  0.50271  0.43240  0.85323  1.0000
  C   C2225     1.0  0.60453  0.46821  0.85724  1.0000
  H   H1786     1.0  0.40934  0.10702  0.96410  1.0000
  P   P76       1.0  0.34382  0.10825  0.93913  1.0000
  H   H1787     1.0  0.40846  0.06648  0.91538  1.0000
  C   C2226     1.0  0.43706  0.01557  0.83136  1.0000
  C   C2227     1.0  0.38789  0.35565  0.88955  1.0000
  H   H1788     1.0  0.52806  0.38673  0.80097  1.0000
  C   C2228     1.0  0.45334  0.29979  0.75356  1.0000
  C   C2229     1.0  0.39215  0.17507  0.89777  1.0000
  C   C2230     1.0  0.47462  0.26462  0.98078  1.0000
  H   H1789     1.0  0.46081  0.40587  0.76051  1.0000
  C   C2231     1.0  0.38691  0.30468  0.86424  1.0000
  C   C2232     1.0  0.40487  0.27152  0.95294  1.0000
  C   C2233     1.0  0.41712  0.25478  0.95529  1.0000
  C   C2234     1.0  0.42476  0.25015  0.96998  1.0000
  C   C2235     1.0  0.33816  0.24296  0.79030  1.0000
  C   C2236     1.0  0.56296  0.40201  0.80101  1.0000
  C   C2237     1.0  0.58825  0.45826  0.83473  1.0000
  C   C2238     1.0  0.37358  0.33166  0.79546  1.0000
  P   P77       1.0  0.40511  0.03513  0.89264  1.0000
  C   C2239     1.0  0.52455  0.45922  0.86084  1.0000
  C   C2240     1.0  0.49728  0.48736  0.75362  1.0000
  C   C2241     1.0  0.40492  0.39278  0.78190  1.0000
  C   C2242     1.0  0.57007  0.43905  0.80887  1.0000
  C   C2243     1.0  0.36313  0.39102  0.85955  1.0000
  C   C2244     1.0  0.47338  0.03896  0.88518  1.0000
  C   C2245     1.0  0.33268  0.08842  0.82410  1.0000
  H   H1790     1.0  0.39873  0.27500  0.94165  1.0000
  H   H1791     1.0  0.42047  0.24528  0.94577  1.0000
  H   H1792     1.0  0.43372  0.23669  0.97185  1.0000
  S   S296      1.0  0.55229  0.49285  0.87096  1.0000
  C   C2246     1.0  0.34185  0.22881  0.88909  1.0000
  C   C2247     1.0  0.34014  0.12656  0.83062  1.0000
  C   C2248     1.0  0.52045  0.49104  0.83283  1.0000
  C   C2249     1.0  0.33541  0.35351  0.86352  1.0000
  C   C2250     1.0  0.33628  0.21450  0.92450  1.0000
  C   C2251     1.0  0.34532  0.40038  0.86563  1.0000
  C   C2252     1.0  0.33778  0.08308  0.93049  1.0000
  H   H1793     1.0  0.33849  0.26212  0.89315  1.0000
  C   C2253     1.0  0.43486  0.14191  0.74937  1.0000
  C   C2254     1.0  0.47497  0.01843  0.88033  1.0000
  C   C2255     1.0  0.34444  0.16993  0.78732  1.0000
  H   H1794     1.0  0.33623  0.24403  0.81629  1.0000
  C   C2256     1.0  0.35794  0.19547  0.98627  1.0000
  H   H1795     1.0  0.33366  0.24964  0.92418  1.0000
  C   C2257     1.0  0.33067  0.24989  0.80506  1.0000
  P   P78       1.0  0.40959  0.30436  0.75254  1.0000
  H   H1796     1.0  0.39799  0.25283  0.75485  1.0000
  H   H1797     1.0  0.33801  0.17318  0.79953  1.0000
  H   H1798     1.0  0.36313  0.21423  0.98531  1.0000
  C   C2258     1.0  0.38865  0.01540  0.86878  1.0000
  C   C2259     1.0  0.41740  0.00822  0.82607  1.0000
  H   H1799     1.0  0.43235  0.12376  0.75639  1.0000
  H   H1800     1.0  0.38468  0.08355  0.99300  1.0000
  C   C2260     1.0  0.53389  0.49920  0.84320  1.0000
  H   H1801     1.0  0.56514  0.45868  0.75955  1.0000
  H   H1802     1.0  0.35591  0.00999  0.90876  1.0000
  H   H1803     1.0  0.51243  0.49832  0.78875  1.0000
  H   H1804     1.0  0.59076  0.43469  0.75046  1.0000
  H   H1805     1.0  0.33911  0.12869  0.98886  1.0000
  C   C2261     1.0  0.50114  0.49927  0.76589  1.0000
  C   C2262     1.0  0.43405  0.00767  0.88319  1.0000
  C   C2263     1.0  0.38772  0.00642  0.92602  1.0000
  H   H1806     1.0  0.52575  0.26558  0.98988  1.0000
  C   C2264     1.0  0.50747  0.26348  0.99199  1.0000
  C   C2265     1.0  0.59117  0.49196  0.74763  1.0000
  C   C2266     1.0  0.38546  0.10457  0.74706  1.0000
  H   H1807     1.0  0.57988  0.50215  0.75191  1.0000
  H   H1808     1.0  0.66018  0.50199  0.88560  1.0000
  S   S297      1.0  0.35035  0.01603  0.99593  1.0000
  S   S298      1.0  0.33685  0.32652  0.74634  1.0000
  H   H1809     1.0  0.34013  0.18239  0.74653  1.0000
  H   H1810     1.0  0.53701  0.97569  0.19029  1.0000
  H   H1811     1.0  0.63909  0.98140  0.12080  1.0000
  H   H1812     1.0  0.39612  0.87659  0.19856  1.0000
  C   C2267     1.0  0.37770  0.94464  0.13002  1.0000
  C   C2268     1.0  0.37268  0.92487  0.09460  1.0000
  C   C2269     1.0  0.38062  0.89166  0.12171  1.0000
  Fe  Fe144     1.0  0.43319  0.93644  0.15601  1.0000
  S   S299      1.0  0.41869  0.96535  0.16225  1.0000
  S   S300      1.0  0.41236  0.89918  0.15985  1.0000
  Fe  Fe145     1.0  0.48313  0.96674  0.14708  1.0000
  H   H1813     1.0  0.53108  0.51578  0.05500  1.0000
  S   S301      1.0  0.51977  0.96432  0.14068  1.0000
  Fe  Fe146     1.0  0.44628  0.97205  0.17553  1.0000
  H   H1814     1.0  0.35512  0.85794  0.13471  1.0000
  C   C2270     1.0  0.33061  0.98920  0.99717  1.0000
  C   C2271     1.0  0.35417  0.96220  0.14783  1.0000
  S   S302      1.0  0.45886  0.94131  0.17104  1.0000
  S   S303      1.0  0.45872  0.95882  0.13118  1.0000
  C   C2272     1.0  0.54285  0.99863  0.21616  1.0000
  C   C2273     1.0  0.55904  0.97564  0.15091  1.0000
  C   C2274     1.0  0.53053  0.54223  0.06878  1.0000
  Fe  Fe147     1.0  0.34096  0.99150  0.05859  1.0000
  C   C2275     1.0  0.37129  0.86570  0.17113  1.0000
  S   S304      1.0  0.36853  0.99087  0.03666  1.0000
  S   S305      1.0  0.64459  0.51989  0.13676  1.0000
  C   C2276     1.0  0.42014  0.89068  0.11961  1.0000
  C   C2277     1.0  0.53566  0.50381  0.08002  1.0000
  C   C2278     1.0  0.39538  0.92891  0.06586  1.0000
  H   H1815     1.0  0.33267  0.91425  0.05999  1.0000
  C   C2279     1.0  0.54977  0.97909  0.22355  1.0000
  H   H1816     1.0  0.59101  0.98550  0.15747  1.0000
  C   C2280     1.0  0.33812  0.94648  0.21005  1.0000
  C   C2281     1.0  0.63951  0.97979  0.07231  1.0000
  C   C2282     1.0  0.57561  0.99037  0.15604  1.0000
  C   C2283     1.0  0.34435  0.89680  0.17510  1.0000
  C   C2284     1.0  0.36859  0.90544  0.16964  1.0000
  H   H1817     1.0  0.62411  0.57038  0.03825  1.0000
  P   P79       1.0  0.51310  0.99480  0.21601  1.0000
  H   H1818     1.0  0.62122  0.61021  0.04013  1.0000
  H   H1819     1.0  0.40463  0.92152  0.05674  1.0000
  C   C2285     1.0  0.35793  0.92842  0.12950  1.0000
  H   H1820     1.0  0.39865  0.92671  0.24271  1.0000
  H   H1821     1.0  0.63982  0.97944  0.08529  1.0000
  C   C2286     1.0  0.34849  0.95214  0.22265  1.0000
  C   C2287     1.0  0.61769  0.97351  0.05201  1.0000
  H   H1822     1.0  0.64261  0.62964  0.10439  1.0000
  Fe  Fe148     1.0  0.44595  0.98834  0.13842  1.0000
  H   H1823     1.0  0.63531  0.95689  0.22503  1.0000
  C   C2288     1.0  0.53536  0.53153  0.09727  1.0000
  C   C2289     1.0  0.63328  0.89894  0.21144  1.0000
  H   H1824     1.0  0.36022  0.85590  0.22176  1.0000
  H   H1825     1.0  0.56772  0.50675  0.16175  1.0000
  H   H1826     1.0  0.36245  0.95608  0.09817  1.0000
  C   C2290     1.0  0.64631  0.90452  0.22255  1.0000
  H   H1827     1.0  0.46709  0.00002  0.22731  1.0000
  H   H1828     1.0  0.44375  0.98382  0.09997  1.0000
  H   H1829     1.0  0.45801  0.92196  0.21536  1.0000
  C   C2291     1.0  0.49116  0.92839  0.19774  1.0000
  C   C2292     1.0  0.41249  0.86670  0.12836  1.0000
  H   H1830     1.0  0.63889  0.74349  0.04875  1.0000
  C   C2293     1.0  0.38903  0.85502  0.13353  1.0000
  C   C2294     1.0  0.65116  0.71492  0.06010  1.0000
  H   H1831     1.0  0.58276  0.52888  0.09864  1.0000
  H   H1832     1.0  0.65395  0.55460  0.04813  1.0000
  C   C2295     1.0  0.63597  0.58091  0.04340  1.0000
  C   C2296     1.0  0.50435  0.96862  0.20909  1.0000
  C   C2297     1.0  0.42210  0.99927  0.22297  1.0000
  H   H1833     1.0  0.37679  0.92406  0.16709  1.0000
  P   P80       1.0  0.35279  0.92886  0.23833  1.0000
  C   C2298     1.0  0.51330  0.94369  0.19062  1.0000
  H   H1834     1.0  0.60259  0.96701  0.07903  1.0000
  H   H1835     1.0  0.33238  0.92826  0.20976  1.0000
  C   C2299     1.0  0.39506  0.95244  0.06097  1.0000
  C   C2300     1.0  0.37313  0.86742  0.13027  1.0000
  H   H1836     1.0  0.60788  0.55194  0.11235  1.0000
  C   C2301     1.0  0.38420  0.91511  0.08263  1.0000
  H   H1837     1.0  0.60132  0.96810  0.04927  1.0000
  H   H1838     1.0  0.52791  0.55489  0.05852  1.0000
  C   C2302     1.0  0.58535  0.96198  0.11671  1.0000
  S   S306      1.0  0.64587  0.58569  0.12289  1.0000
  H   H1839     1.0  0.48591  0.91318  0.19305  1.0000
  H   H1840     1.0  0.42471  0.85732  0.13146  1.0000
  C   C2303     1.0  0.53204  0.54789  0.08401  1.0000
  H   H1841     1.0  0.65516  0.91150  0.14710  1.0000
  H   H1842     1.0  0.35224  0.94821  0.00133  1.0000
  S   S307      1.0  0.43834  0.97316  0.20296  1.0000
  H   H1843     1.0  0.52518  0.94031  0.18042  1.0000
  C   C2304     1.0  0.57920  0.52391  0.11243  1.0000
  H   H1844     1.0  0.53059  0.56494  0.08558  1.0000
  H   H1845     1.0  0.38491  0.89701  0.08637  1.0000
  C   C2305     1.0  0.64961  0.61688  0.05114  1.0000
  P   P81       1.0  0.36047  0.90785  0.11663  1.0000
  H   H1846     1.0  0.63371  0.88342  0.20689  1.0000
  C   C2306     1.0  0.62322  0.98204  0.11748  1.0000
  C   C2307     1.0  0.57286  0.98142  0.22313  1.0000
  C   C2308     1.0  0.35711  0.88732  0.22945  1.0000
  C   C2309     1.0  0.62112  0.93449  0.21080  1.0000
  H   H1847     1.0  0.33915  0.00167  0.18859  1.0000
  C   C2310     1.0  0.62075  0.91393  0.20552  1.0000
  C   C2311     1.0  0.58188  0.98372  0.10969  1.0000
  Fe  Fe149     1.0  0.65853  0.99190  0.15559  1.0000
  C   C2312     1.0  0.63428  0.94025  0.22179  1.0000
  H   H1848     1.0  0.40414  0.96347  0.04813  1.0000
  C   C2313     1.0  0.33371  0.87258  0.17837  1.0000
  H   H1849     1.0  0.38294  0.98017  0.06898  1.0000
  H   H1850     1.0  0.38307  0.83652  0.14057  1.0000
  C   C2314     1.0  0.34732  0.85715  0.17653  1.0000
  C   C2315     1.0  0.36779  0.87466  0.21953  1.0000
  C   C2316     1.0  0.38313  0.96197  0.07273  1.0000
  H   H1851     1.0  0.43878  0.98412  0.07101  1.0000
  H   H1852     1.0  0.56151  0.95922  0.14878  1.0000
  C   C2317     1.0  0.64669  0.92508  0.22800  1.0000
  S   S308      1.0  0.63278  0.99077  0.17942  1.0000
  H   H1853     1.0  0.64437  0.55141  0.08564  1.0000
  H   H1854     1.0  0.34049  0.98464  0.12027  1.0000
  C   C2318     1.0  0.33625  0.92991  0.13783  1.0000
  C   C2319     1.0  0.59345  0.53701  0.12008  1.0000
  H   H1855     1.0  0.61170  0.94628  0.20596  1.0000
  C   C2320     1.0  0.43780  0.99758  0.09319  1.0000
  H   H1856     1.0  0.35259  0.97526  0.15481  1.0000
  H   H1857     1.0  0.63753  0.98202  0.02575  1.0000
  S   S309      1.0  0.65892  0.95964  0.14629  1.0000
  C   C2321     1.0  0.65292  0.57206  0.04896  1.0000
  C   C2322     1.0  0.58917  0.53091  0.13785  1.0000
  H   H1858     1.0  0.53636  0.53614  0.10904  1.0000
  C   C2323     1.0  0.48203  0.95330  0.21605  1.0000
  C   C2324     1.0  0.61840  0.97283  0.06877  1.0000
  C   C2325     1.0  0.60588  0.96116  0.12083  1.0000
  C   C2326     1.0  0.53728  0.50938  0.09535  1.0000
  C   C2327     1.0  0.40433  0.90308  0.11621  1.0000
  C   C2328     1.0  0.43499  0.99778  0.07679  1.0000
  C   C2329     1.0  0.33270  0.88788  0.11931  1.0000
  H   H1859     1.0  0.38156  0.85352  0.16972  1.0000
  C   C2330     1.0  0.47549  0.93327  0.21037  1.0000
  C   C2331     1.0  0.38207  0.88986  0.16734  1.0000
  H   H1860     1.0  0.41074  0.92158  0.10924  1.0000
  H   H1861     1.0  0.57816  0.96624  0.22860  1.0000
  S   S310      1.0  0.63329  0.54248  0.16908  1.0000
  C   C2332     1.0  0.51990  0.96376  0.19623  1.0000
  H   H1862     1.0  0.53734  0.96195  0.22938  1.0000
  C   C2333     1.0  0.35644  0.97601  0.22225  1.0000
  H   H1863     1.0  0.39116  0.97431  0.13894  1.0000
  C   C2334     1.0  0.37173  0.94824  0.08941  1.0000
  S   S311      1.0  0.47227  0.99816  0.15251  1.0000
  H   H1864     1.0  0.36544  0.98116  0.23120  1.0000
  C   C2335     1.0  0.36657  0.91181  0.22621  1.0000
  H   H1865     1.0  0.65659  0.89307  0.22635  1.0000
  C   C2336     1.0  0.39717  0.91066  0.20295  1.0000
  H   H1866     1.0  0.61129  0.90996  0.19647  1.0000
  H   H1867     1.0  0.43829  0.89986  0.11592  1.0000
  H   H1868     1.0  0.34129  0.87793  0.23930  1.0000
  H   H1869     1.0  0.38127  0.99372  0.16781  1.0000
  C   C2337     1.0  0.57077  0.51163  0.14797  1.0000
  H   H1870     1.0  0.56537  0.98377  0.10748  1.0000
  C   C2338     1.0  0.65134  0.73860  0.05512  1.0000
  H   H1871     1.0  0.60026  0.54105  0.14377  1.0000
  C   C2339     1.0  0.64388  0.51607  0.09759  1.0000
  C   C2340     1.0  0.37579  0.96158  0.13900  1.0000
  H   H1872     1.0  0.46940  0.95702  0.22549  1.0000
  H   H1873     1.0  0.39359  0.94238  0.20963  1.0000
  H   H1874     1.0  0.64819  0.63417  0.05210  1.0000
  C   C2341     1.0  0.53925  0.98201  0.14863  1.0000
  H   H1875     1.0  0.41237  0.91972  0.19243  1.0000
  H   H1876     1.0  0.41503  0.98282  0.23283  1.0000
  Fe  Fe150     1.0  0.65206  0.55591  0.14120  1.0000
  H   H1877     1.0  0.39464  0.94463  0.12331  1.0000
  C   C2342     1.0  0.38795  0.88629  0.20641  1.0000
  H   H1878     1.0  0.60827  0.94443  0.12691  1.0000
  H   H1879     1.0  0.33927  0.83844  0.17910  1.0000
  C   C2343     1.0  0.63433  0.60333  0.04447  1.0000
  H   H1880     1.0  0.63850  0.70141  0.05770  1.0000
  C   C2344     1.0  0.38647  0.92342  0.21271  1.0000
  H   H1881     1.0  0.57157  0.94586  0.11975  1.0000
  C   C2345     1.0  0.43446  0.99966  0.20670  1.0000
  C   C2346     1.0  0.47316  0.99565  0.23854  1.0000
  C   C2347     1.0  0.65446  0.63350  0.11190  1.0000
  C   C2348     1.0  0.63810  0.98133  0.03877  1.0000
  C   C2349     1.0  0.65424  0.53867  0.08638  1.0000
  C   C2350     1.0  0.35300  0.99375  0.21003  1.0000
  C   C2351     1.0  0.34215  0.98790  0.19783  1.0000
  C   C2352     1.0  0.56052  0.50456  0.12256  1.0000
  C   C2353     1.0  0.49501  0.99192  0.23697  1.0000
  C   C2354     1.0  0.33488  0.96430  0.19775  1.0000
  C   C2355     1.0  0.53232  0.52020  0.06680  1.0000
  H   H1882     1.0  0.33398  0.90883  0.17665  1.0000
  C   C2356     1.0  0.33442  0.94659  0.14703  1.0000
  Fe  Fe151     1.0  0.62861  0.50602  0.16497  1.0000
  H   H1883     1.0  0.33442  0.89541  0.09231  1.0000
  H   H1884     1.0  0.33785  0.90186  0.03306  1.0000
  H   H1885     1.0  0.62627  0.51153  0.10532  1.0000
  H   H1886     1.0  0.63950  0.54279  0.23783  1.0000
  C   C2357     1.0  0.65908  0.61495  0.12262  1.0000
  C   C2358     1.0  0.65924  0.98837  0.04229  1.0000
  C   C2359     1.0  0.66012  0.98724  0.05918  1.0000
  H   H1887     1.0  0.66068  0.94787  0.08390  1.0000
  C   C2360     1.0  0.53567  0.00272  0.15221  1.0000
  H   H1888     1.0  0.50283  0.00251  0.18253  1.0000
  S   S312      1.0  0.63563  0.95169  0.40314  1.0000
  H   H1889     1.0  0.56923  0.55377  0.44626  1.0000
  C   C2361     1.0  0.35067  0.95941  0.43579  1.0000
  C   C2362     1.0  0.62804  0.94348  0.26155  1.0000
  H   H1890     1.0  0.35325  0.75760  0.39658  1.0000
  H   H1891     1.0  0.54011  0.90887  0.43087  1.0000
  H   H1892     1.0  0.63187  0.57230  0.25338  1.0000
  H   H1893     1.0  0.60937  0.69171  0.43665  1.0000
  S   S313      1.0  0.45550  0.97658  0.38909  1.0000
  S   S314      1.0  0.46565  0.96355  0.35219  1.0000
  Fe  Fe152     1.0  0.43717  0.95201  0.37646  1.0000
  S   S315      1.0  0.42324  0.91323  0.39034  1.0000
  S   S316      1.0  0.41801  0.97659  0.36616  1.0000
  H   H1894     1.0  0.56757  0.95052  0.32912  1.0000
  Fe  Fe153     1.0  0.63402  0.51635  0.39702  1.0000
  H   H1895     1.0  0.66015  0.69616  0.41603  1.0000
  C   C2363     1.0  0.42699  0.95872  0.44817  1.0000
  Fe  Fe154     1.0  0.43875  0.00236  0.37674  1.0000
  C   C2364     1.0  0.37968  0.99595  0.32012  1.0000
  C   C2365     1.0  0.55715  0.99870  0.37365  1.0000
  Fe  Fe155     1.0  0.44814  0.99046  0.34283  1.0000
  H   H1896     1.0  0.45568  0.98695  0.28166  1.0000
  H   H1897     1.0  0.65813  0.92269  0.45532  1.0000
  Fe  Fe156     1.0  0.61935  0.54984  0.41670  1.0000
  S   S317      1.0  0.60465  0.52169  0.44162  1.0000
  S   S318      1.0  0.61939  0.58805  0.41270  1.0000
  H   H1898     1.0  0.48537  0.86805  0.48810  1.0000
  H   H1899     1.0  0.65462  0.95455  0.43207  1.0000
  H   H1900     1.0  0.36381  0.98990  0.33025  1.0000
  S   S319      1.0  0.60178  0.52785  0.40193  1.0000
  C   C2366     1.0  0.37190  0.93177  0.44460  1.0000
  C   C2367     1.0  0.61315  0.62412  0.45606  1.0000
  C   C2368     1.0  0.62065  0.60359  0.45803  1.0000
  C   C2369     1.0  0.62287  0.59226  0.44479  1.0000
  C   C2370     1.0  0.61803  0.60174  0.42950  1.0000
  C   C2371     1.0  0.61143  0.62269  0.42741  1.0000
  C   C2372     1.0  0.60855  0.63353  0.44072  1.0000
  C   C2373     1.0  0.62227  0.74246  0.45816  1.0000
  H   H1901     1.0  0.62781  0.57599  0.44653  1.0000
  H   H1902     1.0  0.60764  0.63006  0.41565  1.0000
  H   H1903     1.0  0.38707  0.98297  0.46682  1.0000
  H   H1904     1.0  0.36745  0.98465  0.41096  1.0000
  C   C2374     1.0  0.63917  0.93026  0.41948  1.0000
  C   C2375     1.0  0.37434  0.96251  0.27226  1.0000
  C   C2376     1.0  0.66099  0.98194  0.31903  1.0000
  H   H1905     1.0  0.60904  0.96755  0.32465  1.0000
  H   H1906     1.0  0.64795  0.66809  0.44483  1.0000
  C   C2377     1.0  0.60075  0.70300  0.45945  1.0000
  H   H1907     1.0  0.59972  0.95185  0.27677  1.0000
  C   C2378     1.0  0.48815  0.98431  0.26780  1.0000
  C   C2379     1.0  0.34250  0.72100  0.41102  1.0000
  C   C2380     1.0  0.37010  0.94070  0.25112  1.0000
  H   H1908     1.0  0.47333  0.86539  0.46214  1.0000
  C   C2381     1.0  0.35046  0.89013  0.42605  1.0000
  C   C2382     1.0  0.35668  0.90908  0.41128  1.0000
  C   C2383     1.0  0.37898  0.91626  0.40022  1.0000
  C   C2384     1.0  0.39486  0.90393  0.40347  1.0000
  C   C2385     1.0  0.38818  0.88405  0.41756  1.0000
  C   C2386     1.0  0.36614  0.87738  0.42902  1.0000
  H   H1909     1.0  0.34464  0.91882  0.40864  1.0000
  H   H1910     1.0  0.38406  0.93156  0.38939  1.0000
  H   H1911     1.0  0.40032  0.87420  0.41976  1.0000
  H   H1912     1.0  0.36120  0.86233  0.44008  1.0000
  C   C2387     1.0  0.33664  0.89478  0.36737  1.0000
  H   H1913     1.0  0.58821  0.68629  0.46668  1.0000
  H   H1914     1.0  0.37322  0.91688  0.45383  1.0000
  H   H1915     1.0  0.62390  0.54937  0.33568  1.0000
  C   C2388     1.0  0.39062  0.91937  0.35216  1.0000
  C   C2389     1.0  0.39576  0.95854  0.27188  1.0000
  C   C2390     1.0  0.58872  0.50612  0.31554  1.0000
  C   C2391     1.0  0.40730  0.85103  0.44924  1.0000
  C   C2392     1.0  0.39439  0.86187  0.45932  1.0000
  C   C2393     1.0  0.40487  0.88316  0.46214  1.0000
  C   C2394     1.0  0.47213  0.99577  0.46622  1.0000
  C   C2395     1.0  0.59526  0.51077  0.49310  1.0000
  C   C2396     1.0  0.38754  0.96121  0.41728  1.0000
  C   C2397     1.0  0.59086  0.88013  0.47889  1.0000
  C   C2398     1.0  0.56823  0.88086  0.48031  1.0000
  C   C2399     1.0  0.39385  0.95088  0.47901  1.0000
  H   H1916     1.0  0.37627  0.85346  0.46534  1.0000
  H   H1917     1.0  0.39462  0.89060  0.47062  1.0000
  C   C2400     1.0  0.63386  0.55577  0.26019  1.0000
  H   H1918     1.0  0.49185  0.95496  0.40054  1.0000
  H   H1919     1.0  0.45490  0.93463  0.42256  1.0000
  C   C2401     1.0  0.40036  0.99458  0.32399  1.0000
  C   C2402     1.0  0.60740  0.51136  0.32245  1.0000
  P   P82       1.0  0.44256  0.91969  0.46016  1.0000
  C   C2403     1.0  0.64886  0.55363  0.31165  1.0000
  C   C2404     1.0  0.51518  0.95748  0.48709  1.0000
  C   C2405     1.0  0.40428  0.94538  0.26135  1.0000
  H   H1920     1.0  0.64148  0.58771  0.33925  1.0000
  C   C2406     1.0  0.49130  0.95096  0.41401  1.0000
  C   C2407     1.0  0.58666  0.95641  0.47435  1.0000
  H   H1921     1.0  0.59120  0.51039  0.30185  1.0000
  H   H1922     1.0  0.64284  0.95884  0.45937  1.0000
  C   C2408     1.0  0.40715  0.93512  0.47720  1.0000
  H   H1923     1.0  0.36782  0.97286  0.28032  1.0000
  H   H1924     1.0  0.35830  0.71746  0.40514  1.0000
  H   H1925     1.0  0.62474  0.98247  0.28560  1.0000
  C   C2409     1.0  0.60535  0.72127  0.46719  1.0000
  C   C2410     1.0  0.63434  0.88882  0.43233  1.0000
  C   C2411     1.0  0.63230  0.97279  0.27745  1.0000
  Fe  Fe157     1.0  0.63689  0.51097  0.43374  1.0000
  S   S320      1.0  0.52046  0.99216  0.36035  1.0000
  C   C2412     1.0  0.34239  0.94604  0.35838  1.0000
  H   H1926     1.0  0.50056  0.88588  0.43340  1.0000
  H   H1927     1.0  0.34184  0.83863  0.37712  1.0000
  C   C2413     1.0  0.49764  0.87676  0.47574  1.0000
  H   H1928     1.0  0.52681  0.95715  0.43962  1.0000
  C   C2414     1.0  0.64638  0.79174  0.41527  1.0000
  H   H1929     1.0  0.64045  0.90308  0.27614  1.0000
  H   H1930     1.0  0.37897  0.94430  0.31533  1.0000
  C   C2415     1.0  0.42842  0.89401  0.45463  1.0000
  H   H1931     1.0  0.44235  0.99717  0.25557  1.0000
  H   H1932     1.0  0.55259  0.91162  0.45675  1.0000
  C   C2416     1.0  0.52830  0.89977  0.44341  1.0000
  C   C2417     1.0  0.37740  0.92655  0.34133  1.0000
  H   H1933     1.0  0.45368  0.98885  0.47182  1.0000
  C   C2418     1.0  0.61839  0.79809  0.39962  1.0000
  H   H1934     1.0  0.52413  0.93585  0.47097  1.0000
  C   C2419     1.0  0.43072  0.86177  0.44160  1.0000
  C   C2420     1.0  0.46651  0.98820  0.26921  1.0000
  S   S321      1.0  0.60554  0.63609  0.47337  1.0000
  P   P83       1.0  0.34681  0.92159  0.34994  1.0000
  C   C2421     1.0  0.33213  0.91967  0.33346  1.0000
  S   S322      1.0  0.33941  0.88034  0.48480  1.0000
  C   C2422     1.0  0.33965  0.74361  0.40621  1.0000
  H   H1935     1.0  0.59635  0.71875  0.48044  1.0000
  C   C2423     1.0  0.62728  0.95950  0.46786  1.0000
  H   H1936     1.0  0.37347  0.95126  0.36644  1.0000
  C   C2424     1.0  0.42413  0.93910  0.46180  1.0000
  C   C2425     1.0  0.61824  0.95560  0.27241  1.0000
  C   C2426     1.0  0.63803  0.53910  0.25143  1.0000
  H   H1937     1.0  0.63738  0.80116  0.44953  1.0000
  H   H1938     1.0  0.34344  0.89511  0.27140  1.0000
  H   H1939     1.0  0.44067  0.85353  0.43356  1.0000
  H   H1940     1.0  0.64500  0.97156  0.48502  1.0000
  C   C2427     1.0  0.63461  0.74557  0.44122  1.0000
  C   C2428     1.0  0.33521  0.98313  0.37246  1.0000
  H   H1941     1.0  0.60747  0.52643  0.48392  1.0000
  C   C2429     1.0  0.51102  0.95209  0.43604  1.0000
  H   H1942     1.0  0.65223  0.82475  0.46766  1.0000
  C   C2430     1.0  0.62961  0.72721  0.43343  1.0000
  C   C2431     1.0  0.36144  0.95342  0.26207  1.0000
  C   C2432     1.0  0.33366  0.95712  0.49352  1.0000
  H   H1943     1.0  0.51306  0.00275  0.42965  1.0000
  H   H1944     1.0  0.61691  0.93021  0.25778  1.0000
  C   C2433     1.0  0.36835  0.96981  0.42048  1.0000
  C   C2434     1.0  0.35830  0.95698  0.36595  1.0000
  Fe  Fe158     1.0  0.63332  0.65797  0.48165  1.0000
  H   H1945     1.0  0.64374  0.50483  0.25336  1.0000
  C   C2435     1.0  0.64871  0.93618  0.43234  1.0000
  C   C2436     1.0  0.61281  0.70601  0.44254  1.0000
  H   H1946     1.0  0.60222  0.64895  0.43925  1.0000
  C   C2437     1.0  0.56128  0.58161  0.45674  1.0000
  P   P84       1.0  0.63630  0.52522  0.30852  1.0000
  C   C2438     1.0  0.41221  0.94257  0.31768  1.0000
  Fe  Fe159     1.0  0.48286  0.99006  0.36401  1.0000
  H   H1947     1.0  0.61757  0.50869  0.34603  1.0000
  C   C2439     1.0  0.56726  0.56050  0.45743  1.0000
  C   C2440     1.0  0.64349  0.89450  0.44535  1.0000
  H   H1948     1.0  0.62594  0.75597  0.46469  1.0000
  C   C2441     1.0  0.57131  0.54841  0.47230  1.0000
  C   C2442     1.0  0.63630  0.53033  0.28628  1.0000
  H   H1949     1.0  0.55888  0.59131  0.44502  1.0000
  H   H1950     1.0  0.34011  0.93268  0.46016  1.0000
  C   C2443     1.0  0.35290  0.94066  0.44802  1.0000
  H   H1951     1.0  0.38093  0.94788  0.49093  1.0000
  C   C2444     1.0  0.63270  0.55130  0.27761  1.0000
  H   H1952     1.0  0.44370  0.93981  0.32379  1.0000
  H   H1953     1.0  0.34483  0.95665  0.26251  1.0000
  H   H1954     1.0  0.60575  0.94867  0.45226  1.0000
  C   C2445     1.0  0.49015  0.94078  0.44862  1.0000
  C   C2446     1.0  0.63969  0.51332  0.27752  1.0000
  H   H1955     1.0  0.36732  0.98384  0.37868  1.0000
  C   C2447     1.0  0.44133  0.88671  0.48996  1.0000
  C   C2448     1.0  0.53563  0.00269  0.37406  1.0000
  H   H1956     1.0  0.45952  0.89082  0.43858  1.0000
  H   H1957     1.0  0.39903  0.83443  0.44725  1.0000
  C   C2449     1.0  0.39722  0.97060  0.46546  1.0000
  H   H1958     1.0  0.47155  0.98492  0.44324  1.0000
  H   H1959     1.0  0.49394  0.98009  0.27918  1.0000
  H   H1960     1.0  0.35344  0.87450  0.35284  1.0000
  H   H1961     1.0  0.38276  0.91066  0.36563  1.0000
  C   C2450     1.0  0.39153  0.93649  0.25097  1.0000
  H   H1962     1.0  0.49009  0.93693  0.46189  1.0000
  H   H1963     1.0  0.51912  0.98328  0.25099  1.0000
  H   H1964     1.0  0.60315  0.79114  0.39587  1.0000
  S   S323      1.0  0.44688  0.99908  0.31523  1.0000
  Fe  Fe160     1.0  0.64499  0.70199  0.49424  1.0000
  C   C2451     1.0  0.65617  0.97761  0.27182  1.0000
  C   C2452     1.0  0.64880  0.58277  0.32795  1.0000
  H   H1965     1.0  0.43934  0.96215  0.43598  1.0000
  C   C2453     1.0  0.63224  0.90661  0.41944  1.0000
  H   H1966     1.0  0.64286  0.95765  0.36837  1.0000
  H   H1967     1.0  0.57545  0.53197  0.47239  1.0000
  C   C2454     1.0  0.38842  0.93809  0.32398  1.0000
  H   H1968     1.0  0.62875  0.87054  0.43223  1.0000
  C   C2455     1.0  0.65205  0.94855  0.25558  1.0000
  H   H1969     1.0  0.41553  0.98902  0.43934  1.0000
  H   H1970     1.0  0.62501  0.90201  0.40946  1.0000
  C   C2456     1.0  0.42097  0.00239  0.31098  1.0000
  H   H1971     1.0  0.57068  0.95287  0.47089  1.0000
  C   C2457     1.0  0.35478  0.97546  0.37294  1.0000
  H   H1972     1.0  0.51252  0.97028  0.47696  1.0000
  H   H1973     1.0  0.52768  0.96633  0.40900  1.0000
  H   H1974     1.0  0.55483  0.60712  0.47039  1.0000
  H   H1975     1.0  0.61769  0.76421  0.41461  1.0000
  C   C2458     1.0  0.52015  0.88939  0.47442  1.0000
  C   C2459     1.0  0.50598  0.88686  0.44483  1.0000
  H   H1976     1.0  0.33055  0.92167  0.49133  1.0000
  C   C2460     1.0  0.38911  0.94192  0.42919  1.0000
  C   C2461     1.0  0.64810  0.96455  0.35460  1.0000
  H   H1977     1.0  0.56387  0.98893  0.36521  1.0000
  H   H1978     1.0  0.59845  0.87053  0.47067  1.0000
  C   C2462     1.0  0.46962  0.93467  0.44399  1.0000
  C   C2463     1.0  0.56312  0.57850  0.48588  1.0000
  C   C2464     1.0  0.62674  0.78283  0.41025  1.0000
  H   H1979     1.0  0.62952  0.56446  0.28418  1.0000
  C   C2465     1.0  0.34298  0.87443  0.36511  1.0000
  H   H1980     1.0  0.62292  0.83413  0.38584  1.0000
  C   C2466     1.0  0.47042  0.93961  0.42654  1.0000
  C   C2467     1.0  0.33366  0.94029  0.32111  1.0000
  C   C2468     1.0  0.65389  0.89586  0.27075  1.0000
  C   C2469     1.0  0.62840  0.96656  0.48264  1.0000
  H   H1981     1.0  0.42445  0.91862  0.35429  1.0000
  C   C2470     1.0  0.41436  0.92387  0.34578  1.0000
  C   C2471     1.0  0.55901  0.59049  0.47102  1.0000
  H   H1982     1.0  0.62385  0.59593  0.46995  1.0000
  C   C2472     1.0  0.42518  0.93561  0.32859  1.0000
  C   C2473     1.0  0.60641  0.95412  0.46379  1.0000
  H   H1983     1.0  0.34351  0.95735  0.32135  1.0000
  C   C2474     1.0  0.52156  0.93770  0.48380  1.0000
  C   C2475     1.0  0.56985  0.55760  0.48657  1.0000
  C   C2476     1.0  0.51156  0.95729  0.41876  1.0000
  C   C2477     1.0  0.53535  0.90114  0.45812  1.0000
  H   H1984     1.0  0.42079  0.95224  0.30447  1.0000
  S   S324      1.0  0.64535  0.87115  0.46120  1.0000
  C   C2478     1.0  0.49067  0.87537  0.46099  1.0000
  H   H1985     1.0  0.40580  0.96591  0.27963  1.0000
  H   H1986     1.0  0.40365  0.93478  0.42645  1.0000
  H   H1987     1.0  0.40109  0.96934  0.40546  1.0000
  C   C2479     1.0  0.41356  0.97429  0.45003  1.0000
  H   H1988     1.0  0.64544  0.86699  0.29344  1.0000
  C   C2480     1.0  0.44667  0.91072  0.48119  1.0000
  C   C2481     1.0  0.64911  0.83129  0.39884  1.0000
  C   C2482     1.0  0.55991  0.98403  0.32592  1.0000
  C   C2483     1.0  0.33650  0.85411  0.37884  1.0000
  C   C2484     1.0  0.44129  0.88309  0.44435  1.0000
  H   H1989     1.0  0.34617  0.96523  0.48124  1.0000
  H   H1990     1.0  0.63087  0.99165  0.35505  1.0000
  C   C2485     1.0  0.62953  0.82230  0.39395  1.0000
  S   S325      1.0  0.65178  0.69605  0.46815  1.0000
  H   H1991     1.0  0.62115  0.89075  0.48707  1.0000
  C   C2486     1.0  0.45278  0.92794  0.48969  1.0000
  S   S326      1.0  0.65268  0.54067  0.40972  1.0000
  C   C2487     1.0  0.58760  0.96307  0.48937  1.0000
  H   H1992     1.0  0.55854  0.87140  0.47328  1.0000
  S   S327      1.0  0.64825  0.50906  0.37196  1.0000
  P   P85       1.0  0.65706  0.77245  0.42939  1.0000
  C   C2488     1.0  0.63902  0.56066  0.32594  1.0000
  S   S328      1.0  0.33229  0.00218  0.49444  1.0000
  H   H1993     1.0  0.63885  0.72918  0.42037  1.0000
  Fe  Fe161     1.0  0.63929  0.98843  0.40587  1.0000
  C   C2489     1.0  0.55823  0.89320  0.49097  1.0000
  C   C2490     1.0  0.65079  0.91822  0.44538  1.0000
  H   H1994     1.0  0.40424  0.91995  0.48790  1.0000
  H   H1995     1.0  0.43597  0.87294  0.48398  1.0000
  C   C2491     1.0  0.45902  0.99390  0.25457  1.0000
  H   H1996     1.0  0.54154  0.97641  0.32853  1.0000
  C   C2492     1.0  0.48208  0.99368  0.45008  1.0000
  H   H1997     1.0  0.42102  0.94252  0.26089  1.0000
  C   C2493     1.0  0.60365  0.89150  0.48818  1.0000
  H   H1998     1.0  0.45658  0.94652  0.48329  1.0000
  C   C2494     1.0  0.65427  0.80157  0.45125  1.0000
  C   C2495     1.0  0.64056  0.51774  0.26017  1.0000
  C   C2496     1.0  0.60845  0.96772  0.49379  1.0000
  P   P86       1.0  0.52859  0.89304  0.49340  1.0000
  H   H1999     1.0  0.33249  0.99746  0.37786  1.0000
  C   C2497     1.0  0.64138  0.98392  0.34697  1.0000
  C   C2498     1.0  0.50237  0.98613  0.25175  1.0000
  C   C2499     1.0  0.64794  0.99293  0.32911  1.0000
  H   H2000     1.0  0.34246  0.00037  0.45994  1.0000
  H   H2001     1.0  0.65260  0.54545  0.46634  1.0000
  C   C2500     1.0  0.60340  0.50527  0.34034  1.0000
  H   H2002     1.0  0.40026  0.98703  0.33698  1.0000
  C   C2501     1.0  0.65661  0.87531  0.28062  1.0000
  C   C2502     1.0  0.57457  0.96946  0.32639  1.0000
  C   C2503     1.0  0.59809  0.97923  0.32390  1.0000
  H   H2003     1.0  0.65833  0.55356  0.49341  1.0000
  C   C2504     1.0  0.65757  0.81609  0.40940  1.0000
  C   C2505     1.0  0.65494  0.50642  0.31201  1.0000
  H   H2004     1.0  0.65764  0.85010  0.39457  1.0000
  S   S329      1.0  0.61543  0.99643  0.42664  1.0000
  C   C2506     1.0  0.33731  0.00217  0.43486  1.0000
  H   H2005     1.0  0.62837  0.77902  0.49591  1.0000
  H   H2006     1.0  0.59252  0.94566  0.69338  1.0000
  H   H2007     1.0  0.63159  0.62592  0.63969  1.0000
  S   S330      1.0  0.62365  0.66478  0.50739  1.0000
  P   P87       1.0  0.62198  0.78659  0.72394  1.0000
  H   H2008     1.0  0.38894  0.81873  0.73353  1.0000
  H   H2009     1.0  0.61033  0.81795  0.74516  1.0000
  H   H2010     1.0  0.45892  0.97852  0.51519  1.0000
  C   C2507     1.0  0.59501  0.98056  0.61493  1.0000
  C   C2508     1.0  0.54345  0.99606  0.57127  1.0000
  C   C2509     1.0  0.64454  0.87361  0.71380  1.0000
  H   H2011     1.0  0.34478  0.90008  0.51926  1.0000
  C   C2510     1.0  0.54658  0.92579  0.55646  1.0000
  Fe  Fe162     1.0  0.46894  0.88217  0.59054  1.0000
  S   S331      1.0  0.43303  0.85793  0.60246  1.0000
  S   S332      1.0  0.50196  0.87459  0.59446  1.0000
  Fe  Fe163     1.0  0.45317  0.91644  0.56643  1.0000
  S   S333      1.0  0.41604  0.89581  0.57636  1.0000
  S   S334      1.0  0.46686  0.94724  0.54306  1.0000
  Fe  Fe164     1.0  0.42273  0.89149  0.60227  1.0000
  S   S335      1.0  0.39690  0.89810  0.62318  1.0000
  Fe  Fe165     1.0  0.42912  0.86424  0.57563  1.0000
  S   S336      1.0  0.41439  0.83415  0.56535  1.0000
  S   S337      1.0  0.45905  0.91541  0.59220  1.0000
  S   S338      1.0  0.46590  0.88517  0.56383  1.0000
  C   C2511     1.0  0.62955  0.88437  0.55816  1.0000
  S   S339      1.0  0.61532  0.93262  0.65430  1.0000
  Fe  Fe166     1.0  0.62723  0.88983  0.62730  1.0000
  S   S340      1.0  0.62215  0.92479  0.61565  1.0000
  C   C2512     1.0  0.64335  0.60643  0.68606  1.0000
  C   C2513     1.0  0.57753  0.98825  0.57866  1.0000
  Fe  Fe167     1.0  0.59318  0.91539  0.63961  1.0000
  S   S341      1.0  0.55809  0.92123  0.64022  1.0000
  S   S342      1.0  0.59669  0.87929  0.65019  1.0000
  Fe  Fe168     1.0  0.60533  0.54158  0.64776  1.0000
  S   S343      1.0  0.57255  0.53119  0.64023  1.0000
  S   S344      1.0  0.60496  0.55405  0.67175  1.0000
  C   C2514     1.0  0.63785  0.66514  0.57190  1.0000
  S   S345      1.0  0.60330  0.51782  0.60776  1.0000
  Fe  Fe169     1.0  0.59402  0.54978  0.61337  1.0000
  S   S346      1.0  0.58005  0.57117  0.59461  1.0000
  C   C2515     1.0  0.33172  0.81794  0.55580  1.0000
  C   C2516     1.0  0.64748  0.98128  0.67861  1.0000
  C   C2517     1.0  0.44982  0.86762  0.64706  1.0000
  C   C2518     1.0  0.64526  0.88256  0.69660  1.0000
  S   S347      1.0  0.63080  0.73190  0.49917  1.0000
  C   C2519     1.0  0.60278  0.58963  0.57719  1.0000
  C   C2520     1.0  0.62526  0.58912  0.57677  1.0000
  C   C2521     1.0  0.64356  0.60350  0.56292  1.0000
  C   C2522     1.0  0.63959  0.61886  0.54949  1.0000
  C   C2523     1.0  0.61706  0.61930  0.54971  1.0000
  C   C2524     1.0  0.59861  0.60463  0.56358  1.0000
  H   H2012     1.0  0.62859  0.57742  0.58703  1.0000
  C   C2525     1.0  0.64277  0.77722  0.50096  1.0000
  H   H2013     1.0  0.61383  0.63114  0.53941  1.0000
  H   H2014     1.0  0.58120  0.60502  0.56381  1.0000
  C   C2526     1.0  0.61517  0.88037  0.58855  1.0000
  C   C2527     1.0  0.61281  0.88590  0.57187  1.0000
  H   H2015     1.0  0.60238  0.88185  0.59907  1.0000
  H   H2016     1.0  0.59814  0.89161  0.56963  1.0000
  C   C2528     1.0  0.51739  0.88834  0.60694  1.0000
  C   C2529     1.0  0.50717  0.89899  0.61875  1.0000
  C   C2530     1.0  0.51980  0.90909  0.62886  1.0000
  C   C2531     1.0  0.54273  0.90868  0.62721  1.0000
  C   C2532     1.0  0.55307  0.89848  0.61514  1.0000
  C   C2533     1.0  0.54044  0.88837  0.60505  1.0000
  H   H2017     1.0  0.48953  0.89934  0.62015  1.0000
  H   H2018     1.0  0.51170  0.91704  0.63812  1.0000
  H   H2019     1.0  0.57078  0.89827  0.61364  1.0000
  H   H2020     1.0  0.54860  0.88052  0.59576  1.0000
  C   C2534     1.0  0.38273  0.83686  0.52003  1.0000
  C   C2535     1.0  0.38895  0.81705  0.52752  1.0000
  C   C2536     1.0  0.39803  0.81659  0.54156  1.0000
  C   C2537     1.0  0.40173  0.83618  0.54813  1.0000
  C   C2538     1.0  0.39563  0.85627  0.54071  1.0000
  C   C2539     1.0  0.38614  0.85662  0.52662  1.0000
  H   H2021     1.0  0.38686  0.80193  0.52235  1.0000
  H   H2022     1.0  0.40268  0.80102  0.54715  1.0000
  H   H2023     1.0  0.39847  0.87156  0.54565  1.0000
  H   H2024     1.0  0.38210  0.87232  0.52058  1.0000
  H   H2025     1.0  0.63988  0.72953  0.57297  1.0000
  C   C2540     1.0  0.55415  0.78139  0.72621  1.0000
  C   C2541     1.0  0.33013  0.81417  0.66064  1.0000
  C   C2542     1.0  0.44864  0.96558  0.54267  1.0000
  C   C2543     1.0  0.43501  0.96691  0.55797  1.0000
  H   H2026     1.0  0.51096  0.81266  0.53216  1.0000
  H   H2027     1.0  0.49389  0.53826  0.55641  1.0000
  H   H2028     1.0  0.64881  0.58104  0.64664  1.0000
  P   P88       1.0  0.64759  0.65228  0.60324  1.0000
  H   H2029     1.0  0.59700  0.59266  0.50119  1.0000
  H   H2030     1.0  0.43347  0.91099  0.66241  1.0000
  C   C2544     1.0  0.61396  0.50330  0.73783  1.0000
  H   H2031     1.0  0.54556  0.51018  0.56071  1.0000
  C   C2545     1.0  0.39781  0.94484  0.69986  1.0000
  C   C2546     1.0  0.61197  0.54432  0.51968  1.0000
  C   C2547     1.0  0.57697  0.51284  0.50547  1.0000
  S   S348      1.0  0.62578  0.56313  0.62128  1.0000
  C   C2548     1.0  0.36848  0.87376  0.67441  1.0000
  C   C2549     1.0  0.37551  0.88750  0.65732  1.0000
  C   C2550     1.0  0.38799  0.87996  0.64439  1.0000
  C   C2551     1.0  0.39311  0.85837  0.64861  1.0000
  C   C2552     1.0  0.38653  0.84486  0.66577  1.0000
  H   H2032     1.0  0.37149  0.90420  0.65414  1.0000
  H   H2033     1.0  0.40270  0.85240  0.63874  1.0000
  H   H2034     1.0  0.39110  0.82850  0.66904  1.0000
  C   C2553     1.0  0.35928  0.88910  0.56282  1.0000
  C   C2554     1.0  0.59791  0.53202  0.56639  1.0000
  C   C2555     1.0  0.62668  0.78977  0.74412  1.0000
  S   S349      1.0  0.37414  0.83703  0.50106  1.0000
  H   H2035     1.0  0.45276  0.86218  0.63536  1.0000
  C   C2556     1.0  0.59568  0.81698  0.71550  1.0000
  S   S350      1.0  0.64607  0.85438  0.50822  1.0000
  H   H2036     1.0  0.61032  0.58058  0.69612  1.0000
  S   S351      1.0  0.62685  0.89217  0.53724  1.0000
  S   S352      1.0  0.35780  0.87009  0.73584  1.0000
  H   H2037     1.0  0.52986  0.95288  0.55063  1.0000
  C   C2557     1.0  0.59697  0.60549  0.64416  1.0000
  C   C2558     1.0  0.58164  0.60847  0.61971  1.0000
  H   H2038     1.0  0.65448  0.92993  0.70049  1.0000
  H   H2039     1.0  0.52562  0.51899  0.51223  1.0000
  C   C2559     1.0  0.53075  0.55191  0.54716  1.0000
  H   H2040     1.0  0.45930  0.83893  0.66134  1.0000
  C   C2560     1.0  0.60772  0.73762  0.73775  1.0000
  C   C2561     1.0  0.47298  0.90692  0.69223  1.0000
  C   C2562     1.0  0.59959  0.55731  0.51107  1.0000
  C   C2563     1.0  0.63431  0.68065  0.55829  1.0000
  H   H2041     1.0  0.36365  0.88657  0.57484  1.0000
  C   C2564     1.0  0.56927  0.55257  0.72176  1.0000
  C   C2565     1.0  0.43511  0.93739  0.69742  1.0000
  C   C2566     1.0  0.34316  0.85171  0.60451  1.0000
  H   H2042     1.0  0.43990  0.89818  0.63604  1.0000
  C   C2567     1.0  0.65043  0.99264  0.52194  1.0000
  C   C2568     1.0  0.42170  0.98291  0.55763  1.0000
  H   H2043     1.0  0.38560  0.92232  0.55166  1.0000
  P   P89       1.0  0.57424  0.54194  0.50624  1.0000
  P   P90       1.0  0.62532  0.53490  0.73348  1.0000
  H   H2044     1.0  0.65596  0.83384  0.66371  1.0000
  C   C2569     1.0  0.57102  0.90417  0.50057  1.0000
  H   H2045     1.0  0.45376  0.85195  0.68779  1.0000
  C   C2570     1.0  0.63206  0.75149  0.70860  1.0000
  C   C2571     1.0  0.64660  0.94439  0.56826  1.0000
  H   H2046     1.0  0.38139  0.82862  0.62129  1.0000
  H   H2047     1.0  0.61492  0.98635  0.67609  1.0000
  C   C2572     1.0  0.51094  0.51290  0.64936  1.0000
  H   H2048     1.0  0.64825  0.50764  0.49787  1.0000
  H   H2049     1.0  0.51908  0.94548  0.66093  1.0000
  H   H2050     1.0  0.62247  0.93366  0.55461  1.0000
  H   H2051     1.0  0.56740  0.90191  0.55947  1.0000
  H   H2052     1.0  0.60409  0.63098  0.59590  1.0000
  C   C2573     1.0  0.62067  0.63128  0.61638  1.0000
  C   C2574     1.0  0.62029  0.75645  0.72323  1.0000
  C   C2575     1.0  0.60376  0.55000  0.73059  1.0000
  H   H2053     1.0  0.58558  0.96637  0.64227  1.0000
  C   C2576     1.0  0.56441  0.96250  0.53414  1.0000
  H   H2054     1.0  0.35904  0.87985  0.68427  1.0000
  C   C2577     1.0  0.35747  0.84773  0.61505  1.0000
  C   C2578     1.0  0.63931  0.71151  0.57271  1.0000
  C   C2579     1.0  0.47668  0.84940  0.53475  1.0000
  C   C2580     1.0  0.54900  0.54038  0.52253  1.0000
  C   C2581     1.0  0.63021  0.80047  0.54779  1.0000
  H   H2055     1.0  0.60692  0.52526  0.52311  1.0000
  Fe  Fe170     1.0  0.63343  0.52948  0.61775  1.0000
  H   H2056     1.0  0.51141  0.94567  0.52946  1.0000
  H   H2057     1.0  0.57212  0.96452  0.49751  1.0000
  C   C2582     1.0  0.60732  0.51345  0.56439  1.0000
  C   C2583     1.0  0.44688  0.89737  0.51557  1.0000
  C   C2584     1.0  0.44171  0.88013  0.50703  1.0000
  H   H2058     1.0  0.53889  0.80926  0.71823  1.0000
  H   H2059     1.0  0.61876  0.69157  0.72305  1.0000
  C   C2585     1.0  0.52100  0.92383  0.51344  1.0000
  C   C2586     1.0  0.50888  0.90495  0.69896  1.0000
  H   H2060     1.0  0.41152  0.98433  0.56950  1.0000
  H   H2061     1.0  0.58031  0.83686  0.63891  1.0000
  C   C2587     1.0  0.61882  0.70957  0.72304  1.0000
  C   C2588     1.0  0.63386  0.87244  0.59162  1.0000
  H   H2062     1.0  0.60043  0.92730  0.53577  1.0000
  H   H2063     1.0  0.65229  0.81338  0.50149  1.0000
  H   H2064     1.0  0.53494  0.84650  0.50798  1.0000
  H   H2065     1.0  0.64392  0.69244  0.64927  1.0000
  H   H2066     1.0  0.44613  0.89222  0.52904  1.0000
  H   H2067     1.0  0.43696  0.86156  0.51388  1.0000
  H   H2068     1.0  0.57588  0.84084  0.70870  1.0000
  C   C2589     1.0  0.48488  0.89702  0.70312  1.0000
  H   H2069     1.0  0.55626  0.51570  0.69453  1.0000
  C   C2590     1.0  0.35427  0.82325  0.59024  1.0000
  C   C2591     1.0  0.52116  0.92248  0.68380  1.0000
  H   H2070     1.0  0.37623  0.92941  0.52385  1.0000
  C   C2592     1.0  0.50944  0.93244  0.67294  1.0000
  H   H2071     1.0  0.58648  0.96398  0.61313  1.0000
  H   H2072     1.0  0.62449  0.51454  0.56573  1.0000
  C   C2593     1.0  0.57894  0.59889  0.63707  1.0000
  C   C2594     1.0  0.34893  0.89700  0.53139  1.0000
  C   C2595     1.0  0.63118  0.72813  0.70852  1.0000
  H   H2073     1.0  0.39546  0.88975  0.69531  1.0000
  C   C2596     1.0  0.64821  0.87652  0.56129  1.0000
  H   H2074     1.0  0.62616  0.80331  0.68745  1.0000
  C   C2597     1.0  0.51141  0.96027  0.50359  1.0000
  C   C2598     1.0  0.59376  0.90349  0.49903  1.0000
  H   H2075     1.0  0.61155  0.83109  0.71133  1.0000
  C   C2599     1.0  0.63641  0.97369  0.51827  1.0000
  H   H2076     1.0  0.64739  0.91034  0.73516  1.0000
  H   H2077     1.0  0.42779  0.96961  0.70116  1.0000
  H   H2078     1.0  0.49075  0.51721  0.53405  1.0000
  C   C2600     1.0  0.48410  0.82919  0.53872  1.0000
  H   H2079     1.0  0.33258  0.92109  0.59769  1.0000
  C   C2601     1.0  0.64649  0.53759  0.69971  1.0000
  C   C2602     1.0  0.64781  0.54692  0.71368  1.0000
  H   H2080     1.0  0.56357  0.91320  0.50928  1.0000
  H   H2081     1.0  0.65579  0.93153  0.56585  1.0000
  C   C2603     1.0  0.51478  0.94370  0.51663  1.0000
  H   H2082     1.0  0.33763  0.79726  0.53799  1.0000
  C   C2604     1.0  0.62456  0.59343  0.51279  1.0000
  P   P91       1.0  0.44276  0.89385  0.69540  1.0000
  H   H2083     1.0  0.58479  0.52432  0.72032  1.0000
  C   C2605     1.0  0.37431  0.85258  0.67873  1.0000
  H   H2084     1.0  0.35582  0.90876  0.61689  1.0000
  C   C2606     1.0  0.48545  0.92475  0.67714  1.0000
  C   C2607     1.0  0.63090  0.55587  0.52426  1.0000
  C   C2608     1.0  0.44995  0.86173  0.67675  1.0000
  H   H2085     1.0  0.33691  0.88107  0.64545  1.0000
  H   H2086     1.0  0.53980  0.92791  0.68018  1.0000
  C   C2609     1.0  0.34147  0.83957  0.59197  1.0000
  H   H2087     1.0  0.50523  0.97485  0.50646  1.0000
  H   H2088     1.0  0.45682  0.93458  0.51347  1.0000
  H   H2089     1.0  0.47342  0.81422  0.54931  1.0000
  C   C2610     1.0  0.65017  0.87021  0.57801  1.0000
  C   C2611     1.0  0.64641  0.67675  0.62816  1.0000
  H   H2090     1.0  0.51804  0.89694  0.70719  1.0000
  C   C2612     1.0  0.60243  0.62444  0.60935  1.0000
  H   H2091     1.0  0.52172  0.53196  0.66670  1.0000
  C   C2613     1.0  0.58545  0.93349  0.53892  1.0000
  H   H2092     1.0  0.52257  0.91077  0.52395  1.0000
  H   H2093     1.0  0.63178  0.94356  0.74007  1.0000
  C   C2614     1.0  0.55056  0.55276  0.53496  1.0000
  H   H2094     1.0  0.55030  0.84864  0.62646  1.0000
  C   C2615     1.0  0.36665  0.91347  0.53396  1.0000
  H   H2095     1.0  0.64073  0.54577  0.53049  1.0000
  Fe  Fe171     1.0  0.32947  0.88690  0.73264  1.0000
  H   H2096     1.0  0.62915  0.67663  0.62746  1.0000
  C   C2616     1.0  0.59461  0.98179  0.63157  1.0000
  H   H2097     1.0  0.65705  0.60826  0.61816  1.0000
  H   H2098     1.0  0.56698  0.56306  0.53539  1.0000
  H   H2099     1.0  0.63722  0.64724  0.57137  1.0000
  C   C2617     1.0  0.56296  0.51128  0.56146  1.0000
  C   C2618     1.0  0.65889  0.96539  0.68536  1.0000
  H   H2100     1.0  0.62814  0.86516  0.72324  1.0000
  C   C2619     1.0  0.52411  0.84844  0.56242  1.0000
  C   C2620     1.0  0.53977  0.86511  0.54801  1.0000
  C   C2621     1.0  0.56266  0.86458  0.54352  1.0000
  C   C2622     1.0  0.56990  0.84741  0.55336  1.0000
  C   C2623     1.0  0.55420  0.83034  0.56770  1.0000
  C   C2624     1.0  0.53126  0.83112  0.57225  1.0000
  P   P92       1.0  0.56354  0.80831  0.58066  1.0000
  C   C2625     1.0  0.58957  0.80481  0.56794  1.0000
  C   C2626     1.0  0.56868  0.81732  0.59921  1.0000
  C   C2627     1.0  0.58510  0.81010  0.60675  1.0000
  C   C2628     1.0  0.58924  0.81718  0.62100  1.0000
  C   C2629     1.0  0.57673  0.83107  0.62806  1.0000
  C   C2630     1.0  0.55997  0.83784  0.62094  1.0000
  C   C2631     1.0  0.55596  0.83106  0.60653  1.0000
  C   C2632     1.0  0.58876  0.78725  0.55916  1.0000
  C   C2633     1.0  0.60904  0.78513  0.54911  1.0000
  H   H2101     1.0  0.56304  0.97918  0.52713  1.0000
  S   S353      1.0  0.63692  0.86487  0.61239  1.0000
  C   C2634     1.0  0.61093  0.82030  0.56631  1.0000
  C   C2635     1.0  0.54132  0.78060  0.58747  1.0000
  C   C2636     1.0  0.52832  0.77421  0.57643  1.0000
  C   C2637     1.0  0.51104  0.75280  0.58169  1.0000
  C   C2638     1.0  0.50664  0.73761  0.59798  1.0000
  C   C2639     1.0  0.51957  0.74379  0.60900  1.0000
  C   C2640     1.0  0.53688  0.76518  0.60378  1.0000
  H   H2102     1.0  0.50650  0.84929  0.56623  1.0000
  H   H2103     1.0  0.53425  0.87869  0.54058  1.0000
  H   H2104     1.0  0.57510  0.87782  0.53271  1.0000
  H   H2105     1.0  0.58783  0.84776  0.54976  1.0000
  H   H2106     1.0  0.51895  0.81864  0.58358  1.0000
  H   H2107     1.0  0.59498  0.79928  0.60154  1.0000
  C   C2641     1.0  0.33852  0.97079  0.72553  1.0000
  C   C2642     1.0  0.63115  0.81807  0.55634  1.0000
  C   C2643     1.0  0.41408  0.85041  0.71689  1.0000
  H   H2108     1.0  0.54301  0.83672  0.60120  1.0000
  H   H2109     1.0  0.57259  0.77526  0.55991  1.0000
  H   H2110     1.0  0.60843  0.77174  0.54221  1.0000
  H   H2111     1.0  0.34101  0.79432  0.68065  1.0000
  C   C2644     1.0  0.60700  0.71430  0.73764  1.0000
  H   H2112     1.0  0.61195  0.83424  0.57269  1.0000
  H   H2113     1.0  0.53161  0.78576  0.56374  1.0000
  H   H2114     1.0  0.50103  0.74799  0.57315  1.0000
  H   H2115     1.0  0.49320  0.72104  0.60206  1.0000
  H   H2116     1.0  0.51615  0.73201  0.62163  1.0000
  H   H2117     1.0  0.54669  0.76963  0.61251  1.0000
  S   S354      1.0  0.36702  0.83567  0.70020  1.0000
  C   C2645     1.0  0.64489  0.80724  0.70632  1.0000
  C   C2646     1.0  0.58490  0.95592  0.53016  1.0000
  C   C2647     1.0  0.50952  0.51698  0.66541  1.0000
  H   H2118     1.0  0.60098  0.96251  0.56020  1.0000
  C   C2648     1.0  0.42898  0.87221  0.71579  1.0000
  H   H2119     1.0  0.65680  0.99915  0.67116  1.0000
  Fe  Fe172     1.0  0.65699  0.65806  0.50977  1.0000
  H   H2120     1.0  0.59493  0.59798  0.65761  1.0000
  C   C2649     1.0  0.62759  0.94549  0.56204  1.0000
  H   H2121     1.0  0.44109  0.89573  0.73034  1.0000
  H   H2122     1.0  0.37866  0.80698  0.59922  1.0000
  H   H2123     1.0  0.61242  0.91768  0.70564  1.0000
  H   H2124     1.0  0.57366  0.75744  0.73285  1.0000
  H   H2125     1.0  0.46025  0.84996  0.54219  1.0000
  S   S355      1.0  0.61939  0.88018  0.69057  1.0000
  C   C2650     1.0  0.62741  0.57836  0.67140  1.0000
  C   C2651     1.0  0.37002  0.83139  0.61331  1.0000
  C   C2652     1.0  0.57537  0.82261  0.71407  1.0000
  C   C2653     1.0  0.61096  0.95130  0.69133  1.0000
  H   H2126     1.0  0.47669  0.93198  0.66824  1.0000
  H   H2127     1.0  0.53212  0.56137  0.55678  1.0000
  C   C2654     1.0  0.43878  0.89502  0.66251  1.0000
  C   C2655     1.0  0.44267  0.88797  0.64743  1.0000
  C   C2656     1.0  0.65871  0.82950  0.67631  1.0000
  C   C2657     1.0  0.49037  0.86884  0.52121  1.0000
  S   S356      1.0  0.65728  0.66497  0.70929  1.0000
  C   C2658     1.0  0.40287  0.90744  0.69603  1.0000
  H   H2128     1.0  0.43516  0.95606  0.57008  1.0000
  C   C2659     1.0  0.42610  0.91483  0.69564  1.0000
  H   H2129     1.0  0.55845  0.58384  0.72349  1.0000
  C   C2660     1.0  0.57096  0.57431  0.72554  1.0000
  Fe  Fe173     1.0  0.64475  0.93901  0.63109  1.0000
  C   C2661     1.0  0.64707  0.58826  0.65752  1.0000
  C   C2662     1.0  0.58934  0.58421  0.73136  1.0000
  H   H2130     1.0  0.60781  0.54718  0.56917  1.0000
  C   C2663     1.0  0.58575  0.54055  0.72409  1.0000
  C   C2664     1.0  0.50747  0.52700  0.53437  1.0000
  C   C2665     1.0  0.52725  0.52793  0.52211  1.0000
  H   H2131     1.0  0.64183  0.61313  0.69721  1.0000
  H   H2132     1.0  0.38665  0.95613  0.70192  1.0000
  C   C2666     1.0  0.54545  0.94756  0.54732  1.0000
  H   H2133     1.0  0.60267  0.81254  0.62630  1.0000
  C   C2667     1.0  0.62555  0.58779  0.68551  1.0000
  C   C2668     1.0  0.61778  0.62146  0.63389  1.0000
  H   H2134     1.0  0.37075  0.91644  0.69870  1.0000
  C   C2669     1.0  0.36835  0.81911  0.60096  1.0000
  S   S357      1.0  0.33160  0.92560  0.72367  1.0000
  H   H2135     1.0  0.59117  0.60140  0.73385  1.0000
  C   C2670     1.0  0.51150  0.86816  0.51137  1.0000
  C   C2671     1.0  0.65626  0.79674  0.50423  1.0000
  H   H2136     1.0  0.56777  0.60307  0.61412  1.0000
  H   H2137     1.0  0.63190  0.52325  0.70058  1.0000
  Fe  Fe174     1.0  0.34439  0.84699  0.72021  1.0000
  Fe  Fe175     1.0  0.62129  0.89708  0.66293  1.0000
  C   C2672     1.0  0.34148  0.87235  0.56032  1.0000
  H   H2138     1.0  0.60372  0.91197  0.50638  1.0000
  C   C2673     1.0  0.43468  0.99527  0.52666  1.0000
  C   C2674     1.0  0.44233  0.88190  0.67732  1.0000
  C   C2675     1.0  0.45340  0.85447  0.66173  1.0000
  C   C2676     1.0  0.64393  0.95340  0.51789  1.0000
  C   C2677     1.0  0.64305  0.69603  0.58632  1.0000
  H   H2139     1.0  0.64091  0.72448  0.69738  1.0000
  H   H2140     1.0  0.48442  0.88435  0.51839  1.0000
  C   C2678     1.0  0.62205  0.97680  0.57525  1.0000
  P   P93       1.0  0.60960  0.97567  0.51336  1.0000
  C   C2679     1.0  0.45283  0.92126  0.50681  1.0000
  H   H2141     1.0  0.65798  0.56313  0.54983  1.0000
  H   H2142     1.0  0.53199  0.91433  0.56683  1.0000
  H   H2143     1.0  0.64592  0.79888  0.54004  1.0000
  C   C2680     1.0  0.53100  0.97255  0.57938  1.0000
  C   C2681     1.0  0.61544  0.96176  0.56534  1.0000
  H   H2144     1.0  0.35924  0.85767  0.62435  1.0000
  C   C2682     1.0  0.60584  0.57226  0.73363  1.0000
  H   H2145     1.0  0.57281  0.95176  0.59229  1.0000
  C   C2683     1.0  0.44837  0.97959  0.52701  1.0000
  C   C2684     1.0  0.40103  0.83513  0.73285  1.0000
  C   C2685     1.0  0.54183  0.95677  0.58678  1.0000
  C   C2686     1.0  0.56493  0.96449  0.58643  1.0000
  C   C2687     1.0  0.42097  0.95237  0.69946  1.0000
  H   H2146     1.0  0.47583  0.88257  0.71444  1.0000
  H   H2147     1.0  0.53230  0.93848  0.59287  1.0000
  H   H2148     1.0  0.56823  0.54500  0.56734  1.0000
  C   C2688     1.0  0.37185  0.90950  0.54966  1.0000
  C   C2689     1.0  0.65368  0.95979  0.57766  1.0000
  C   C2690     1.0  0.56656  0.91878  0.55226  1.0000
  C   C2691     1.0  0.50518  0.82834  0.52905  1.0000
  S   S358      1.0  0.65209  0.90453  0.64081  1.0000
  C   C2692     1.0  0.64184  0.81227  0.68981  1.0000
  C   C2693     1.0  0.62217  0.93551  0.69820  1.0000
  H   H2149     1.0  0.45277  0.94319  0.69773  1.0000
  H   H2150     1.0  0.35400  0.81409  0.58042  1.0000
  H   H2151     1.0  0.41170  0.84557  0.70547  1.0000
  H   H2152     1.0  0.33748  0.97447  0.71246  1.0000
  C   C2694     1.0  0.55460  0.80483  0.71940  1.0000
  C   C2695     1.0  0.57562  0.53082  0.56520  1.0000
  C   C2696     1.0  0.63712  0.58043  0.52091  1.0000
  C   C2697     1.0  0.50923  0.53891  0.54694  1.0000
  H   H2153     1.0  0.64663  0.54906  0.58137  1.0000
  C   C2698     1.0  0.59549  0.79343  0.72206  1.0000
  C   C2699     1.0  0.64251  0.67269  0.58597  1.0000
  H   H2154     1.0  0.56301  0.58611  0.64496  1.0000
  H   H2155     1.0  0.66084  0.60264  0.56261  1.0000
  C   C2700     1.0  0.64604  0.94246  0.69517  1.0000
  H   H2156     1.0  0.63243  0.71590  0.54802  1.0000
  C   C2701     1.0  0.38882  0.92243  0.69805  1.0000
  C   C2702     1.0  0.57449  0.77568  0.72759  1.0000
  H   H2157     1.0  0.55564  0.54543  0.71650  1.0000
  C   C2703     1.0  0.43051  0.87854  0.73090  1.0000
  H   H2158     1.0  0.64702  0.98760  0.58856  1.0000
  C   C2704     1.0  0.51879  0.84768  0.51536  1.0000
  H   H2159     1.0  0.53801  0.76762  0.73039  1.0000
  C   C2705     1.0  0.60671  0.00030  0.60089  1.0000
  H   H2160     1.0  0.34930  0.82871  0.55164  1.0000
  H   H2161     1.0  0.51298  0.96645  0.57992  1.0000
  H   H2162     1.0  0.56117  0.58578  0.49676  1.0000
  C   C2706     1.0  0.60618  0.58204  0.50758  1.0000
  H   H2163     1.0  0.63112  0.67465  0.54738  1.0000
  C   C2707     1.0  0.63505  0.70386  0.55867  1.0000
  S   S359      1.0  0.61500  0.50850  0.64495  1.0000
  H   H2164     1.0  0.52417  0.52471  0.63820  1.0000
  H   H2165     1.0  0.65162  0.58942  0.52466  1.0000
  C   C2708     1.0  0.33723  0.90197  0.62108  1.0000
  H   H2166     1.0  0.63411  0.93888  0.51442  1.0000
  C   C2709     1.0  0.64143  0.97589  0.58118  1.0000
  H   H2167     1.0  0.64658  0.70249  0.59690  1.0000
  Fe  Fe176     1.0  0.65871  0.64275  0.73414  1.0000
  C   C2710     1.0  0.65464  0.68558  0.64060  1.0000
  C   C2711     1.0  0.33633  0.87657  0.54450  1.0000
  C   C2712     1.0  0.64815  0.75564  0.50375  1.0000
  H   H2168     1.0  0.62042  0.58060  0.73755  1.0000
  C   C2713     1.0  0.60604  0.00268  0.63438  1.0000
  H   H2169     1.0  0.64758  0.83013  0.55510  1.0000
  H   H2170     1.0  0.64245  0.76551  0.69737  1.0000
  C   C2714     1.0  0.62361  0.97417  0.68152  1.0000
  C   C2715     1.0  0.34184  0.98926  0.73325  1.0000
  C   C2716     1.0  0.33649  0.94768  0.73452  1.0000
  P   P94       1.0  0.60704  0.99838  0.57940  1.0000
  H   H2171     1.0  0.62893  0.61238  0.51068  1.0000
  C   C2717     1.0  0.42158  0.99715  0.54201  1.0000
  Fe  Fe177     1.0  0.65470  0.88673  0.51728  1.0000
  H   H2172     1.0  0.33981  0.80840  0.65066  1.0000
  C   C2718     1.0  0.33064  0.80604  0.67754  1.0000
  H   H2173     1.0  0.33393  0.86477  0.60579  1.0000
  C   C2719     1.0  0.52390  0.92035  0.49705  1.0000
  C   C2720     1.0  0.65995  0.66711  0.61727  1.0000
  H   H2174     1.0  0.49162  0.50461  0.69224  1.0000
  H   H2175     1.0  0.53413  0.00176  0.53223  1.0000
  H   H2176     1.0  0.60008  0.00233  0.53839  1.0000
  Fe  Fe178     1.0  0.34118  0.84377  0.49613  1.0000
  C   C2721     1.0  0.63940  0.59486  0.92106  1.0000
  C   C2722     1.0  0.37040  0.86913  0.77851  1.0000
  C   C2723     1.0  0.38836  0.88325  0.78271  1.0000
  C   C2724     1.0  0.43260  0.94862  0.93556  1.0000
  P   P95       1.0  0.40307  0.93099  0.94154  1.0000
  C   C2725     1.0  0.64018  0.63227  0.79550  1.0000
  C   C2726     1.0  0.41765  0.86311  0.74685  1.0000
  C   C2727     1.0  0.41033  0.86830  0.93260  1.0000
  C   C2728     1.0  0.58559  0.96026  0.81920  1.0000
  H   H2177     1.0  0.55869  0.81216  0.82568  1.0000
  C   C2729     1.0  0.36812  0.94070  0.92704  1.0000
  C   C2730     1.0  0.56694  0.84916  0.81267  1.0000
  Fe  Fe179     1.0  0.63821  0.90915  0.87861  1.0000
  C   C2731     1.0  0.64894  0.86688  0.80010  1.0000
  S   S360      1.0  0.61472  0.90342  0.86171  1.0000
  Fe  Fe180     1.0  0.61302  0.55288  0.88386  1.0000
  C   C2732     1.0  0.60018  0.90152  0.77715  1.0000
  S   S361      1.0  0.61671  0.56036  0.90884  1.0000
  Fe  Fe181     1.0  0.61640  0.57390  0.84704  1.0000
  S   S362      1.0  0.61218  0.53938  0.84007  1.0000
  S   S363      1.0  0.62658  0.61063  0.82955  1.0000
  H   H2178     1.0  0.38517  0.99173  0.92040  1.0000
  H   H2179     1.0  0.39213  0.82996  0.76019  1.0000
  Fe  Fe182     1.0  0.63636  0.53317  0.85597  1.0000
  H   H2180     1.0  0.54202  0.51786  0.84064  1.0000
  S   S364      1.0  0.58628  0.55998  0.87061  1.0000
  S   S365      1.0  0.64310  0.56878  0.86070  1.0000
  H   H2181     1.0  0.35384  0.85047  0.87122  1.0000
  H   H2182     1.0  0.41445  0.86159  0.92154  1.0000
  H   H2183     1.0  0.62195  0.96519  0.80971  1.0000
  Fe  Fe183     1.0  0.41102  0.86738  0.86626  1.0000
  S   S366      1.0  0.44262  0.88962  0.86978  1.0000
  S   S367      1.0  0.38715  0.83913  0.88921  1.0000
  Fe  Fe184     1.0  0.42429  0.88945  0.82812  1.0000
  S   S368      1.0  0.45755  0.91356  0.82832  1.0000
  S   S369      1.0  0.41689  0.89388  0.80235  1.0000
  Fe  Fe185     1.0  0.46129  0.88222  0.84627  1.0000
  S   S370      1.0  0.49469  0.87258  0.84507  1.0000
  Fe  Fe186     1.0  0.43639  0.91911  0.85174  1.0000
  S   S371      1.0  0.44458  0.95445  0.85708  1.0000
  S   S372      1.0  0.43003  0.85728  0.84398  1.0000
  S   S373      1.0  0.40264  0.89763  0.85034  1.0000
  H   H2184     1.0  0.65111  0.64636  0.79864  1.0000
  H   H2185     1.0  0.42188  0.94365  0.90424  1.0000
  C   C2733     1.0  0.56360  0.94690  0.82030  1.0000
  Fe  Fe187     1.0  0.33050  0.84339  0.75812  1.0000
  H   H2186     1.0  0.63719  0.88826  0.83462  1.0000
  H   H2187     1.0  0.55983  0.84579  0.80234  1.0000
  C   C2734     1.0  0.41476  0.96735  0.83922  1.0000
  S   S374      1.0  0.62803  0.96149  0.84837  1.0000
  H   H2188     1.0  0.40609  0.94875  0.84227  1.0000
  C   C2735     1.0  0.36204  0.83986  0.80549  1.0000
  C   C2736     1.0  0.37997  0.85416  0.80980  1.0000
  C   C2737     1.0  0.39333  0.87581  0.79829  1.0000
  C   C2738     1.0  0.56623  0.83006  0.82589  1.0000
  H   H2189     1.0  0.38382  0.84829  0.82179  1.0000
  S   S375      1.0  0.33489  0.82921  0.78440  1.0000
  H   H2190     1.0  0.46272  0.85578  0.98859  1.0000
  C   C2739     1.0  0.43854  0.97281  0.92714  1.0000
  H   H2191     1.0  0.63449  0.64663  0.88681  1.0000
  C   C2740     1.0  0.56086  0.92820  0.81276  1.0000
  H   H2192     1.0  0.37572  0.00104  0.85004  1.0000
  C   C2741     1.0  0.35609  0.87902  0.91502  1.0000
  C   C2742     1.0  0.36776  0.87139  0.90167  1.0000
  C   C2743     1.0  0.37303  0.84972  0.90534  1.0000
  C   C2744     1.0  0.36682  0.83589  0.92225  1.0000
  H   H2193     1.0  0.33678  0.92544  0.75846  1.0000
  C   C2745     1.0  0.62273  0.54451  0.76520  1.0000
  H   H2194     1.0  0.37253  0.88217  0.88860  1.0000
  H   H2195     1.0  0.37094  0.81922  0.92512  1.0000
  C   C2746     1.0  0.58221  0.50760  0.81405  1.0000
  C   C2747     1.0  0.62632  0.61217  0.80840  1.0000
  C   C2748     1.0  0.65853  0.90959  0.79150  1.0000
  C   C2749     1.0  0.35234  0.92618  0.98407  1.0000
  C   C2750     1.0  0.62609  0.61603  0.77428  1.0000
  C   C2751     1.0  0.61186  0.59605  0.78722  1.0000
  C   C2752     1.0  0.61221  0.59395  0.80429  1.0000
  C   C2753     1.0  0.60909  0.88279  0.77418  1.0000
  C   C2754     1.0  0.39094  0.93948  0.92401  1.0000
  H   H2196     1.0  0.60066  0.58222  0.78402  1.0000
  H   H2197     1.0  0.60124  0.57862  0.81433  1.0000
  C   C2755     1.0  0.43430  0.97481  0.84468  1.0000
  S   S376      1.0  0.56513  0.93439  0.87438  1.0000
  H   H2198     1.0  0.35795  0.79693  0.84503  1.0000
  Fe  Fe188     1.0  0.58402  0.52453  0.86489  1.0000
  S   S377      1.0  0.33882  0.87543  0.94925  1.0000
  H   H2199     1.0  0.61738  0.93247  0.79626  1.0000
  C   C2756     1.0  0.56656  0.53073  0.79441  1.0000
  H   H2200     1.0  0.59341  0.89395  0.82696  1.0000
  H   H2201     1.0  0.41447  0.96569  0.96116  1.0000
  S   S378      1.0  0.64975  0.84042  0.79498  1.0000
  C   C2757     1.0  0.60849  0.92347  0.76471  1.0000
  C   C2758     1.0  0.63839  0.77567  0.75251  1.0000
  C   C2759     1.0  0.66021  0.78124  0.81257  1.0000
  C   C2760     1.0  0.60488  0.95526  0.81022  1.0000
  C   C2761     1.0  0.34391  0.99505  0.89017  1.0000
  S   S379      1.0  0.62327  0.93626  0.88816  1.0000
  C   C2762     1.0  0.47249  0.95238  0.93536  1.0000
  C   C2763     1.0  0.40420  0.94427  0.90705  1.0000
  C   C2764     1.0  0.54692  0.91836  0.86459  1.0000
  C   C2765     1.0  0.52660  0.92419  0.86322  1.0000
  C   C2766     1.0  0.51072  0.91057  0.85691  1.0000
  C   C2767     1.0  0.51514  0.89100  0.85180  1.0000
  C   C2768     1.0  0.53584  0.88561  0.85253  1.0000
  C   C2769     1.0  0.55179  0.89938  0.85878  1.0000
  H   H2202     1.0  0.54362  0.91758  0.81444  1.0000
  H   H2203     1.0  0.49499  0.91513  0.85614  1.0000
  H   H2204     1.0  0.53935  0.87053  0.84855  1.0000
  H   H2205     1.0  0.56747  0.89484  0.85960  1.0000
  C   C2770     1.0  0.64726  0.63714  0.90867  1.0000
  S   S380      1.0  0.65404  0.93657  0.81358  1.0000
  H   H2206     1.0  0.39460  0.85010  0.97604  1.0000
  C   C2771     1.0  0.62893  0.59000  0.90833  1.0000
  C   C2772     1.0  0.62762  0.60881  0.89579  1.0000
  C   C2773     1.0  0.63627  0.63224  0.89622  1.0000
  H   H2207     1.0  0.63503  0.79492  0.78829  1.0000
  H   H2208     1.0  0.34295  0.95877  0.77214  1.0000
  H   H2209     1.0  0.61935  0.60528  0.88604  1.0000
  C   C2774     1.0  0.34941  0.99241  0.87365  1.0000
  C   C2775     1.0  0.60222  0.93667  0.80256  1.0000
  H   H2210     1.0  0.48568  0.94443  0.93844  1.0000
  C   C2776     1.0  0.40276  0.84148  0.74783  1.0000
  H   H2211     1.0  0.63170  0.52046  0.93104  1.0000
  C   C2777     1.0  0.62547  0.92663  0.74964  1.0000
  C   C2778     1.0  0.35018  0.86519  0.93197  1.0000
  C   C2779     1.0  0.39902  0.86182  0.96328  1.0000
  H   H2212     1.0  0.37692  0.83018  0.85488  1.0000
  H   H2213     1.0  0.39849  0.90008  0.77381  1.0000
  H   H2214     1.0  0.42556  0.98100  0.92395  1.0000
  C   C2780     1.0  0.44970  0.93857  0.93980  1.0000
  H   H2215     1.0  0.58794  0.50540  0.82549  1.0000
  H   H2216     1.0  0.33478  0.99730  0.96999  1.0000
  H   H2217     1.0  0.52318  0.93943  0.86693  1.0000
  H   H2218     1.0  0.35738  0.93697  0.93986  1.0000
  H   H2219     1.0  0.37336  0.98399  0.95183  1.0000
  C   C2781     1.0  0.54969  0.89089  0.79075  1.0000
  C   C2782     1.0  0.58570  0.87627  0.82643  1.0000
  C   C2783     1.0  0.58482  0.85714  0.83968  1.0000
  C   C2784     1.0  0.57515  0.83405  0.83940  1.0000
  C   C2785     1.0  0.52938  0.87850  0.80375  1.0000
  C   C2786     1.0  0.50809  0.87497  0.80015  1.0000
  C   C2787     1.0  0.50688  0.88360  0.78351  1.0000
  C   C2788     1.0  0.52702  0.89568  0.77042  1.0000
  C   C2789     1.0  0.54837  0.89937  0.77401  1.0000
  H   H2220     1.0  0.35164  0.83329  0.94864  1.0000
  H   H2221     1.0  0.59180  0.86031  0.85011  1.0000
  H   H2222     1.0  0.57458  0.81928  0.84965  1.0000
  H   H2223     1.0  0.52990  0.87213  0.81681  1.0000
  H   H2224     1.0  0.34878  0.91913  0.84007  1.0000
  C   C2790     1.0  0.46125  0.98667  0.92305  1.0000
  H   H2225     1.0  0.63300  0.87154  0.75702  1.0000
  H   H2226     1.0  0.54862  0.95048  0.82752  1.0000
  C   C2791     1.0  0.39455  0.94934  0.89350  1.0000
  H   H2227     1.0  0.36668  0.87535  0.76656  1.0000
  P   P96       1.0  0.57687  0.89701  0.79593  1.0000
  H   H2228     1.0  0.60330  0.86575  0.78354  1.0000
  C   C2792     1.0  0.63624  0.53945  0.75135  1.0000
  H   H2229     1.0  0.35715  0.90729  0.96511  1.0000
  C   C2793     1.0  0.40509  0.85335  0.94906  1.0000
  C   C2794     1.0  0.37196  0.95060  0.89663  1.0000
  H   H2230     1.0  0.63317  0.76529  0.87849  1.0000
  C   C2795     1.0  0.65774  0.53610  0.75212  1.0000
  S   S381      1.0  0.62611  0.61821  0.75295  1.0000
  H   H2231     1.0  0.41918  0.99545  0.88214  1.0000
  C   C2796     1.0  0.36503  0.92167  0.96966  1.0000
  H   H2232     1.0  0.49247  0.86597  0.81041  1.0000
  H   H2233     1.0  0.35201  0.82297  0.81428  1.0000
  C   C2797     1.0  0.35873  0.94640  0.91339  1.0000
  C   C2798     1.0  0.40922  0.89162  0.93035  1.0000
  H   H2234     1.0  0.55814  0.51578  0.77456  1.0000
  C   C2799     1.0  0.65523  0.90521  0.91714  1.0000
  H   H2235     1.0  0.60165  0.93807  0.76663  1.0000
  H   H2236     1.0  0.56366  0.90910  0.76374  1.0000
  C   C2800     1.0  0.55872  0.87936  0.91056  1.0000
  C   C2801     1.0  0.56404  0.86672  0.89873  1.0000
  C   C2802     1.0  0.54696  0.85583  0.89215  1.0000
  C   C2803     1.0  0.52456  0.85769  0.89729  1.0000
  C   C2804     1.0  0.51897  0.87030  0.90925  1.0000
  C   C2805     1.0  0.53630  0.88106  0.91587  1.0000
  P   P97       1.0  0.49002  0.87286  0.91619  1.0000
  C   C2806     1.0  0.48180  0.86775  0.93911  1.0000
  C   C2807     1.0  0.48857  0.90228  0.90669  1.0000
  C   C2808     1.0  0.46892  0.90552  0.90177  1.0000
  C   C2809     1.0  0.46774  0.92818  0.89443  1.0000
  C   C2810     1.0  0.48581  0.94790  0.89243  1.0000
  C   C2811     1.0  0.50510  0.94496  0.89779  1.0000
  C   C2812     1.0  0.50658  0.92227  0.90476  1.0000
  C   C2813     1.0  0.49115  0.85316  0.94948  1.0000
  C   C2814     1.0  0.48435  0.84898  0.96726  1.0000
  C   C2815     1.0  0.46797  0.85905  0.97481  1.0000
  C   C2816     1.0  0.45824  0.87318  0.96458  1.0000
  C   C2817     1.0  0.46504  0.87741  0.94680  1.0000
  C   C2818     1.0  0.46947  0.85152  0.91062  1.0000
  C   C2819     1.0  0.46984  0.85397  0.89341  1.0000
  C   C2820     1.0  0.45320  0.83859  0.88894  1.0000
  C   C2821     1.0  0.43570  0.82096  0.90165  1.0000
  C   C2822     1.0  0.43521  0.81823  0.91883  1.0000
  C   C2823     1.0  0.45210  0.83333  0.92333  1.0000
  H   H2237     1.0  0.57211  0.88814  0.91541  1.0000
  H   H2238     1.0  0.58150  0.86564  0.89454  1.0000
  H   H2239     1.0  0.55119  0.84645  0.88270  1.0000
  H   H2240     1.0  0.51190  0.84941  0.89171  1.0000
  H   H2241     1.0  0.53258  0.89088  0.92509  1.0000
  H   H2242     1.0  0.45461  0.89059  0.90325  1.0000
  H   H2243     1.0  0.45310  0.93038  0.88978  1.0000
  H   H2244     1.0  0.48510  0.96535  0.88631  1.0000
  H   H2245     1.0  0.51952  0.96014  0.89573  1.0000
  H   H2246     1.0  0.52215  0.92055  0.90805  1.0000
  H   H2247     1.0  0.50358  0.84489  0.94388  1.0000
  H   H2248     1.0  0.49177  0.83785  0.97519  1.0000
  C   C2824     1.0  0.33000  0.88615  0.85902  1.0000
  H   H2249     1.0  0.44533  0.88075  0.97044  1.0000
  H   H2250     1.0  0.45702  0.88795  0.93904  1.0000
  H   H2251     1.0  0.48279  0.86808  0.88341  1.0000
  H   H2252     1.0  0.45362  0.84075  0.87559  1.0000
  H   H2253     1.0  0.42236  0.80964  0.89812  1.0000
  H   H2254     1.0  0.42157  0.80454  0.92864  1.0000
  H   H2255     1.0  0.45124  0.83092  0.93673  1.0000
  H   H2256     1.0  0.34943  0.94249  0.86113  1.0000
  C   C2825     1.0  0.61877  0.80636  0.75158  1.0000
  C   C2826     1.0  0.63331  0.69261  0.77676  1.0000
  C   C2827     1.0  0.62554  0.68226  0.79442  1.0000
  C   C2828     1.0  0.63814  0.69020  0.80517  1.0000
  H   H2257     1.0  0.32947  0.81627  0.90259  1.0000
  C   C2829     1.0  0.64133  0.77746  0.76842  1.0000
  S   S382      1.0  0.64570  0.87840  0.89518  1.0000
  H   H2258     1.0  0.39202  0.97308  0.98672  1.0000
  H   H2259     1.0  0.64739  0.91729  0.91067  1.0000
  H   H2260     1.0  0.45641  0.98661  0.87601  1.0000
  C   C2830     1.0  0.57523  0.52780  0.80862  1.0000
  C   C2831     1.0  0.62601  0.88600  0.75908  1.0000
  C   C2832     1.0  0.38459  0.95866  0.98194  1.0000
  C   C2833     1.0  0.34132  0.96194  0.75927  1.0000
  Fe  Fe189     1.0  0.64238  0.93275  0.84166  1.0000
  C   C2834     1.0  0.64096  0.86682  0.81714  1.0000
  C   C2835     1.0  0.64403  0.77571  0.82838  1.0000
  C   C2836     1.0  0.63713  0.75274  0.83918  1.0000
  C   C2837     1.0  0.64675  0.73544  0.83431  1.0000
  C   C2838     1.0  0.58019  0.92289  0.80386  1.0000
  H   H2261     1.0  0.58765  0.97409  0.82567  1.0000
  C   C2839     1.0  0.39819  0.88526  0.96107  1.0000
  H   H2262     1.0  0.32958  0.87626  0.84959  1.0000
  C   C2840     1.0  0.33802  0.94318  0.75145  1.0000
  C   C2841     1.0  0.64257  0.88827  0.82142  1.0000
  C   C2842     1.0  0.64888  0.61836  0.92108  1.0000
  H   H2263     1.0  0.62390  0.68596  0.76841  1.0000
  H   H2264     1.0  0.61005  0.66762  0.79978  1.0000
  H   H2265     1.0  0.63187  0.68188  0.81882  1.0000
  C   C2843     1.0  0.34141  0.92360  0.86547  1.0000
  S   S383      1.0  0.60833  0.51632  0.88039  1.0000
  C   C2844     1.0  0.35578  0.84378  0.93553  1.0000
  S   S384      1.0  0.65842  0.66693  0.90839  1.0000
  C   C2845     1.0  0.40305  0.90033  0.94456  1.0000
  C   C2846     1.0  0.65165  0.54220  0.78042  1.0000
  H   H2266     1.0  0.63425  0.85027  0.82706  1.0000
  H   H2267     1.0  0.40527  0.83509  0.95075  1.0000
  H   H2268     1.0  0.63659  0.78919  0.83206  1.0000
  H   H2269     1.0  0.62416  0.74825  0.85128  1.0000
  H   H2270     1.0  0.64083  0.71762  0.84270  1.0000
  H   H2271     1.0  0.41289  0.90254  0.91746  1.0000
  H   H2272     1.0  0.39106  0.97835  0.82584  1.0000
  C   C2847     1.0  0.34091  0.91042  0.85356  1.0000
  C   C2848     1.0  0.62179  0.80813  0.76749  1.0000
  H   H2273     1.0  0.65735  0.54322  0.79173  1.0000
  C   C2849     1.0  0.34517  0.83602  0.86701  1.0000
  H   H2274     1.0  0.40453  0.95225  0.88048  1.0000
  H   H2275     1.0  0.36474  0.95457  0.88601  1.0000
  C   C2850     1.0  0.39724  0.95437  0.96738  1.0000
  Fe  Fe190     1.0  0.60197  0.93260  0.86958  1.0000
  C   C2851     1.0  0.65336  0.71135  0.76987  1.0000
  C   C2852     1.0  0.35735  0.84725  0.78974  1.0000
  C   C2853     1.0  0.35835  0.82453  0.85772  1.0000
  H   H2276     1.0  0.39356  0.89146  0.97226  1.0000
  H   H2277     1.0  0.49027  0.88117  0.78086  1.0000
  H   H2278     1.0  0.61585  0.82102  0.77323  1.0000
  C   C2854     1.0  0.64014  0.63414  0.77848  1.0000
  H   H2279     1.0  0.35030  0.89761  0.80209  1.0000
  H   H2280     1.0  0.65273  0.99370  0.90804  1.0000
  C   C2855     1.0  0.64612  0.52275  0.92024  1.0000
  H   H2281     1.0  0.56092  0.54629  0.79040  1.0000
  H   H2282     1.0  0.65058  0.64988  0.76871  1.0000
  C   C2856     1.0  0.40624  0.98409  0.82995  1.0000
  H   H2283     1.0  0.60619  0.54731  0.76498  1.0000
  S   S385      1.0  0.35563  0.98418  0.80538  1.0000
  H   H2284     1.0  0.57606  0.54093  0.81574  1.0000
  C   C2857     1.0  0.56502  0.51351  0.78551  1.0000
  H   H2285     1.0  0.34102  0.94705  0.91580  1.0000
  C   C2858     1.0  0.38747  0.93590  0.96100  1.0000
  C   C2859     1.0  0.47827  0.97643  0.92699  1.0000
  H   H2286     1.0  0.62036  0.55046  0.79011  1.0000
  C   C2860     1.0  0.57665  0.87243  0.81284  1.0000
  H   H2287     1.0  0.44548  0.92014  0.94663  1.0000
  C   C2861     1.0  0.34762  0.80571  0.85229  1.0000
  C   C2862     1.0  0.65138  0.90962  0.80859  1.0000
  C   C2863     1.0  0.63057  0.54610  0.77957  1.0000
  H   H2288     1.0  0.52604  0.90250  0.75755  1.0000
  H   H2289     1.0  0.49643  0.51557  0.76574  1.0000
  C   C2864     1.0  0.65759  0.88824  0.78728  1.0000
  C   C2865     1.0  0.44542  0.99891  0.84070  1.0000
  C   C2866     1.0  0.38135  0.00193  0.94381  1.0000
  H   H2290     1.0  0.41865  0.86822  0.75846  1.0000
  Fe  Fe191     1.0  0.65091  0.96238  0.86582  1.0000
  H   H2291     1.0  0.35232  0.89586  0.91227  1.0000
  H   H2292     1.0  0.48682  0.51171  0.91888  1.0000
  H   H2293     1.0  0.64570  0.72879  0.88525  1.0000
  C   C2867     1.0  0.63278  0.79348  0.77598  1.0000
  H   H2294     1.0  0.64022  0.58039  0.93092  1.0000
  H   H2295     1.0  0.34191  0.93398  0.80773  1.0000
  C   C2868     1.0  0.64389  0.50878  0.90896  1.0000
  H   H2296     1.0  0.33073  0.92263  0.89211  1.0000
  H   H2297     1.0  0.49593  0.98715  0.92365  1.0000
  C   C2869     1.0  0.33474  0.90180  0.80017  1.0000
  C   C2870     1.0  0.33106  0.91245  0.88286  1.0000
  C   C2871     1.0  0.65124  0.76617  0.87461  1.0000
  H   H2298     1.0  0.33649  0.98237  0.86906  1.0000
  C   C2872     1.0  0.65654  0.88469  0.91218  1.0000
  H   H2299     1.0  0.65046  0.76660  0.77478  1.0000
  C   C2873     1.0  0.34291  0.98498  0.75020  1.0000
  H   H2300     1.0  0.65697  0.62194  0.93088  1.0000
  H   H2301     1.0  0.65929  0.71954  0.75618  1.0000
  C   C2874     1.0  0.63422  0.90790  0.74682  1.0000
  C   C2875     1.0  0.65827  0.74562  0.87835  1.0000
  C   C2876     1.0  0.65891  0.70824  0.79823  1.0000
  C   C2877     1.0  0.33006  0.92236  0.80327  1.0000
  C   C2878     1.0  0.36213  0.94464  0.99022  1.0000
  H   H2302     1.0  0.65315  0.65147  0.99345  1.0000
  H   H2303     1.0  0.33475  0.91555  0.99032  1.0000
  H   H2304     1.0  0.64529  0.76326  0.74681  1.0000
  H   H2305     1.0  0.59874  0.74100  0.74927  1.0000
  H   H2306     1.0  0.59752  0.69989  0.74893  1.0000
  H   H2307     1.0  0.51871  0.50355  0.82210  1.0000
  C   C2879     1.0  0.37169  0.00271  0.86296  1.0000
  C   C2880     1.0  0.45523  0.00260  0.87967  1.0000
  C   C2881     1.0  0.81719  0.10889  0.15152  1.0000
  C   C2882     1.0  0.96205  0.40918  0.23416  1.0000
  C   C2883     1.0  0.72432  0.06233  0.20213  1.0000
  S   S386      1.0  0.70059  0.07809  0.12637  1.0000
  P   P98       1.0  0.94501  0.12018  0.00325  1.0000
  H   H2308     1.0  0.96215  0.13801  0.16077  1.0000
  C   C2884     1.0  0.95679  0.11939  0.21038  1.0000
  H   H2309     1.0  0.71891  0.49049  0.21242  1.0000
  H   H2310     1.0  0.71774  0.03887  0.11915  1.0000
  C   C2885     1.0  0.85225  0.13005  0.19312  1.0000
  C   C2886     1.0  0.83068  0.11944  0.20510  1.0000
  C   C2887     1.0  0.94391  0.07851  0.02642  1.0000
  Fe  Fe192     1.0  0.97058  0.20735  0.07944  1.0000
  S   S387      1.0  0.96217  0.33561  0.16247  1.0000
  H   H2311     1.0  0.92954  0.06963  0.02254  1.0000
  C   C2888     1.0  0.85362  0.13229  0.13155  1.0000
  H   H2312     1.0  0.84917  0.04678  0.22959  1.0000
  H   H2313     1.0  0.92259  0.37322  0.17414  1.0000
  S   S388      1.0  0.95227  0.28437  0.14070  1.0000
  C   C2889     1.0  0.95839  0.24158  0.10955  1.0000
  H   H2314     1.0  0.69172  0.04460  0.04319  1.0000
  C   C2890     1.0  0.93155  0.12337  0.15395  1.0000
  H   H2315     1.0  0.94100  0.11991  0.14260  1.0000
  C   C2891     1.0  0.95339  0.35697  0.24490  1.0000
  H   H2316     1.0  0.68973  0.49353  0.09233  1.0000
  H   H2317     1.0  0.94057  0.10651  0.21742  1.0000
  Fe  Fe193     1.0  0.78324  0.04280  0.05899  1.0000
  S   S389      1.0  0.79991  0.03337  0.07990  1.0000
  S   S390      1.0  0.76175  0.06834  0.05822  1.0000
  Fe  Fe194     1.0  0.83127  0.03882  0.05838  1.0000
  S   S391      1.0  0.86824  0.05611  0.05752  1.0000
  H   H2318     1.0  0.97420  0.06676  0.05526  1.0000
  S   S392      1.0  0.81525  0.05082  0.03752  1.0000
  H   H2319     1.0  0.97339  0.47610  0.15468  1.0000
  H   H2320     1.0  0.98123  0.20482  0.12154  1.0000
  S   S393      1.0  0.94857  0.17960  0.10327  1.0000
  C   C2892     1.0  0.89697  0.13552  0.22957  1.0000
  H   H2321     1.0  0.85688  0.06461  0.00498  1.0000
  S   S394      1.0  0.96559  0.14034  0.08605  1.0000
  Fe  Fe195     1.0  0.93742  0.15806  0.08600  1.0000
  S   S395      1.0  0.89957  0.13938  0.09086  1.0000
  H   H2322     1.0  0.91856  0.35289  0.24287  1.0000
  S   S396      1.0  0.95682  0.18734  0.06220  1.0000
  C   C2893     1.0  0.87655  0.08003  0.06617  1.0000
  C   C2894     1.0  0.89990  0.08894  0.06507  1.0000
  C   C2895     1.0  0.90720  0.10736  0.07232  1.0000
  C   C2896     1.0  0.89115  0.11693  0.08090  1.0000
  C   C2897     1.0  0.86779  0.10814  0.08193  1.0000
  C   C2898     1.0  0.86052  0.08989  0.07448  1.0000
  H   H2323     1.0  0.91242  0.08147  0.05865  1.0000
  H   H2324     1.0  0.92524  0.11396  0.07141  1.0000
  H   H2325     1.0  0.85524  0.11538  0.08857  1.0000
  H   H2326     1.0  0.84248  0.08317  0.07544  1.0000
  C   C2899     1.0  0.97131  0.30748  0.21371  1.0000
  C   C2900     1.0  0.95167  0.29712  0.20936  1.0000
  C   C2901     1.0  0.93266  0.28116  0.22216  1.0000
  Fe  Fe196     1.0  0.97568  0.31705  0.14339  1.0000
  H   H2327     1.0  0.82223  0.12268  0.12444  1.0000
  S   S397      1.0  0.77009  0.00578  0.05764  1.0000
  H   H2328     1.0  0.95115  0.30132  0.19620  1.0000
  H   H2329     1.0  0.91739  0.27325  0.21886  1.0000
  C   C2902     1.0  0.71542  0.03689  0.23079  1.0000
  H   H2330     1.0  0.99254  0.37458  0.19660  1.0000
  H   H2331     1.0  0.79436  0.01721  0.21694  1.0000
  C   C2903     1.0  0.97082  0.29024  0.10615  1.0000
  H   H2332     1.0  0.94198  0.20396  0.02392  1.0000
  C   C2904     1.0  0.96023  0.27447  0.12238  1.0000
  C   C2905     1.0  0.95392  0.25018  0.12397  1.0000
  C   C2906     1.0  0.97696  0.24677  0.02131  1.0000
  H   H2333     1.0  0.98228  0.46933  0.22060  1.0000
  H   H2334     1.0  0.85781  0.08905  0.21481  1.0000
  H   H2335     1.0  0.94778  0.34283  0.21518  1.0000
  C   C2907     1.0  0.95099  0.38029  0.21081  1.0000
  C   C2908     1.0  0.82771  0.10671  0.16480  1.0000
  C   C2909     1.0  0.70518  0.04777  0.19933  1.0000
  H   H2336     1.0  0.70116  0.05206  0.18723  1.0000
  H   H2337     1.0  0.73502  0.07791  0.19215  1.0000
  C   C2910     1.0  0.71876  0.07486  0.10814  1.0000
  C   C2911     1.0  0.72718  0.09395  0.09346  1.0000
  C   C2912     1.0  0.74043  0.09168  0.07832  1.0000
  C   C2913     1.0  0.74606  0.07055  0.07785  1.0000
  C   C2914     1.0  0.73831  0.05157  0.09268  1.0000
  C   C2915     1.0  0.72436  0.05363  0.10781  1.0000
  H   H2338     1.0  0.72290  0.11036  0.09366  1.0000
  H   H2339     1.0  0.74636  0.10635  0.06690  1.0000
  H   H2340     1.0  0.74256  0.03520  0.09231  1.0000
  H   H2341     1.0  0.92864  0.33824  0.19265  1.0000
  C   C2916     1.0  0.94353  0.13357  0.16419  1.0000
  H   H2342     1.0  0.89760  0.11527  0.02332  1.0000
  H   H2343     1.0  0.80512  0.12300  0.22578  1.0000
  C   C2917     1.0  0.94399  0.14702  0.00943  1.0000
  S   S398      1.0  0.75217  0.07640  0.22178  1.0000
  Fe  Fe197     1.0  0.98574  0.17079  0.06301  1.0000
  Fe  Fe198     1.0  0.66226  0.01637  0.18322  1.0000
  C   C2918     1.0  0.94251  0.18816  0.01983  1.0000
  C   C2919     1.0  0.93288  0.16600  0.03168  1.0000
  H   H2344     1.0  0.98698  0.31005  0.23416  1.0000
  C   C2920     1.0  0.93645  0.39721  0.18759  1.0000
  C   C2921     1.0  0.68751  0.06617  0.06044  1.0000
  H   H2345     1.0  0.81740  0.09663  0.17761  1.0000
  H   H2346     1.0  0.94081  0.14582  0.18676  1.0000
  S   S399      1.0  0.80050  0.06721  0.24053  1.0000
  Fe  Fe199     1.0  0.98498  0.36918  0.14333  1.0000
  H   H2347     1.0  0.92477  0.16451  0.04493  1.0000
  H   H2348     1.0  0.95487  0.22469  0.18494  1.0000
  C   C2922     1.0  0.90752  0.13209  0.18335  1.0000
  C   C2923     1.0  0.89535  0.12272  0.17277  1.0000
  C   C2924     1.0  0.86357  0.15362  0.19149  1.0000
  H   H2349     1.0  0.98960  0.15798  0.23486  1.0000
  C   C2925     1.0  0.97485  0.28159  0.09165  1.0000
  H   H2350     1.0  0.89858  0.13466  0.19516  1.0000
  C   C2926     1.0  0.92847  0.18952  0.23263  1.0000
  H   H2351     1.0  0.89967  0.15276  0.22105  1.0000
  H   H2352     1.0  0.67708  0.04752  0.10358  1.0000
  H   H2353     1.0  0.95331  0.22287  0.11101  1.0000
  H   H2354     1.0  0.73300  0.48991  0.10407  1.0000
  C   C2927     1.0  0.75563  0.01837  0.13190  1.0000
  C   C2928     1.0  0.85556  0.07618  0.20759  1.0000
  C   C2929     1.0  0.97563  0.43178  0.22410  1.0000
  C   C2930     1.0  0.76329  0.01504  0.14673  1.0000
  C   C2931     1.0  0.85047  0.04230  0.18936  1.0000
  C   C2932     1.0  0.68004  0.04666  0.09043  1.0000
  P   P99       1.0  0.86428  0.11413  0.17905  1.0000
  C   C2933     1.0  0.97176  0.11367  0.19773  1.0000
  H   H2355     1.0  0.76840  0.49447  0.12383  1.0000
  H   H2356     1.0  0.95837  0.18453  0.19469  1.0000
  C   C2934     1.0  0.97217  0.45195  0.22876  1.0000
  H   H2357     1.0  0.73191  0.00375  0.11894  1.0000
  C   C2935     1.0  0.85097  0.05228  0.21597  1.0000
  C   C2936     1.0  0.94747  0.21476  0.19826  1.0000
  Fe  Fe200     1.0  0.97885  0.16465  0.10103  1.0000
  H   H2358     1.0  0.84845  0.02915  0.18235  1.0000
  C   C2937     1.0  0.86404  0.13096  0.14491  1.0000
  H   H2359     1.0  0.82643  0.16373  0.22397  1.0000
  C   C2938     1.0  0.79832  0.00784  0.19307  1.0000
  C   C2939     1.0  0.94684  0.39985  0.20067  1.0000
  C   C2940     1.0  0.93393  0.14558  0.02656  1.0000
  C   C2941     1.0  0.89685  0.10448  0.01453  1.0000
  H   H2360     1.0  0.86370  0.14174  0.11857  1.0000
  S   S400      1.0  0.98852  0.15417  0.12568  1.0000
  H   H2361     1.0  0.92698  0.12861  0.03605  1.0000
  H   H2362     1.0  0.68348  0.08357  0.08057  1.0000
  P   P100      1.0  0.96554  0.38346  0.22717  1.0000
  Fe  Fe201     1.0  0.67807  0.04479  0.14608  1.0000
  C   C2942     1.0  0.97865  0.46003  0.15686  1.0000
  C   C2943     1.0  0.91808  0.24406  0.08290  1.0000
  C   C2944     1.0  0.91500  0.22461  0.07618  1.0000
  C   C2945     1.0  0.90032  0.20278  0.08640  1.0000
  C   C2946     1.0  0.88885  0.20034  0.10337  1.0000
  C   C2947     1.0  0.89173  0.21984  0.11022  1.0000
  C   C2948     1.0  0.90669  0.24168  0.09986  1.0000
  P   P101      1.0  0.87841  0.21613  0.13258  1.0000
  C   C2949     1.0  0.89684  0.20642  0.14500  1.0000
  C   C2950     1.0  0.87482  0.24413  0.13551  1.0000
  C   C2951     1.0  0.85349  0.24904  0.13693  1.0000
  C   C2952     1.0  0.85101  0.27074  0.13931  1.0000
  C   C2953     1.0  0.86979  0.28768  0.14025  1.0000
  C   C2954     1.0  0.89108  0.28297  0.13875  1.0000
  C   C2955     1.0  0.89358  0.26134  0.13637  1.0000
  C   C2956     1.0  0.89755  0.21287  0.16018  1.0000
  C   C2957     1.0  0.91285  0.20660  0.16920  1.0000
  C   C2958     1.0  0.92737  0.19360  0.16325  1.0000
  C   C2959     1.0  0.92624  0.18644  0.14848  1.0000
  C   C2960     1.0  0.91091  0.19266  0.13945  1.0000
  C   C2961     1.0  0.85062  0.19448  0.13989  1.0000
  C   C2962     1.0  0.84221  0.18096  0.15703  1.0000
  C   C2963     1.0  0.82051  0.16455  0.16288  1.0000
  C   C2964     1.0  0.80692  0.16169  0.15168  1.0000
  C   C2965     1.0  0.81505  0.17524  0.13461  1.0000
  C   C2966     1.0  0.83677  0.19167  0.12874  1.0000
  H   H2363     1.0  0.93014  0.26078  0.07516  1.0000
  H   H2364     1.0  0.92451  0.22634  0.06322  1.0000
  H   H2365     1.0  0.89826  0.18761  0.08126  1.0000
  H   H2366     1.0  0.87818  0.18312  0.11122  1.0000
  H   H2367     1.0  0.91023  0.25684  0.10485  1.0000
  H   H2368     1.0  0.83874  0.23623  0.13620  1.0000
  H   H2369     1.0  0.83451  0.27445  0.14045  1.0000
  H   H2370     1.0  0.86790  0.30448  0.14212  1.0000
  H   H2371     1.0  0.90578  0.29602  0.13944  1.0000
  H   H2372     1.0  0.91025  0.25808  0.13516  1.0000
  H   H2373     1.0  0.88666  0.22321  0.16489  1.0000
  H   H2374     1.0  0.91369  0.21227  0.18061  1.0000
  H   H2375     1.0  0.93969  0.18931  0.16994  1.0000
  H   H2376     1.0  0.93767  0.17658  0.14373  1.0000
  H   H2377     1.0  0.91059  0.18727  0.12791  1.0000
  H   H2378     1.0  0.85226  0.18326  0.16596  1.0000
  H   H2379     1.0  0.81417  0.15410  0.17613  1.0000
  H   H2380     1.0  0.79008  0.14898  0.15624  1.0000
  H   H2381     1.0  0.80445  0.17307  0.12595  1.0000
  H   H2382     1.0  0.84264  0.20230  0.11555  1.0000
  C   C2967     1.0  0.68346  0.06703  0.07744  1.0000
  H   H2383     1.0  0.76303  0.00885  0.00740  1.0000
  P   P102      1.0  0.78441  0.03899  0.14930  1.0000
  C   C2968     1.0  0.83343  0.15462  0.21507  1.0000
  C   C2969     1.0  0.77294  0.06378  0.14418  1.0000
  C   C2970     1.0  0.78301  0.08138  0.12857  1.0000
  C   C2971     1.0  0.77252  0.09908  0.12382  1.0000
  C   C2972     1.0  0.75190  0.09927  0.13454  1.0000
  C   C2973     1.0  0.74163  0.08165  0.14995  1.0000
  C   C2974     1.0  0.75193  0.06380  0.15468  1.0000
  C   C2975     1.0  0.96268  0.14168  0.21350  1.0000
  C   C2976     1.0  0.93367  0.27494  0.23914  1.0000
  H   H2384     1.0  0.98155  0.13245  0.01948  1.0000
  H   H2385     1.0  0.93434  0.24262  0.20537  1.0000
  C   C2977     1.0  0.85129  0.11749  0.16157  1.0000
  C   C2978     1.0  0.81260  0.04508  0.13485  1.0000
  C   C2979     1.0  0.81574  0.03642  0.12040  1.0000
  C   C2980     1.0  0.83773  0.04143  0.10935  1.0000
  C   C2981     1.0  0.85665  0.05549  0.11248  1.0000
  C   C2982     1.0  0.85362  0.06458  0.12665  1.0000
  C   C2983     1.0  0.83170  0.05926  0.13787  1.0000
  H   H2386     1.0  0.86348  0.18373  0.20164  1.0000
  H   H2387     1.0  0.79849  0.08106  0.11974  1.0000
  H   H2388     1.0  0.77985  0.11210  0.11150  1.0000
  H   H2389     1.0  0.74323  0.11237  0.13055  1.0000
  H   H2390     1.0  0.72507  0.08121  0.15783  1.0000
  H   H2391     1.0  0.74311  0.04959  0.16625  1.0000
  H   H2392     1.0  0.76321  0.03453  0.12162  1.0000
  H   H2393     1.0  0.79892  0.10089  0.15418  1.0000
  H   H2394     1.0  0.87954  0.16256  0.18169  1.0000
  C   C2984     1.0  0.85482  0.06617  0.18097  1.0000
  C   C2985     1.0  0.72918  0.02234  0.03982  1.0000
  C   C2986     1.0  0.85711  0.08325  0.19009  1.0000
  C   C2987     1.0  0.78557  0.04149  0.19815  1.0000
  H   H2395     1.0  0.87357  0.05982  0.10364  1.0000
  H   H2396     1.0  0.86824  0.07604  0.12875  1.0000
  H   H2397     1.0  0.82959  0.06639  0.14880  1.0000
  C   C2988     1.0  0.87508  0.11956  0.23478  1.0000
  C   C2989     1.0  0.85437  0.16575  0.20261  1.0000
  C   C2990     1.0  0.78787  0.03284  0.17070  1.0000
  C   C2991     1.0  0.94961  0.19198  0.20394  1.0000
  C   C2992     1.0  0.83022  0.12133  0.13483  1.0000
  C   C2993     1.0  0.68589  0.02459  0.06937  1.0000
  C   C2994     1.0  0.93150  0.13791  0.17887  1.0000
  H   H2398     1.0  0.95213  0.41730  0.20241  1.0000
  H   H2399     1.0  0.98226  0.29381  0.07909  1.0000
  C   C2995     1.0  0.94060  0.17935  0.22132  1.0000
  C   C2996     1.0  0.69605  0.02275  0.22812  1.0000
  C   C2997     1.0  0.95493  0.10272  0.01903  1.0000
  H   H2400     1.0  0.96704  0.09659  0.19523  1.0000
  C   C2998     1.0  0.93583  0.22489  0.20973  1.0000
  H   H2401     1.0  0.82104  0.10164  0.20613  1.0000
  H   H2402     1.0  0.77684  0.06220  0.17762  1.0000
  C   C2999     1.0  0.91483  0.12935  0.23572  1.0000
  C   C3000     1.0  0.82144  0.13160  0.21615  1.0000
  H   H2403     1.0  0.88199  0.14037  0.14208  1.0000
  H   H2404     1.0  0.98900  0.17487  0.20635  1.0000
  C   C3001     1.0  0.95334  0.28533  0.24336  1.0000
  C   C3002     1.0  0.91687  0.10370  0.00319  1.0000
  S   S401      1.0  0.70139  0.50226  0.12793  1.0000
  H   H2405     1.0  0.98499  0.20108  0.15091  1.0000
  S   S402      1.0  0.97518  0.24672  0.07501  1.0000
  C   C3003     1.0  0.90754  0.11767  0.15832  1.0000
  H   H2406     1.0  0.85660  0.07128  0.16737  1.0000
  C   C3004     1.0  0.72931  0.05703  0.21795  1.0000
  C   C3005     1.0  0.68846  0.04497  0.05643  1.0000
  H   H2407     1.0  0.89860  0.10909  0.15049  1.0000
  H   H2408     1.0  0.72957  0.03637  0.04608  1.0000
  C   C3006     1.0  0.78292  0.04702  0.18162  1.0000
  H   H2409     1.0  0.86471  0.00908  0.07500  1.0000
  H   H2410     1.0  0.71904  0.03268  0.24302  1.0000
  H   H2411     1.0  0.84008  0.03482  0.09813  1.0000
  C   C3007     1.0  0.79294  0.02175  0.20396  1.0000
  H   H2412     1.0  0.98990  0.21091  0.21829  1.0000
  C   C3008     1.0  0.69079  0.02815  0.21247  1.0000
  S   S403      1.0  0.66568  0.01052  0.21004  1.0000
  C   C3009     1.0  0.97410  0.44404  0.14708  1.0000
  H   H2413     1.0  0.69043  0.08207  0.05036  1.0000
  C   C3010     1.0  0.84837  0.03533  0.20688  1.0000
  C   C3011     1.0  0.68128  0.02549  0.08648  1.0000
  H   H2414     1.0  0.94210  0.04700  0.04521  1.0000
  H   H2415     1.0  0.78145  0.05221  0.20666  1.0000
  H   H2416     1.0  0.94566  0.23799  0.13645  1.0000
  H   H2417     1.0  0.98850  0.43388  0.21236  1.0000
  H   H2418     1.0  0.95330  0.26211  0.01047  1.0000
  C   C3012     1.0  0.94435  0.35809  0.20777  1.0000
  H   H2419     1.0  0.91720  0.22007  0.23581  1.0000
  C   C3013     1.0  0.93363  0.35545  0.19489  1.0000
  C   C3014     1.0  0.97191  0.30192  0.23076  1.0000
  C   C3015     1.0  0.92623  0.21221  0.22688  1.0000
  C   C3016     1.0  0.96915  0.25720  0.09334  1.0000
  C   C3017     1.0  0.98032  0.42281  0.15013  1.0000
  P   P103      1.0  0.94316  0.14989  0.22926  1.0000
  C   C3018     1.0  0.98002  0.10073  0.03774  1.0000
  C   C3019     1.0  0.92998  0.37507  0.18462  1.0000
  C   C3020     1.0  0.79632  0.01370  0.17639  1.0000
  H   H2420     1.0  0.93409  0.41252  0.17938  1.0000
  S   S404      1.0  0.68872  0.01501  0.16052  1.0000
  H   H2421     1.0  0.68492  0.00775  0.23825  1.0000
  C   C3021     1.0  0.97305  0.11371  0.02478  1.0000
  H   H2422     1.0  0.73223  0.50153  0.23641  1.0000
  H   H2423     1.0  0.80131  0.02585  0.11761  1.0000
  H   H2424     1.0  0.97530  0.30907  0.10473  1.0000
  H   H2425     1.0  0.86110  0.12466  0.23055  1.0000
  C   C3022     1.0  0.95368  0.16939  0.99755  1.0000
  H   H2426     1.0  0.97833  0.25929  0.20361  1.0000
  H   H2427     1.0  0.96551  0.44800  0.13726  1.0000
  C   C3023     1.0  0.95095  0.06556  0.03937  1.0000
  C   C3024     1.0  0.96897  0.25675  0.00780  1.0000
  H   H2428     1.0  0.84448  0.01677  0.21354  1.0000
  C   C3025     1.0  0.95522  0.44974  0.24357  1.0000
  C   C3026     1.0  0.96896  0.07668  0.04506  1.0000
  H   H2429     1.0  0.76168  0.04123  0.02129  1.0000
  H   H2430     1.0  0.89606  0.01412  0.08911  1.0000
  S   S405      1.0  0.97363  0.40268  0.13805  1.0000
  H   H2431     1.0  0.96755  0.24429  0.03447  1.0000
  H   H2432     1.0  0.86007  0.09085  0.02415  1.0000
  C   C3027     1.0  0.99279  0.12999  0.18826  1.0000
  C   C3028     1.0  0.98398  0.15774  0.20405  1.0000
  C   C3029     1.0  0.74759  0.02514  0.02576  1.0000
  Fe  Fe202     1.0  0.80340  0.01251  0.03805  1.0000
  Fe  Fe203     1.0  0.99358  0.33365  0.17115  1.0000
  C   C3030     1.0  0.87534  0.09056  0.01505  1.0000
  C   C3031     1.0  0.87357  0.07568  0.00433  1.0000
  C   C3032     1.0  0.99125  0.41781  0.16297  1.0000
  C   C3033     1.0  0.98976  0.45507  0.16957  1.0000
  H   H2433     1.0  0.77540  0.47899  0.15183  1.0000
  C   C3034     1.0  0.99353  0.21400  0.24293  1.0000
  C   C3035     1.0  0.95301  0.18988  0.00279  1.0000
  C   C3036     1.0  0.77467  0.49709  0.14799  1.0000
  C   C3037     1.0  0.74844  0.00681  0.01803  1.0000
  H   H2434     1.0  0.67882  0.01003  0.09683  1.0000
  H   H2435     1.0  0.99373  0.10955  0.04230  1.0000
  Fe  Fe204     1.0  0.76270  0.06245  0.24546  1.0000
  H   H2436     1.0  0.92058  0.17990  0.24591  1.0000
  S   S406      1.0  0.66154  0.50222  0.17123  1.0000
  H   H2437     1.0  0.82363  0.01582  0.40591  1.0000
  H   H2438     1.0  0.87577  0.29431  0.44010  1.0000
  H   H2439     1.0  0.88098  0.34365  0.45849  1.0000
  H   H2440     1.0  0.97616  0.22563  0.32046  1.0000
  H   H2441     1.0  0.91943  0.14261  0.26551  1.0000
  S   S407      1.0  0.69327  0.06524  0.36685  1.0000
  C   C3038     1.0  0.67737  0.03551  0.29255  1.0000
  H   H2442     1.0  0.71226  0.09427  0.44086  1.0000
  H   H2443     1.0  0.66180  0.02210  0.48515  1.0000
  C   C3039     1.0  0.94839  0.25008  0.43566  1.0000
  C   C3040     1.0  0.95408  0.48773  0.34133  1.0000
  C   C3041     1.0  0.92131  0.24377  0.39794  1.0000
  H   H2444     1.0  0.89351  0.19929  0.42957  1.0000
  C   C3042     1.0  0.83961  0.22524  0.47204  1.0000
  H   H2445     1.0  0.70860  0.05004  0.27195  1.0000
  Fe  Fe205     1.0  0.75440  0.03967  0.28347  1.0000
  S   S408      1.0  0.75996  0.07709  0.26829  1.0000
  C   C3043     1.0  0.90773  0.21600  0.38276  1.0000
  C   C3044     1.0  0.97742  0.48044  0.37953  1.0000
  Fe  Fe206     1.0  0.79758  0.07957  0.26431  1.0000
  S   S409      1.0  0.82178  0.11558  0.26087  1.0000
  C   C3045     1.0  0.70101  0.01863  0.33894  1.0000
  C   C3046     1.0  0.99146  0.44295  0.32565  1.0000
  S   S410      1.0  0.79194  0.04299  0.28114  1.0000
  Fe  Fe207     1.0  0.92187  0.23349  0.27585  1.0000
  S   S411      1.0  0.93268  0.20148  0.27189  1.0000
  C   C3047     1.0  0.94477  0.26389  0.33696  1.0000
  Fe  Fe208     1.0  0.92799  0.22633  0.31159  1.0000
  S   S412      1.0  0.93898  0.19336  0.31068  1.0000
  S   S413      1.0  0.92366  0.24010  0.33512  1.0000
  S   S414      1.0  0.75341  0.02475  0.26092  1.0000
  Fe  Fe209     1.0  0.91034  0.18350  0.29858  1.0000
  S   S415      1.0  0.88737  0.14566  0.30644  1.0000
  S   S416      1.0  0.89740  0.21470  0.30178  1.0000
  C   C3048     1.0  0.97703  0.48824  0.33450  1.0000
  S   S417      1.0  0.91863  0.29572  0.41835  1.0000
  C   C3049     1.0  0.89658  0.29300  0.47484  1.0000
  C   C3050     1.0  0.88110  0.29379  0.46490  1.0000
  C   C3051     1.0  0.88789  0.29399  0.44768  1.0000
  C   C3052     1.0  0.91049  0.29450  0.44014  1.0000
  C   C3053     1.0  0.92610  0.29393  0.45005  1.0000
  C   C3054     1.0  0.91899  0.29267  0.46751  1.0000
  C   C3055     1.0  0.94791  0.45216  0.40362  1.0000
  C   C3056     1.0  0.86473  0.08920  0.40358  1.0000
  H   H2446     1.0  0.94354  0.29416  0.44439  1.0000
  C   C3057     1.0  0.94592  0.20656  0.45703  1.0000
  C   C3058     1.0  0.94038  0.27198  0.35161  1.0000
  H   H2447     1.0  0.92374  0.26487  0.36084  1.0000
  C   C3059     1.0  0.89584  0.17336  0.48570  1.0000
  C   C3060     1.0  0.84057  0.12301  0.27338  1.0000
  C   C3061     1.0  0.85501  0.14620  0.26871  1.0000
  C   C3062     1.0  0.86961  0.15323  0.27861  1.0000
  C   C3063     1.0  0.86993  0.13710  0.29330  1.0000
  C   C3064     1.0  0.85589  0.11374  0.29776  1.0000
  C   C3065     1.0  0.84123  0.10669  0.28786  1.0000
  C   C3066     1.0  0.98319  0.29127  0.32759  1.0000
  H   H2448     1.0  0.88036  0.17125  0.27502  1.0000
  H   H2449     1.0  0.85630  0.10110  0.30894  1.0000
  H   H2450     1.0  0.83032  0.08878  0.29146  1.0000
  H   H2451     1.0  0.96961  0.13194  0.40376  1.0000
  H   H2452     1.0  0.89267  0.22933  0.47790  1.0000
  H   H2453     1.0  0.91838  0.25656  0.40494  1.0000
  C   C3067     1.0  0.85551  0.19596  0.46169  1.0000
  C   C3068     1.0  0.95737  0.28918  0.35450  1.0000
  C   C3069     1.0  0.79630  0.00796  0.39399  1.0000
  H   H2454     1.0  0.98651  0.45580  0.31711  1.0000
  S   S418      1.0  0.98771  0.39795  0.39555  1.0000
  H   H2455     1.0  0.95374  0.29500  0.36597  1.0000
  H   H2456     1.0  0.95387  0.13099  0.43406  1.0000
  H   H2457     1.0  0.68063  0.01758  0.36373  1.0000
  H   H2458     1.0  0.92405  0.10182  0.25187  1.0000
  H   H2459     1.0  0.86373  0.29389  0.47060  1.0000
  C   C3070     1.0  0.96421  0.45958  0.48794  1.0000
  H   H2460     1.0  0.88741  0.23622  0.39434  1.0000
  H   H2461     1.0  0.97607  0.21453  0.24748  1.0000
  C   C3071     1.0  0.70254  0.05257  0.35034  1.0000
  C   C3072     1.0  0.71902  0.06667  0.33515  1.0000
  C   C3073     1.0  0.72669  0.05665  0.32193  1.0000
  C   C3074     1.0  0.71778  0.03251  0.32391  1.0000
  H   H2462     1.0  0.95415  0.28099  0.25640  1.0000
  C   C3075     1.0  0.69347  0.02855  0.35215  1.0000
  H   H2463     1.0  0.72569  0.08536  0.33361  1.0000
  H   H2464     1.0  0.73945  0.06751  0.31026  1.0000
  C   C3076     1.0  0.94170  0.42731  0.25371  1.0000
  H   H2465     1.0  0.92841  0.42560  0.26510  1.0000
  H   H2466     1.0  0.82960  0.16789  0.29969  1.0000
  C   C3077     1.0  0.67055  0.04201  0.45873  1.0000
  C   C3078     1.0  0.70125  0.07848  0.45051  1.0000
  C   C3079     1.0  0.89275  0.14373  0.42668  1.0000
  C   C3080     1.0  0.96369  0.47448  0.39637  1.0000
  H   H2467     1.0  0.84002  0.10312  0.49190  1.0000
  C   C3081     1.0  0.96835  0.24536  0.43880  1.0000
  S   S419      1.0  0.91041  0.25406  0.25496  1.0000
  H   H2468     1.0  0.95712  0.42906  0.36973  1.0000
  C   C3082     1.0  0.94499  0.40708  0.24900  1.0000
  C   C3083     1.0  0.74663  0.01508  0.45839  1.0000
  H   H2469     1.0  0.69081  0.05053  0.49263  1.0000
  C   C3084     1.0  0.92712  0.23333  0.44338  1.0000
  C   C3085     1.0  0.98559  0.31874  0.46322  1.0000
  C   C3086     1.0  0.94574  0.43587  0.39395  1.0000
  Fe  Fe210     1.0  0.79108  0.03044  0.25758  1.0000
  C   C3087     1.0  0.67276  0.03785  0.47545  1.0000
  H   H2470     1.0  0.97825  0.16850  0.38086  1.0000
  H   H2471     1.0  0.98589  0.30713  0.45489  1.0000
  S   S420      1.0  0.80891  0.00505  0.24790  1.0000
  C   C3088     1.0  0.97536  0.46419  0.36972  1.0000
  H   H2472     1.0  0.76585  0.16035  0.41426  1.0000
  C   C3089     1.0  0.92906  0.21117  0.37957  1.0000
  C   C3090     1.0  0.95914  0.44195  0.37698  1.0000
  C   C3091     1.0  0.97210  0.41715  0.44907  1.0000
  H   H2473     1.0  0.68331  0.06556  0.43327  1.0000
  C   C3092     1.0  0.93322  0.36382  0.42911  1.0000
  C   C3093     1.0  0.83765  0.20664  0.46438  1.0000
  H   H2474     1.0  0.98999  0.41923  0.30953  1.0000
  H   H2475     1.0  0.90444  0.44415  0.38420  1.0000
  H   H2476     1.0  0.98566  0.35491  0.25036  1.0000
  H   H2477     1.0  0.68849  0.05880  0.24963  1.0000
  H   H2478     1.0  0.89170  0.13318  0.41770  1.0000
  C   C3094     1.0  0.89218  0.16721  0.42199  1.0000
  C   C3095     1.0  0.83453  0.11864  0.46783  1.0000
  H   H2479     1.0  0.93165  0.19832  0.37256  1.0000
  H   H2480     1.0  0.90485  0.35244  0.47753  1.0000
  H   H2481     1.0  0.67703  0.08679  0.33410  1.0000
  H   H2482     1.0  0.86607  0.14558  0.48715  1.0000
  C   C3096     1.0  0.89562  0.17132  0.44983  1.0000
  C   C3097     1.0  0.93703  0.36533  0.45740  1.0000
  C   C3098     1.0  0.89893  0.45947  0.37929  1.0000
  Fe  Fe211     1.0  0.99354  0.32658  0.37234  1.0000
  S   S421      1.0  0.72412  0.09485  0.47225  1.0000
  P   P104      1.0  0.95517  0.37105  0.47129  1.0000
  C   C3099     1.0  0.97404  0.40099  0.46326  1.0000
  C   C3100     1.0  0.89937  0.35129  0.45319  1.0000
  C   C3101     1.0  0.80625  0.00545  0.40759  1.0000
  H   H2483     1.0  0.83993  0.13654  0.46881  1.0000
  H   H2484     1.0  0.92687  0.29847  0.28162  1.0000
  H   H2485     1.0  0.94496  0.47823  0.35446  1.0000
  H   H2486     1.0  0.89891  0.34978  0.42761  1.0000
  H   H2487     1.0  0.96213  0.33457  0.45321  1.0000
  C   C3102     1.0  0.89662  0.14781  0.45434  1.0000
  H   H2488     1.0  0.98255  0.22020  0.45227  1.0000
  C   C3103     1.0  0.90612  0.48035  0.38384  1.0000
  C   C3104     1.0  0.97695  0.15449  0.24691  1.0000
  H   H2489     1.0  0.77294  0.11893  0.29278  1.0000
  H   H2490     1.0  0.96847  0.31842  0.27394  1.0000
  C   C3105     1.0  0.67867  0.05061  0.26288  1.0000
  H   H2491     1.0  0.96990  0.26768  0.31349  1.0000
  P   P105      1.0  0.89823  0.18974  0.46422  1.0000
  C   C3106     1.0  0.98744  0.43982  0.44267  1.0000
  C   C3107     1.0  0.80128  0.14531  0.29459  1.0000
  H   H2492     1.0  0.97536  0.15454  0.28802  1.0000
  H   H2493     1.0  0.85365  0.08530  0.25044  1.0000
  C   C3108     1.0  0.94283  0.23946  0.39436  1.0000
  H   H2494     1.0  0.89901  0.14010  0.46657  1.0000
  H   H2495     1.0  0.91738  0.48108  0.39215  1.0000
  H   H2496     1.0  0.75304  0.07398  0.44926  1.0000
  C   C3109     1.0  0.89492  0.13402  0.44286  1.0000
  C   C3110     1.0  0.95785  0.14721  0.42400  1.0000
  H   H2497     1.0  0.99150  0.39716  0.48307  1.0000
  C   C3111     1.0  0.70348  0.07428  0.46726  1.0000
  H   H2498     1.0  0.80823  0.49508  0.36551  1.0000
  C   C3112     1.0  0.74087  0.03638  0.45668  1.0000
  H   H2499     1.0  0.70087  0.02267  0.43338  1.0000
  C   C3113     1.0  0.88856  0.09097  0.25211  1.0000
  C   C3114     1.0  0.78685  0.03647  0.44663  1.0000
  C   C3115     1.0  0.78128  0.05807  0.44491  1.0000
  C   C3116     1.0  0.75809  0.05783  0.45005  1.0000
  P   P106      1.0  0.80403  0.08551  0.43691  1.0000
  H   H2500     1.0  0.96545  0.37576  0.43442  1.0000
  C   C3117     1.0  0.82502  0.08263  0.41931  1.0000
  C   C3118     1.0  0.84862  0.09127  0.41741  1.0000
  C   C3119     1.0  0.87570  0.20428  0.46625  1.0000
  C   C3120     1.0  0.85737  0.07863  0.39157  1.0000
  C   C3121     1.0  0.83389  0.07011  0.39334  1.0000
  C   C3122     1.0  0.81775  0.07193  0.40723  1.0000
  H   H2501     1.0  0.93356  0.14491  0.29066  1.0000
  C   C3123     1.0  0.79260  0.10973  0.42945  1.0000
  C   C3124     1.0  0.77919  0.11808  0.44138  1.0000
  C   C3125     1.0  0.76954  0.13617  0.43590  1.0000
  C   C3126     1.0  0.77349  0.14641  0.41844  1.0000
  H   H2502     1.0  0.80720  0.11456  0.40234  1.0000
  C   C3127     1.0  0.93773  0.14597  0.26411  1.0000
  P   P107      1.0  0.99193  0.47281  0.34753  1.0000
  H   H2503     1.0  0.95514  0.20389  0.41848  1.0000
  H   H2504     1.0  0.82569  0.12923  0.44444  1.0000
  H   H2505     1.0  0.80458  0.03610  0.44317  1.0000
  H   H2506     1.0  0.87937  0.44221  0.36471  1.0000
  H   H2507     1.0  0.86988  0.07719  0.38079  1.0000
  H   H2508     1.0  0.82822  0.06226  0.38387  1.0000
  H   H2509     1.0  0.79958  0.06517  0.40851  1.0000
  H   H2510     1.0  0.98987  0.49759  0.37428  1.0000
  H   H2511     1.0  0.85316  0.18091  0.45650  1.0000
  H   H2512     1.0  0.77570  0.11023  0.45500  1.0000
  H   H2513     1.0  0.75866  0.14192  0.44531  1.0000
  H   H2514     1.0  0.80461  0.15607  0.28162  1.0000
  H   H2515     1.0  0.79021  0.14655  0.39291  1.0000
  S   S422      1.0  0.72703  0.01882  0.30803  1.0000
  C   C3128     1.0  0.79675  0.12031  0.41189  1.0000
  C   C3129     1.0  0.73360  0.10981  0.37453  1.0000
  C   C3130     1.0  0.73414  0.10260  0.39152  1.0000
  C   C3131     1.0  0.75230  0.09427  0.39527  1.0000
  C   C3132     1.0  0.76990  0.09314  0.38202  1.0000
  C   C3133     1.0  0.76964  0.10068  0.36488  1.0000
  C   C3134     1.0  0.75120  0.10877  0.36125  1.0000
  P   P108      1.0  0.79065  0.09605  0.34812  1.0000
  C   C3135     1.0  0.79406  0.11620  0.32760  1.0000
  C   C3136     1.0  0.81844  0.10201  0.35238  1.0000
  C   C3137     1.0  0.82474  0.11995  0.36028  1.0000
  C   C3138     1.0  0.84737  0.12751  0.36109  1.0000
  C   C3139     1.0  0.86392  0.11739  0.35390  1.0000
  C   C3140     1.0  0.85771  0.09918  0.34642  1.0000
  C   C3141     1.0  0.83504  0.09141  0.34573  1.0000
  C   C3142     1.0  0.77980  0.10992  0.31732  1.0000
  C   C3143     1.0  0.78347  0.12434  0.30088  1.0000
  H   H2516     1.0  0.85467  0.15890  0.25750  1.0000
  C   C3144     1.0  0.81537  0.15193  0.30477  1.0000
  C   C3145     1.0  0.81185  0.13747  0.32118  1.0000
  C   C3146     1.0  0.78053  0.06628  0.34646  1.0000
  C   C3147     1.0  0.76070  0.05021  0.35845  1.0000
  C   C3148     1.0  0.75137  0.02833  0.35592  1.0000
  C   C3149     1.0  0.76167  0.02226  0.34146  1.0000
  C   C3150     1.0  0.78150  0.03793  0.32961  1.0000
  C   C3151     1.0  0.79082  0.05990  0.33201  1.0000
  H   H2517     1.0  0.71903  0.11533  0.37167  1.0000
  H   H2518     1.0  0.72019  0.10294  0.40179  1.0000
  H   H2519     1.0  0.75240  0.08826  0.40849  1.0000
  H   H2520     1.0  0.78339  0.08584  0.38516  1.0000
  H   H2521     1.0  0.74994  0.11356  0.34826  1.0000
  H   H2522     1.0  0.81256  0.12912  0.36487  1.0000
  H   H2523     1.0  0.85236  0.14205  0.36649  1.0000
  H   H2524     1.0  0.88174  0.12420  0.35360  1.0000
  H   H2525     1.0  0.87077  0.09201  0.34026  1.0000
  H   H2526     1.0  0.83096  0.07807  0.33917  1.0000
  H   H2527     1.0  0.76627  0.09352  0.32178  1.0000
  H   H2528     1.0  0.68647  0.03183  0.30209  1.0000
  S   S423      1.0  0.77287  0.08367  0.49081  1.0000
  C   C3152     1.0  0.78719  0.13857  0.40644  1.0000
  H   H2529     1.0  0.82354  0.14279  0.32847  1.0000
  H   H2530     1.0  0.75162  0.05481  0.36933  1.0000
  C   C3153     1.0  0.94564  0.14724  0.27849  1.0000
  H   H2531     1.0  0.94661  0.45376  0.48746  1.0000
  H   H2532     1.0  0.78908  0.03340  0.31819  1.0000
  H   H2533     1.0  0.80540  0.07234  0.32216  1.0000
  C   C3154     1.0  0.97236  0.33472  0.46214  1.0000
  H   H2534     1.0  0.89445  0.20765  0.37763  1.0000
  H   H2535     1.0  0.93408  0.41827  0.39970  1.0000
  C   C3155     1.0  0.96676  0.14777  0.40695  1.0000
  H   H2536     1.0  0.88515  0.07384  0.26104  1.0000
  C   C3156     1.0  0.95383  0.16752  0.42806  1.0000
  H   H2537     1.0  0.93094  0.29192  0.47522  1.0000
  H   H2538     1.0  0.95612  0.24862  0.39904  1.0000
  H   H2539     1.0  0.94112  0.36608  0.41569  1.0000
  C   C3157     1.0  0.70223  0.00480  0.43723  1.0000
  H   H2540     1.0  0.87968  0.48747  0.41259  1.0000
  Fe  Fe212     1.0  0.95592  0.31409  0.40550  1.0000
  C   C3158     1.0  0.68492  0.06228  0.44620  1.0000
  H   H2541     1.0  0.93780  0.44732  0.41683  1.0000
  H   H2542     1.0  0.72306  0.03627  0.46087  1.0000
  H   H2543     1.0  0.86729  0.47746  0.35307  1.0000
  C   C3159     1.0  0.98066  0.47592  0.47378  1.0000
  H   H2544     1.0  0.67437  0.05789  0.31737  1.0000
  C   C3160     1.0  0.91051  0.10688  0.24694  1.0000
  H   H2545     1.0  0.94257  0.40374  0.49118  1.0000
  Fe  Fe213     1.0  0.99091  0.36216  0.39329  1.0000
  C   C3161     1.0  0.90379  0.23216  0.39208  1.0000
  H   H2546     1.0  0.86068  0.24708  0.48342  1.0000
  Fe  Fe214     1.0  0.96035  0.21397  0.28401  1.0000
  C   C3162     1.0  0.93418  0.31501  0.27162  1.0000
  C   C3163     1.0  0.87749  0.22296  0.47393  1.0000
  C   C3164     1.0  0.85944  0.23322  0.47694  1.0000
  H   H2547     1.0  0.82193  0.19993  0.46115  1.0000
  S   S424      1.0  0.96600  0.34326  0.38135  1.0000
  C   C3165     1.0  0.68387  0.47689  0.31607  1.0000
  S   S425      1.0  0.95138  0.24762  0.28589  1.0000
  C   C3166     1.0  0.95335  0.14978  0.24811  1.0000
  C   C3167     1.0  0.82605  0.11434  0.45418  1.0000
  C   C3168     1.0  0.92019  0.32471  0.26280  1.0000
  H   H2548     1.0  0.94526  0.18978  0.46528  1.0000
  C   C3169     1.0  0.66110  0.07307  0.33692  1.0000
  H   H2549     1.0  0.96026  0.22777  0.34951  1.0000
  H   H2550     1.0  0.91189  0.23768  0.44089  1.0000
  C   C3170     1.0  0.69198  0.49854  0.30357  1.0000
  H   H2551     1.0  0.89054  0.17475  0.40945  1.0000
  C   C3171     1.0  0.68999  0.04581  0.27545  1.0000
  H   H2552     1.0  0.95890  0.41251  0.44281  1.0000
  C   C3172     1.0  0.98417  0.34785  0.48522  1.0000
  C   C3173     1.0  0.95769  0.32624  0.26721  1.0000
  H   H2553     1.0  0.88294  0.09585  0.40215  1.0000
  H   H2554     1.0  0.98924  0.44163  0.40304  1.0000
  C   C3174     1.0  0.90944  0.35479  0.43580  1.0000
  C   C3175     1.0  0.97200  0.34994  0.47279  1.0000
  C   C3176     1.0  0.89376  0.18102  0.43346  1.0000
  C   C3177     1.0  0.68925  0.05386  0.47970  1.0000
  C   C3178     1.0  0.91307  0.35631  0.46400  1.0000
  H   H2555     1.0  0.97593  0.48226  0.46223  1.0000
  H   H2556     1.0  0.72163  0.00596  0.41223  1.0000
  C   C3179     1.0  0.96623  0.27377  0.32483  1.0000
  C   C3180     1.0  0.92568  0.21154  0.45435  1.0000
  C   C3181     1.0  0.98493  0.21369  0.36013  1.0000
  C   C3182     1.0  0.96847  0.18939  0.39798  1.0000
  C   C3183     1.0  0.94696  0.36919  0.43981  1.0000
  S   S426      1.0  0.67114  0.01208  0.40807  1.0000
  C   C3184     1.0  0.96916  0.15247  0.27706  1.0000
  C   C3185     1.0  0.88484  0.45839  0.36829  1.0000
  C   C3186     1.0  0.96714  0.22359  0.44948  1.0000
  H   H2557     1.0  0.90206  0.31564  0.26598  1.0000
  C   C3187     1.0  0.76956  0.01512  0.45344  1.0000
  H   H2558     1.0  0.85457  0.09953  0.42660  1.0000
  H   H2559     1.0  0.94924  0.26701  0.42753  1.0000
  S   S427      1.0  0.98145  0.29582  0.39571  1.0000
  C   C3188     1.0  0.97887  0.29891  0.34250  1.0000
  C   C3189     1.0  0.98406  0.21993  0.33044  1.0000
  C   C3190     1.0  0.81781  0.07218  0.46662  1.0000
  H   H2560     1.0  0.89539  0.11581  0.44652  1.0000
  C   C3191     1.0  0.81706  0.09103  0.45368  1.0000
  H   H2561     1.0  0.81058  0.05401  0.46697  1.0000
  C   C3192     1.0  0.94702  0.22341  0.38490  1.0000
  S   S428      1.0  0.97860  0.33401  0.41810  1.0000
  H   H2562     1.0  0.86964  0.48312  0.44360  1.0000
  H   H2563     1.0  0.73546  0.01657  0.36475  1.0000
  C   C3193     1.0  0.99055  0.40862  0.47156  1.0000
  H   H2564     1.0  0.69508  0.46560  0.31762  1.0000
  C   C3194     1.0  0.97487  0.22087  0.34708  1.0000
  H   H2565     1.0  0.80589  0.02037  0.38172  1.0000
  P   P109      1.0  0.97430  0.21655  0.38146  1.0000
  C   C3195     1.0  0.96734  0.34703  0.25383  1.0000
  C   C3196     1.0  0.95881  0.18843  0.41511  1.0000
  Fe  Fe215     1.0  0.66427  0.03987  0.38876  1.0000
  H   H2566     1.0  0.98468  0.25875  0.43316  1.0000
  H   H2567     1.0  0.93408  0.38992  0.25687  1.0000
  C   C3197     1.0  0.92968  0.34571  0.24961  1.0000
  H   H2568     1.0  0.98610  0.45208  0.43158  1.0000
  C   C3198     1.0  0.87797  0.47824  0.36179  1.0000
  C   C3199     1.0  0.90986  0.18271  0.49523  1.0000
  C   C3200     1.0  0.82659  0.07659  0.48013  1.0000
  H   H2569     1.0  0.82578  0.06190  0.49058  1.0000
  H   H2570     1.0  0.94666  0.16705  0.44124  1.0000
  C   C3201     1.0  0.83465  0.09979  0.48086  1.0000
  H   H2571     1.0  0.82557  0.23311  0.47458  1.0000
  C   C3202     1.0  0.97193  0.16872  0.39396  1.0000
  C   C3203     1.0  0.98476  0.15584  0.26132  1.0000
  H   H2572     1.0  0.96572  0.48700  0.40393  1.0000
  C   C3204     1.0  0.93790  0.36655  0.49277  1.0000
  C   C3205     1.0  0.94262  0.49958  0.33117  1.0000
  C   C3206     1.0  0.98823  0.50069  0.31732  1.0000
  H   H2573     1.0  0.93566  0.50092  0.44619  1.0000
  H   H2574     1.0  0.95235  0.46543  0.24701  1.0000
  C   C3207     1.0  0.88508  0.49915  0.36634  1.0000
  H   H2575     1.0  0.92494  0.49914  0.33648  1.0000
  C   C3208     1.0  0.99331  0.42210  0.32129  1.0000
  C   C3209     1.0  0.88077  0.49967  0.43483  1.0000
  H   H2576     1.0  0.92215  0.19999  0.49002  1.0000
  C   C3210     1.0  0.87085  0.09734  0.24607  1.0000
  H   H2577     1.0  0.92055  0.50196  0.47600  1.0000
  C   C3211     1.0  0.89894  0.50023  0.37763  1.0000
  H   H2578     1.0  0.98292  0.35798  0.49446  1.0000
  H   H2579     1.0  0.68038  0.50060  0.47844  1.0000
  H   H2580     1.0  0.75379  0.00584  0.33902  1.0000
  C   C3212     1.0  0.87846  0.15206  0.49363  1.0000
  C   C3213     1.0  0.66125  0.46974  0.32639  1.0000
  C   C3214     1.0  0.88668  0.50218  0.41720  1.0000
  Fe  Fe216     1.0  0.73580  0.08258  0.49579  1.0000
  Fe  Fe217     1.0  0.72831  0.06598  0.53416  1.0000
  S   S429      1.0  0.76516  0.06586  0.53207  1.0000
  C   C3215     1.0  0.93494  0.38578  0.49915  1.0000
  Fe  Fe218     1.0  0.77441  0.10084  0.51219  1.0000
  H   H2581     1.0  0.96178  0.25702  0.55664  1.0000
  C   C3216     1.0  0.97900  0.48325  0.53347  1.0000
  S   S430      1.0  0.73773  0.10223  0.51574  1.0000
  S   S431      1.0  0.72352  0.04647  0.51434  1.0000
  Fe  Fe219     1.0  0.94342  0.24935  0.51424  1.0000
  S   S432      1.0  0.93778  0.28390  0.51722  1.0000
  H   H2582     1.0  0.98002  0.27161  0.52606  1.0000
  Fe  Fe220     1.0  0.89425  0.22046  0.53471  1.0000
  S   S433      1.0  0.88513  0.25280  0.54009  1.0000
  S   S434      1.0  0.86909  0.18339  0.54545  1.0000
  Fe  Fe221     1.0  0.90380  0.27027  0.51246  1.0000
  Fe  Fe222     1.0  0.92001  0.26373  0.54457  1.0000
  S   S435      1.0  0.92512  0.27941  0.56657  1.0000
  C   C3217     1.0  0.97032  0.45130  0.50285  1.0000
  S   S436      1.0  0.92762  0.22961  0.54193  1.0000
  S   S437      1.0  0.88763  0.29264  0.49636  1.0000
  H   H2583     1.0  0.97457  0.33844  0.58553  1.0000
  H   H2584     1.0  0.68145  0.00534  0.52897  1.0000
  C   C3218     1.0  0.92194  0.38187  0.51600  1.0000
  H   H2585     1.0  0.94457  0.35591  0.55785  1.0000
  H   H2586     1.0  0.90182  0.35569  0.53959  1.0000
  H   H2587     1.0  0.91755  0.17804  0.51958  1.0000
  H   H2588     1.0  0.97449  0.42632  0.55966  1.0000
  C   C3219     1.0  0.90736  0.17028  0.51204  1.0000
  C   C3220     1.0  0.95945  0.28797  0.61758  1.0000
  C   C3221     1.0  0.97519  0.49916  0.54308  1.0000
  C   C3222     1.0  0.87621  0.13950  0.51036  1.0000
  C   C3223     1.0  0.96692  0.31140  0.54797  1.0000
  C   C3224     1.0  0.94983  0.30280  0.56353  1.0000
  C   C3225     1.0  0.95277  0.31254  0.57711  1.0000
  C   C3226     1.0  0.97259  0.33082  0.57510  1.0000
  C   C3227     1.0  0.70217  0.00493  0.67100  1.0000
  H   H2589     1.0  0.96516  0.30385  0.53751  1.0000
  H   H2590     1.0  0.93963  0.30595  0.58920  1.0000
  C   C3228     1.0  0.97520  0.25157  0.56150  1.0000
  S   S438      1.0  0.80453  0.13441  0.50493  1.0000
  H   H2591     1.0  0.98780  0.40763  0.51189  1.0000
  C   C3229     1.0  0.91454  0.33961  0.52017  1.0000
  C   C3230     1.0  0.95498  0.37388  0.55135  1.0000
  C   C3231     1.0  0.71399  0.02146  0.67795  1.0000
  H   H2592     1.0  0.95044  0.38556  0.57425  1.0000
  S   S439      1.0  0.91097  0.23751  0.50670  1.0000
  C   C3232     1.0  0.72370  0.05173  0.65110  1.0000
  H   H2593     1.0  0.96962  0.48140  0.52406  1.0000
  C   C3233     1.0  0.98949  0.33960  0.55942  1.0000
  S   S440      1.0  0.69988  0.05892  0.55838  1.0000
  H   H2594     1.0  0.97463  0.22338  0.54937  1.0000
  C   C3234     1.0  0.82037  0.14819  0.51741  1.0000
  C   C3235     1.0  0.82029  0.13642  0.53386  1.0000
  C   C3236     1.0  0.83485  0.14763  0.54248  1.0000
  C   C3237     1.0  0.84957  0.17069  0.53480  1.0000
  C   C3238     1.0  0.84917  0.18260  0.51855  1.0000
  C   C3239     1.0  0.83467  0.17139  0.50998  1.0000
  H   H2595     1.0  0.80941  0.11856  0.53979  1.0000
  H   H2596     1.0  0.83498  0.13825  0.55505  1.0000
  H   H2597     1.0  0.86032  0.20031  0.51247  1.0000
  C   C3240     1.0  0.96573  0.38006  0.53383  1.0000
  C   C3241     1.0  0.70179  0.01192  0.65385  1.0000
  H   H2598     1.0  0.71202  0.04039  0.63076  1.0000
  H   H2599     1.0  0.67059  0.04717  0.59206  1.0000
  H   H2600     1.0  0.96365  0.36678  0.52688  1.0000
  C   C3242     1.0  0.98660  0.32964  0.54596  1.0000
  C   C3243     1.0  0.91183  0.35879  0.52652  1.0000
  C   C3244     1.0  0.98721  0.50235  0.55519  1.0000
  H   H2601     1.0  0.91974  0.39669  0.52096  1.0000
  H   H2602     1.0  0.67092  0.05236  0.53060  1.0000
  H   H2603     1.0  0.94100  0.28017  0.62190  1.0000
  C   C3245     1.0  0.97938  0.40314  0.52544  1.0000
  C   C3246     1.0  0.67207  0.01297  0.60542  1.0000
  C   C3247     1.0  0.97195  0.41372  0.55223  1.0000
  H   H2604     1.0  0.96558  0.26083  0.60573  1.0000
  C   C3248     1.0  0.98242  0.23256  0.55747  1.0000
  C   C3249     1.0  0.95823  0.39062  0.56056  1.0000
  H   H2605     1.0  0.95839  0.31715  0.62859  1.0000
  Fe  Fe223     1.0  0.76093  0.04895  0.51076  1.0000
  H   H2606     1.0  0.88803  0.13961  0.53287  1.0000
  H   H2607     1.0  0.73370  0.05757  0.67341  1.0000
  H   H2608     1.0  0.95714  0.43925  0.51390  1.0000
  C   C3250     1.0  0.71238  0.03524  0.64400  1.0000
  C   C3251     1.0  0.72456  0.04483  0.66805  1.0000
  H   H2609     1.0  0.86229  0.12347  0.51659  1.0000
  H   H2610     1.0  0.71550  0.01636  0.69082  1.0000
  H   H2611     1.0  0.74102  0.03142  0.72326  1.0000
  H   H2612     1.0  0.73207  0.06976  0.64337  1.0000
  C   C3252     1.0  0.89070  0.14858  0.51955  1.0000
  H   H2613     1.0  0.92907  0.32837  0.49853  1.0000
  H   H2614     1.0  0.90653  0.32165  0.52822  1.0000
  C   C3253     1.0  0.69343  0.03377  0.57583  1.0000
  C   C3254     1.0  0.98244  0.42019  0.53456  1.0000
  C   C3255     1.0  0.92745  0.34346  0.50335  1.0000
  C   C3256     1.0  0.96921  0.30878  0.62133  1.0000
  H   H2615     1.0  0.71562  0.01609  0.56318  1.0000
  C   C3257     1.0  0.67784  0.03258  0.59115  1.0000
  H   H2616     1.0  0.83470  0.18068  0.49741  1.0000
  C   C3258     1.0  0.70334  0.01518  0.57488  1.0000
  C   C3259     1.0  0.99305  0.45921  0.50365  1.0000
  C   C3260     1.0  0.99299  0.31878  0.61576  1.0000
  C   C3261     1.0  0.97345  0.27723  0.60817  1.0000
  S   S441      1.0  0.77826  0.02113  0.50502  1.0000
  C   C3262     1.0  0.74008  0.01535  0.73251  1.0000
  S   S442      1.0  0.97794  0.24823  0.49927  1.0000
  H   H2617     1.0  0.98033  0.27921  0.57385  1.0000
  C   C3263     1.0  0.98556  0.26398  0.57148  1.0000
  C   C3264     1.0  0.89674  0.18708  0.83947  1.0000
  S   S443      1.0  0.82757  0.03077  0.80302  1.0000
  H   H2618     1.0  0.81097  0.04144  0.76699  1.0000
  S   S444      1.0  0.89161  0.05249  0.80460  1.0000
  S   S445      1.0  0.78011  0.03652  0.83974  1.0000
  S   S446      1.0  0.97623  0.18532  0.82925  1.0000
  H   H2619     1.0  0.86060  0.08321  0.80396  1.0000
  C   C3265     1.0  0.90326  0.07120  0.81633  1.0000
  C   C3266     1.0  0.89095  0.07062  0.83266  1.0000
  C   C3267     1.0  0.90072  0.08553  0.84167  1.0000
  C   C3268     1.0  0.92302  0.10098  0.83467  1.0000
  C   C3269     1.0  0.93538  0.10168  0.81830  1.0000
  C   C3270     1.0  0.92547  0.08691  0.80916  1.0000
  H   H2620     1.0  0.87389  0.05867  0.83833  1.0000
  H   H2621     1.0  0.89097  0.08500  0.85422  1.0000
  H   H2622     1.0  0.93516  0.08748  0.79653  1.0000
  H   H2623     1.0  0.97116  0.17337  0.76983  1.0000
  H   H2624     1.0  0.89196  0.06291  0.98491  1.0000
  C   C3271     1.0  0.83682  0.18982  0.80417  1.0000
  C   C3272     1.0  0.74989  0.02490  0.84620  1.0000
  C   C3273     1.0  0.73684  0.03869  0.85291  1.0000
  C   C3274     1.0  0.71291  0.03000  0.85928  1.0000
  H   H2625     1.0  0.94395  0.21828  0.79653  1.0000
  H   H2626     1.0  0.74532  0.05610  0.85345  1.0000
  H   H2627     1.0  0.70313  0.04068  0.86479  1.0000
  H   H2628     1.0  0.69228  0.00335  0.76994  1.0000
  H   H2629     1.0  0.86359  0.09287  0.89409  1.0000
  P   P110      1.0  0.89238  0.02472  0.88530  1.0000
  C   C3275     1.0  0.77623  0.04216  0.91219  1.0000
  H   H2630     1.0  0.90081  0.13487  0.87397  1.0000
  C   C3276     1.0  0.84841  0.11946  0.83652  1.0000
  H   H2631     1.0  0.71277  0.03127  0.91894  1.0000
  H   H2632     1.0  0.97253  0.25201  0.83060  1.0000
  H   H2633     1.0  0.92221  0.01192  0.90709  1.0000
  H   H2634     1.0  0.81846  0.18458  0.80570  1.0000
  C   C3277     1.0  0.93546  0.17256  0.77334  1.0000
  H   H2635     1.0  0.93055  0.03569  0.82428  1.0000
  C   C3278     1.0  0.91507  0.03003  0.85115  1.0000
  H   H2636     1.0  0.80434  0.06656  0.78665  1.0000
  H   H2637     1.0  0.96610  0.14780  0.94015  1.0000
  C   C3279     1.0  0.84440  0.07294  0.88058  1.0000
  H   H2638     1.0  0.74739  0.50209  0.90216  1.0000
  C   C3280     1.0  0.97171  0.14104  0.95122  1.0000
  H   H2639     1.0  0.94033  0.13888  0.96927  1.0000
  H   H2640     1.0  0.92187  0.07283  0.86917  1.0000
  H   H2641     1.0  0.83378  0.08477  0.87880  1.0000
  H   H2642     1.0  0.88841  0.06652  0.89766  1.0000
  C   C3281     1.0  0.97867  0.28939  0.87293  1.0000
  H   H2643     1.0  0.97575  0.24537  0.95754  1.0000
  H   H2644     1.0  0.98828  0.28911  0.77728  1.0000
  C   C3282     1.0  0.96438  0.12714  0.98209  1.0000
  H   H2645     1.0  0.88363  0.23751  0.78612  1.0000
  H   H2646     1.0  0.88852  0.12745  0.84898  1.0000
  H   H2647     1.0  0.76506  0.00829  0.87849  1.0000
  C   C3283     1.0  0.96305  0.33562  0.84292  1.0000
  H   H2648     1.0  0.85310  0.02314  0.87092  1.0000
  C   C3284     1.0  0.73577  0.01440  0.74989  1.0000
  C   C3285     1.0  0.95483  0.17074  0.77896  1.0000
  H   H2649     1.0  0.76455  0.07722  0.87169  1.0000
  C   C3286     1.0  0.92970  0.06428  0.87819  1.0000
  C   C3287     1.0  0.96530  0.25414  0.78525  1.0000
  C   C3288     1.0  0.72605  0.49684  0.79591  1.0000
  H   H2650     1.0  0.92647  0.04620  0.85146  1.0000
  C   C3289     1.0  0.95720  0.13597  0.96771  1.0000
  P   P111      1.0  0.88530  0.15900  0.81806  1.0000
  H   H2651     1.0  0.93114  0.24501  0.87777  1.0000
  H   H2652     1.0  0.89945  0.17001  0.78066  1.0000
  Fe  Fe224     1.0  0.85629  0.02529  0.81446  1.0000
  H   H2653     1.0  0.96895  0.48512  0.94475  1.0000
  C   C3290     1.0  0.86127  0.07756  0.88911  1.0000
  H   H2654     1.0  0.66522  0.44774  0.80427  1.0000
  C   C3291     1.0  0.70154  0.00761  0.85859  1.0000
  C   C3292     1.0  0.84984  0.21290  0.79517  1.0000
  C   C3293     1.0  0.95030  0.07701  0.88006  1.0000
  H   H2655     1.0  0.97523  0.26865  0.98062  1.0000
  C   C3294     1.0  0.98640  0.12366  0.97969  1.0000
  C   C3295     1.0  0.85560  0.03827  0.87603  1.0000
  C   C3296     1.0  0.91494  0.08855  0.99253  1.0000
  H   H2656     1.0  0.77990  0.03278  0.92341  1.0000
  C   C3297     1.0  0.96069  0.06632  0.89166  1.0000
  Fe  Fe225     1.0  0.96693  0.14726  0.84444  1.0000
  S   S447      1.0  0.95596  0.21710  0.86299  1.0000
  H   H2657     1.0  0.80113  0.07450  0.91014  1.0000
  H   H2658     1.0  0.95857  0.03455  0.91030  1.0000
  C   C3298     1.0  0.75538  0.04385  0.89070  1.0000
  C   C3299     1.0  0.84743  0.17341  0.81117  1.0000
  C   C3300     1.0  0.90359  0.19113  0.85380  1.0000
  H   H2659     1.0  0.69753  0.47098  0.81526  1.0000
  C   C3301     1.0  0.83374  0.09698  0.83910  1.0000
  C   C3302     1.0  0.95613  0.23345  0.81520  1.0000
  H   H2660     1.0  0.88655  0.12253  0.79924  1.0000
  C   C3303     1.0  0.95554  0.27661  0.87746  1.0000
  H   H2661     1.0  0.67868  0.46861  0.77332  1.0000
  H   H2662     1.0  0.79358  0.09706  0.88426  1.0000
  H   H2663     1.0  0.84158  0.22558  0.78975  1.0000
  Fe  Fe226     1.0  0.80449  0.01647  0.82981  1.0000
  S   S448      1.0  0.96610  0.15648  0.86932  1.0000
  H   H2664     1.0  0.98835  0.45775  0.87535  1.0000
  C   C3304     1.0  0.95216  0.31275  0.84289  1.0000
  H   H2665     1.0  0.98731  0.33464  0.78736  1.0000
  S   S449      1.0  0.83374  0.01382  0.84141  1.0000
  H   H2666     1.0  0.74258  0.03552  0.88518  1.0000
  H   H2667     1.0  0.73644  0.48467  0.79478  1.0000
  H   H2668     1.0  0.95454  0.34425  0.85147  1.0000
  C   C3305     1.0  0.88418  0.20325  0.80008  1.0000
  H   H2669     1.0  0.94753  0.21777  0.82577  1.0000
  C   C3306     1.0  0.96362  0.30103  0.83260  1.0000
  H   H2670     1.0  0.82805  0.04926  0.86784  1.0000
  C   C3307     1.0  0.89889  0.14935  0.86466  1.0000
  H   H2671     1.0  0.83697  0.15565  0.81799  1.0000
  C   C3308     1.0  0.89192  0.14521  0.85040  1.0000
  H   H2672     1.0  0.96056  0.26264  0.93412  1.0000
  C   C3309     1.0  0.75952  0.03092  0.90530  1.0000
  H   H2673     1.0  0.76556  0.05895  0.80608  1.0000
  C   C3310     1.0  0.84130  0.05308  0.87430  1.0000
  C   C3311     1.0  0.91751  0.02411  0.83562  1.0000
  H   H2674     1.0  0.94243  0.28406  0.88311  1.0000
  C   C3312     1.0  0.87318  0.04327  0.88400  1.0000
  H   H2675     1.0  0.90255  0.20874  0.79833  1.0000
  H   H2676     1.0  0.93513  0.30375  0.85135  1.0000
  C   C3313     1.0  0.87179  0.11589  0.81033  1.0000
  H   H2677     1.0  0.96402  0.25435  0.77245  1.0000
  C   C3314     1.0  0.97078  0.50011  0.93420  1.0000
  C   C3315     1.0  0.87352  0.21961  0.79312  1.0000
  H   H2678     1.0  0.93010  0.08703  0.98402  1.0000
  H   H2679     1.0  0.82689  0.06653  0.82934  1.0000
  C   C3316     1.0  0.89747  0.01574  0.86570  1.0000
  H   H2680     1.0  0.93675  0.17654  0.75979  1.0000
  H   H2681     1.0  0.89668  0.20206  0.82973  1.0000
  H   H2682     1.0  0.73332  0.02813  0.80509  1.0000
  C   C3317     1.0  0.95047  0.04283  0.90134  1.0000
  C   C3318     1.0  0.95396  0.23386  0.79880  1.0000
  H   H2683     1.0  0.95487  0.28321  0.83315  1.0000
  C   C3319     1.0  0.95311  0.16519  0.79644  1.0000
  C   C3320     1.0  0.83810  0.08401  0.82732  1.0000
  C   C3321     1.0  0.92980  0.03004  0.89946  1.0000
  H   H2684     1.0  0.84472  0.12942  0.84567  1.0000
  C   C3322     1.0  0.85704  0.09349  0.81294  1.0000
  H   H2685     1.0  0.90881  0.20898  0.85497  1.0000
  C   C3323     1.0  0.91914  0.04078  0.88793  1.0000
  H   H2686     1.0  0.81890  0.08952  0.85015  1.0000
  C   C3324     1.0  0.70412  0.48908  0.80737  1.0000
  C   C3325     1.0  0.76775  0.06754  0.88306  1.0000
  C   C3326     1.0  0.93210  0.16163  0.80833  1.0000
  H   H2687     1.0  0.99019  0.48455  0.89392  1.0000
  C   C3327     1.0  0.86756  0.12913  0.82208  1.0000
  C   C3328     1.0  0.97014  0.25301  0.81798  1.0000
  C   C3329     1.0  0.79381  0.03895  0.77490  1.0000
  C   C3330     1.0  0.89099  0.16406  0.83760  1.0000
  H   H2688     1.0  0.91117  0.17567  0.87699  1.0000
  C   C3331     1.0  0.87547  0.06265  0.89099  1.0000
  C   C3332     1.0  0.70351  0.01572  0.91620  1.0000
  C   C3333     1.0  0.78839  0.06595  0.90466  1.0000
  C   C3334     1.0  0.87123  0.18002  0.80922  1.0000
  C   C3335     1.0  0.90485  0.17231  0.86631  1.0000
  H   H2689     1.0  0.97666  0.07634  0.89310  1.0000
  H   H2690     1.0  0.93121  0.15717  0.82179  1.0000
  C   C3336     1.0  0.78416  0.07864  0.89010  1.0000
  H   H2691     1.0  0.95258  0.11341  0.81274  1.0000
  C   C3337     1.0  0.98159  0.27346  0.80450  1.0000
  H   H2692     1.0  0.95820  0.09522  0.87249  1.0000
  S   S450      1.0  0.93436  0.11842  0.84727  1.0000
  Fe  Fe227     1.0  0.97779  0.19439  0.85390  1.0000
  C   C3338     1.0  0.79010  0.05296  0.78603  1.0000
  C   C3339     1.0  0.91438  0.16890  0.78520  1.0000
  C   C3340     1.0  0.91256  0.16352  0.80281  1.0000
  C   C3341     1.0  0.94916  0.25449  0.87441  1.0000
  C   C3342     1.0  0.98613  0.31219  0.82213  1.0000
  H   H2693     1.0  0.69969  0.49345  0.84593  1.0000
  C   C3343     1.0  0.74991  0.03088  0.79643  1.0000
  H   H2694     1.0  0.99391  0.36447  0.83281  1.0000
  C   C3344     1.0  0.77559  0.02092  0.77448  1.0000
  C   C3345     1.0  0.96582  0.24458  0.86704  1.0000
  C   C3346     1.0  0.97905  0.27392  0.78807  1.0000
  H   H2695     1.0  0.67393  0.02866  0.91514  1.0000
  H   H2696     1.0  0.98368  0.30009  0.91243  1.0000
  H   H2697     1.0  0.96803  0.16335  0.80083  1.0000
  C   C3347     1.0  0.76823  0.04874  0.79692  1.0000
  C   C3348     1.0  0.98534  0.34694  0.83248  1.0000
  C   C3349     1.0  0.98139  0.26025  0.99084  1.0000
  H   H2698     1.0  0.96203  0.17120  0.98434  1.0000
  C   C3350     1.0  0.75339  0.01693  0.78505  1.0000
  S   S451      1.0  0.98515  0.31775  0.87629  1.0000
  H   H2699     1.0  0.99249  0.11699  0.99048  1.0000
  C   C3351     1.0  0.99012  0.29284  0.92292  1.0000
  H   H2700     1.0  0.67412  0.49900  0.81823  1.0000
  H   H2701     1.0  0.77900  0.00975  0.76616  1.0000
  H   H2702     1.0  0.73364  0.02991  0.75394  1.0000
  C   C3352     1.0  0.98915  0.25702  0.86275  1.0000
  C   C3353     1.0  0.90235  0.00405  0.83441  1.0000
  H   H2703     1.0  0.96075  0.20709  0.99367  1.0000
  C   C3354     1.0  0.98568  0.26215  0.94848  1.0000
  C   C3355     1.0  0.68149  0.01428  0.91412  1.0000
  C   C3356     1.0  0.66721  0.00661  0.79076  1.0000
  H   H2704     1.0  0.85537  0.01590  0.91677  1.0000
  C   C3357     1.0  0.97709  0.27175  0.93519  1.0000
  C   C3358     1.0  0.89336  0.07471  0.99305  1.0000
  C   C3359     1.0  0.99347  0.13735  0.94894  1.0000
  C   C3360     1.0  0.66179  0.46794  0.78076  1.0000
  C   C3361     1.0  0.66108  0.00552  0.80815  1.0000
  C   C3362     1.0  0.85447  0.97346  0.15297  1.0000
  C   C3363     1.0  0.70091  0.72863  0.19628  1.0000
  Fe  Fe228     1.0  0.74278  0.74511  0.14395  1.0000
  S   S452      1.0  0.76165  0.72394  0.15838  1.0000
  S   S453      1.0  0.74528  0.78407  0.14063  1.0000
  Fe  Fe229     1.0  0.71861  0.70278  0.13301  1.0000
  S   S454      1.0  0.73531  0.67841  0.14663  1.0000
  Fe  Fe230     1.0  0.72800  0.69563  0.16771  1.0000
  C   C3364     1.0  0.98720  0.51437  0.10251  1.0000
  Fe  Fe231     1.0  0.76728  0.70855  0.13603  1.0000
  S   S455      1.0  0.79929  0.69868  0.12556  1.0000
  S   S456      1.0  0.70848  0.71783  0.15501  1.0000
  S   S457      1.0  0.75130  0.73208  0.12061  1.0000
  C   C3365     1.0  0.66728  0.70864  0.06822  1.0000
  Fe  Fe232     1.0  0.79815  0.60087  0.05087  1.0000
  S   S458      1.0  0.77875  0.62448  0.03952  1.0000
  S   S459      1.0  0.78545  0.56197  0.06424  1.0000
  Fe  Fe233     1.0  0.84462  0.63745  0.03484  1.0000
  S   S460      1.0  0.82933  0.66412  0.02199  1.0000
  S   S461      1.0  0.88312  0.64540  0.02987  1.0000
  Fe  Fe234     1.0  0.80196  0.65248  0.04688  1.0000
  S   S462      1.0  0.78932  0.68159  0.05500  1.0000
  Fe  Fe235     1.0  0.80744  0.63428  0.01552  1.0000
  C   C3366     1.0  0.84050  0.58684  0.09771  1.0000
  S   S463      1.0  0.81896  0.62799  0.06043  1.0000
  S   S464      1.0  0.82527  0.60851  0.02610  1.0000
  Fe  Fe236     1.0  0.96705  0.69453  0.07469  1.0000
  C   C3367     1.0  0.90109  0.64111  0.21782  1.0000
  S   S465      1.0  0.92859  0.67923  0.08494  1.0000
  H   H2705     1.0  0.71935  0.59160  0.15882  1.0000
  C   C3368     1.0  0.74116  0.63599  0.22627  1.0000
  C   C3369     1.0  0.66671  0.60816  0.05657  1.0000
  C   C3370     1.0  0.84442  0.97632  0.09344  1.0000
  C   C3371     1.0  0.70492  0.53874  0.23871  1.0000
  Fe  Fe237     1.0  0.76078  0.86779  0.19893  1.0000
  S   S466      1.0  0.78155  0.89911  0.20500  1.0000
  S   S467      1.0  0.77359  0.83619  0.19515  1.0000
  Fe  Fe238     1.0  0.72086  0.88892  0.19792  1.0000
  S   S468      1.0  0.73764  0.92222  0.20346  1.0000
  S   S469      1.0  0.68633  0.87932  0.19296  1.0000
  Fe  Fe239     1.0  0.76942  0.92098  0.18541  1.0000
  S   S470      1.0  0.79331  0.95476  0.16738  1.0000
  Fe  Fe240     1.0  0.74852  0.89844  0.22282  1.0000
  H   H2706     1.0  0.94881  0.92631  0.12719  1.0000
  S   S471      1.0  0.75168  0.88995  0.17774  1.0000
  S   S472      1.0  0.72871  0.86475  0.21898  1.0000
  H   H2707     1.0  0.74799  0.97299  0.22818  1.0000
  S   S473      1.0  0.77082  0.96346  0.09691  1.0000
  C   C3372     1.0  0.78608  0.95935  0.14807  1.0000
  C   C3373     1.0  0.80111  0.97637  0.13352  1.0000
  C   C3374     1.0  0.79590  0.97868  0.11777  1.0000
  C   C3375     1.0  0.77603  0.96358  0.11663  1.0000
  C   C3376     1.0  0.76054  0.94748  0.13132  1.0000
  C   C3377     1.0  0.76556  0.94535  0.14704  1.0000
  H   H2708     1.0  0.69254  0.71372  0.19236  1.0000
  C   C3378     1.0  0.71536  0.67744  0.07610  1.0000
  H   H2709     1.0  0.74441  0.93703  0.13061  1.0000
  H   H2710     1.0  0.75318  0.93342  0.15843  1.0000
  C   C3379     1.0  0.69798  0.68639  0.01188  1.0000
  C   C3380     1.0  0.74668  0.57281  0.01606  1.0000
  C   C3381     1.0  0.74454  0.76187  0.07690  1.0000
  C   C3382     1.0  0.67994  0.90240  0.17977  1.0000
  C   C3383     1.0  0.76041  0.92858  0.01431  1.0000
  C   C3384     1.0  0.72387  0.78156  0.00573  1.0000
  H   H2711     1.0  0.69310  0.92550  0.05692  1.0000
  C   C3385     1.0  0.79878  0.88899  0.14341  1.0000
  C   C3386     1.0  0.89712  0.93243  0.14676  1.0000
  C   C3387     1.0  0.68419  0.74807  0.10649  1.0000
  H   H2712     1.0  0.70800  0.53282  0.07213  1.0000
  H   H2713     1.0  0.79663  0.68501  0.00859  1.0000
  C   C3388     1.0  0.81491  0.90989  0.14235  1.0000
  C   C3389     1.0  0.89517  0.65544  0.04525  1.0000
  C   C3390     1.0  0.91887  0.66617  0.04083  1.0000
  C   C3391     1.0  0.92910  0.67412  0.05282  1.0000
  C   C3392     1.0  0.91572  0.67111  0.06938  1.0000
  C   C3393     1.0  0.89194  0.66094  0.07370  1.0000
  C   C3394     1.0  0.88166  0.65304  0.06167  1.0000
  H   H2714     1.0  0.92931  0.66854  0.02807  1.0000
  H   H2715     1.0  0.94736  0.68245  0.04924  1.0000
  H   H2716     1.0  0.88149  0.65922  0.08633  1.0000
  H   H2717     1.0  0.86337  0.64507  0.06514  1.0000
  C   C3395     1.0  0.74122  0.51168  0.22332  1.0000
  Fe  Fe241     1.0  0.98598  0.55107  0.14732  1.0000
  C   C3396     1.0  0.70898  0.86351  0.14890  1.0000
  C   C3397     1.0  0.92242  0.93147  0.11485  1.0000
  C   C3398     1.0  0.93176  0.92876  0.12876  1.0000
  C   C3399     1.0  0.95192  0.55808  0.22403  1.0000
  C   C3400     1.0  0.95141  0.68904  0.14482  1.0000
  C   C3401     1.0  0.69939  0.66509  0.06931  1.0000
  H   H2718     1.0  0.94557  0.62039  0.20235  1.0000
  C   C3402     1.0  0.73097  0.98556  0.02441  1.0000
  C   C3403     1.0  0.79822  0.69433  0.10556  1.0000
  C   C3404     1.0  0.80284  0.67435  0.10117  1.0000
  C   C3405     1.0  0.80042  0.67027  0.08555  1.0000
  C   C3406     1.0  0.79345  0.68624  0.07435  1.0000
  C   C3407     1.0  0.78956  0.70649  0.07858  1.0000
  C   C3408     1.0  0.79188  0.71050  0.09415  1.0000
  H   H2719     1.0  0.80755  0.66175  0.11007  1.0000
  H   H2720     1.0  0.80345  0.65463  0.08235  1.0000
  H   H2721     1.0  0.78465  0.71899  0.06980  1.0000
  H   H2722     1.0  0.78890  0.72619  0.09731  1.0000
  C   C3409     1.0  0.70350  0.91729  0.06381  1.0000
  C   C3410     1.0  0.75445  0.67879  0.20082  1.0000
  C   C3411     1.0  0.76991  0.67254  0.20980  1.0000
  H   H2723     1.0  0.75963  0.69524  0.19100  1.0000
  H   H2724     1.0  0.78690  0.68439  0.20691  1.0000
  C   C3412     1.0  0.75279  0.79787  0.15618  1.0000
  C   C3413     1.0  0.76581  0.78940  0.16658  1.0000
  C   C3414     1.0  0.77229  0.80143  0.17833  1.0000
  C   C3415     1.0  0.76534  0.82166  0.18009  1.0000
  C   C3416     1.0  0.75208  0.82991  0.16980  1.0000
  C   C3417     1.0  0.74618  0.81830  0.15771  1.0000
  H   H2725     1.0  0.77117  0.77381  0.16538  1.0000
  H   H2726     1.0  0.78261  0.79494  0.18616  1.0000
  H   H2727     1.0  0.74639  0.84526  0.17107  1.0000
  H   H2728     1.0  0.73621  0.82503  0.14968  1.0000
  C   C3418     1.0  0.72311  0.52014  0.10951  1.0000
  C   C3419     1.0  0.72788  0.54487  0.10432  1.0000
  C   C3420     1.0  0.74661  0.55830  0.09004  1.0000
  C   C3421     1.0  0.76049  0.54687  0.08112  1.0000
  C   C3422     1.0  0.75519  0.52222  0.08612  1.0000
  H   H2729     1.0  0.72221  0.57660  0.00157  1.0000
  H   H2730     1.0  0.71745  0.55359  0.11149  1.0000
  H   H2731     1.0  0.75051  0.57738  0.08619  1.0000
  C   C3423     1.0  0.77467  0.94456  0.99897  1.0000
  C   C3424     1.0  0.68999  0.52836  0.07885  1.0000
  H   H2732     1.0  0.74938  0.92229  0.04161  1.0000
  C   C3425     1.0  0.70888  0.60229  0.09983  1.0000
  C   C3426     1.0  0.88763  0.93524  0.13283  1.0000
  C   C3427     1.0  0.77385  0.95664  0.02981  1.0000
  H   H2733     1.0  0.80093  0.74236  0.17386  1.0000
  C   C3428     1.0  0.84707  0.56665  0.06396  1.0000
  C   C3429     1.0  0.68117  0.74585  0.12396  1.0000
  C   C3430     1.0  0.78811  0.97263  0.01443  1.0000
  H   H2734     1.0  0.74951  0.99922  0.20041  1.0000
  C   C3431     1.0  0.67490  0.95373  0.08895  1.0000
  C   C3432     1.0  0.72263  0.73355  0.01389  1.0000
  H   H2735     1.0  0.96970  0.63064  0.11714  1.0000
  H   H2736     1.0  0.68748  0.72760  0.02830  1.0000
  H   H2737     1.0  0.75784  0.62648  0.01161  1.0000
  C   C3433     1.0  0.76017  0.93466  0.02972  1.0000
  C   C3434     1.0  0.82545  0.76934  0.09411  1.0000
  C   C3435     1.0  0.82590  0.78391  0.07848  1.0000
  C   C3436     1.0  0.84297  0.78622  0.06370  1.0000
  C   C3437     1.0  0.85968  0.77407  0.06456  1.0000
  C   C3438     1.0  0.85957  0.75967  0.08026  1.0000
  C   C3439     1.0  0.84215  0.75722  0.09502  1.0000
  P   P112      1.0  0.88061  0.74315  0.08095  1.0000
  C   C3440     1.0  0.90944  0.76176  0.07699  1.0000
  C   C3441     1.0  0.87326  0.72354  0.10215  1.0000
  C   C3442     1.0  0.85814  0.70085  0.10641  1.0000
  C   C3443     1.0  0.85039  0.68703  0.12337  1.0000
  C   C3444     1.0  0.85812  0.69549  0.13610  1.0000
  C   C3445     1.0  0.87355  0.71785  0.13192  1.0000
  C   C3446     1.0  0.88093  0.73195  0.11504  1.0000
  C   C3447     1.0  0.91486  0.78644  0.07078  1.0000
  C   C3448     1.0  0.93703  0.80053  0.06864  1.0000
  C   C3449     1.0  0.95381  0.79012  0.07291  1.0000
  C   C3450     1.0  0.94850  0.76562  0.07922  1.0000
  C   C3451     1.0  0.92650  0.75144  0.08111  1.0000
  C   C3452     1.0  0.87895  0.72683  0.06517  1.0000
  C   C3453     1.0  0.89895  0.72550  0.05413  1.0000
  C   C3454     1.0  0.89737  0.71421  0.04121  1.0000
  C   C3455     1.0  0.87590  0.70382  0.03939  1.0000
  C   C3456     1.0  0.85593  0.70483  0.05042  1.0000
  C   C3457     1.0  0.85741  0.71642  0.06318  1.0000
  H   H2738     1.0  0.81192  0.76706  0.10554  1.0000
  H   H2739     1.0  0.81290  0.79323  0.07783  1.0000
  H   H2740     1.0  0.84317  0.79729  0.05154  1.0000
  H   H2741     1.0  0.87256  0.77566  0.05295  1.0000
  H   H2742     1.0  0.84094  0.74560  0.10725  1.0000
  H   H2743     1.0  0.85153  0.69415  0.09685  1.0000
  H   H2744     1.0  0.83752  0.67025  0.12671  1.0000
  H   H2745     1.0  0.85177  0.68501  0.14926  1.0000
  H   H2746     1.0  0.87924  0.72456  0.14182  1.0000
  H   H2747     1.0  0.89212  0.74965  0.11215  1.0000
  H   H2748     1.0  0.90206  0.79492  0.06771  1.0000
  H   H2749     1.0  0.94118  0.81955  0.06378  1.0000
  H   H2750     1.0  0.97097  0.80098  0.07136  1.0000
  H   H2751     1.0  0.96152  0.75764  0.08266  1.0000
  H   H2752     1.0  0.92276  0.73240  0.08589  1.0000
  H   H2753     1.0  0.91580  0.73311  0.05535  1.0000
  H   H2754     1.0  0.91284  0.71311  0.03279  1.0000
  H   H2755     1.0  0.87474  0.69459  0.02961  1.0000
  H   H2756     1.0  0.83928  0.69661  0.04906  1.0000
  H   H2757     1.0  0.84172  0.71726  0.07149  1.0000
  H   H2758     1.0  0.74593  0.63156  0.14462  1.0000
  C   C3458     1.0  0.68519  0.64391  0.13120  1.0000
  C   C3459     1.0  0.74095  0.76726  0.04802  1.0000
  H   H2759     1.0  0.73870  0.51389  0.18273  1.0000
  C   C3460     1.0  0.96608  0.65777  0.99995  1.0000
  C   C3461     1.0  0.85356  0.52176  0.06612  1.0000
  H   H2760     1.0  0.73769  0.76032  0.09033  1.0000
  C   C3462     1.0  0.84146  0.55449  0.05221  1.0000
  C   C3463     1.0  0.69036  0.97644  0.08177  1.0000
  C   C3464     1.0  0.97206  0.54700  0.24516  1.0000
  S   S474      1.0  0.74268  0.90101  0.01457  1.0000
  H   H2761     1.0  0.72702  0.97177  0.10672  1.0000
  H   H2762     1.0  0.83425  0.63810  0.10669  1.0000
  H   H2763     1.0  0.69704  0.64781  0.13868  1.0000
  H   H2764     1.0  0.76418  0.53730  0.23073  1.0000
  C   C3465     1.0  0.79744  0.96713  0.23500  1.0000
  C   C3466     1.0  0.91911  0.92922  0.14470  1.0000
  C   C3467     1.0  0.70928  0.98278  0.08821  1.0000
  C   C3468     1.0  0.78051  0.64504  0.17784  1.0000
  C   C3469     1.0  0.76491  0.62405  0.18863  1.0000
  C   C3470     1.0  0.77273  0.60720  0.19827  1.0000
  C   C3471     1.0  0.79618  0.61129  0.19714  1.0000
  C   C3472     1.0  0.81205  0.63231  0.18626  1.0000
  C   C3473     1.0  0.80397  0.64915  0.17659  1.0000
  P   P113      1.0  0.84226  0.63852  0.18554  1.0000
  C   C3474     1.0  0.85136  0.66856  0.18695  1.0000
  C   C3475     1.0  0.84535  0.61876  0.20408  1.0000
  C   C3476     1.0  0.83847  0.62215  0.22041  1.0000
  C   C3477     1.0  0.84062  0.60673  0.23474  1.0000
  C   C3478     1.0  0.84973  0.58791  0.23290  1.0000
  C   C3479     1.0  0.85602  0.58399  0.21683  1.0000
  C   C3480     1.0  0.85348  0.59909  0.20252  1.0000
  C   C3481     1.0  0.87325  0.68361  0.17756  1.0000
  C   C3482     1.0  0.87993  0.70675  0.17889  1.0000
  C   C3483     1.0  0.86477  0.71511  0.18947  1.0000
  C   C3484     1.0  0.84289  0.70038  0.19867  1.0000
  C   C3485     1.0  0.83623  0.67728  0.19738  1.0000
  C   C3486     1.0  0.85997  0.63590  0.16601  1.0000
  C   C3487     1.0  0.85204  0.63700  0.15137  1.0000
  C   C3488     1.0  0.86677  0.63780  0.13579  1.0000
  C   C3489     1.0  0.88926  0.63673  0.13480  1.0000
  C   C3490     1.0  0.89699  0.63461  0.14946  1.0000
  C   C3491     1.0  0.88258  0.63453  0.16494  1.0000
  H   H2765     1.0  0.77426  0.65830  0.17068  1.0000
  H   H2766     1.0  0.74667  0.62107  0.18977  1.0000
  H   H2767     1.0  0.76041  0.59127  0.20701  1.0000
  H   H2768     1.0  0.80167  0.59836  0.20523  1.0000
  H   H2769     1.0  0.81558  0.66579  0.16847  1.0000
  H   H2770     1.0  0.83092  0.63630  0.22227  1.0000
  C   C3492     1.0  0.70322  0.74065  0.02039  1.0000
  H   H2771     1.0  0.73108  0.77000  0.03892  1.0000
  H   H2772     1.0  0.86258  0.56902  0.21558  1.0000
  H   H2773     1.0  0.85769  0.59515  0.19034  1.0000
  H   H2774     1.0  0.88531  0.67768  0.16926  1.0000
  H   H2775     1.0  0.89691  0.71819  0.17175  1.0000
  H   H2776     1.0  0.86997  0.73297  0.19058  1.0000
  H   H2777     1.0  0.83099  0.70668  0.20692  1.0000
  H   H2778     1.0  0.81918  0.66618  0.20456  1.0000
  H   H2779     1.0  0.83478  0.63808  0.15181  1.0000
  H   H2780     1.0  0.86094  0.63965  0.12436  1.0000
  H   H2781     1.0  0.90076  0.63780  0.12262  1.0000
  H   H2782     1.0  0.91434  0.63349  0.14872  1.0000
  H   H2783     1.0  0.88924  0.63386  0.17601  1.0000
  C   C3493     1.0  0.69354  0.66178  0.01492  1.0000
  C   C3494     1.0  0.79847  0.74500  0.18654  1.0000
  C   C3495     1.0  0.77583  0.76082  0.05415  1.0000
  C   C3496     1.0  0.84633  0.60899  0.10097  1.0000
  C   C3497     1.0  0.91590  0.62674  0.21712  1.0000
  C   C3498     1.0  0.74448  0.76114  0.23896  1.0000
  H   H2784     1.0  0.67873  0.96636  0.20691  1.0000
  H   H2785     1.0  0.74802  0.71991  0.04007  1.0000
  C   C3499     1.0  0.98722  0.72752  0.14319  1.0000
  C   C3500     1.0  0.75795  0.78463  0.23149  1.0000
  C   C3501     1.0  0.75249  0.99416  0.15999  1.0000
  H   H2786     1.0  0.68847  0.76989  0.02053  1.0000
  C   C3502     1.0  0.94520  0.61170  0.16648  1.0000
  C   C3503     1.0  0.95714  0.63546  0.15799  1.0000
  C   C3504     1.0  0.96645  0.64195  0.14014  1.0000
  P   P114      1.0  0.96186  0.65732  0.16974  1.0000
  H   H2787     1.0  0.75258  0.90666  0.11889  1.0000
  C   C3505     1.0  0.93766  0.65083  0.18835  1.0000
  C   C3506     1.0  0.93416  0.63163  0.20252  1.0000
  C   C3507     1.0  0.67430  0.62017  0.13245  1.0000
  H   H2788     1.0  0.73604  0.61922  0.23573  1.0000
  C   C3508     1.0  0.92271  0.66528  0.18921  1.0000
  C   C3509     1.0  0.78331  0.94555  0.23475  1.0000
  H   H2789     1.0  0.69870  0.93274  0.12020  1.0000
  C   C3510     1.0  0.93998  0.56876  0.23500  1.0000
  C   C3511     1.0  0.74511  0.51878  0.19297  1.0000
  H   H2790     1.0  0.94744  0.58906  0.13222  1.0000
  C   C3512     1.0  0.81742  0.75202  0.19266  1.0000
  C   C3513     1.0  0.99059  0.61041  0.21540  1.0000
  H   H2791     1.0  0.93887  0.60560  0.18023  1.0000
  H   H2792     1.0  0.85145  0.57603  0.24403  1.0000
  H   H2793     1.0  0.92521  0.68054  0.17874  1.0000
  H   H2794     1.0  0.68813  0.75364  0.18116  1.0000
  H   H2795     1.0  0.68427  0.57180  0.09898  1.0000
  H   H2796     1.0  0.78961  0.75421  0.23199  1.0000
  C   C3514     1.0  0.73395  0.71005  0.24004  1.0000
  C   C3515     1.0  0.66677  0.93783  0.15956  1.0000
  C   C3516     1.0  0.72082  0.83783  0.03796  1.0000
  C   C3517     1.0  0.74292  0.75081  0.00370  1.0000
  C   C3518     1.0  0.76413  0.82022  0.09113  1.0000
  C   C3519     1.0  0.75719  0.83839  0.09689  1.0000
  C   C3520     1.0  0.77756  0.90227  0.08717  1.0000
  C   C3521     1.0  0.79138  0.89835  0.09820  1.0000
  C   C3522     1.0  0.81426  0.91194  0.09370  1.0000
  C   C3523     1.0  0.82351  0.92945  0.07813  1.0000
  C   C3524     1.0  0.80990  0.93334  0.06703  1.0000
  C   C3525     1.0  0.78711  0.91961  0.07141  1.0000
  C   C3526     1.0  0.71912  0.93073  0.07028  1.0000
  C   C3527     1.0  0.73259  0.92008  0.07910  1.0000
  H   H2797     1.0  0.76624  0.80554  0.10021  1.0000
  H   H2798     1.0  0.75470  0.83776  0.11030  1.0000
  H   H2799     1.0  0.78457  0.88457  0.11016  1.0000
  H   H2800     1.0  0.82481  0.90881  0.10228  1.0000
  H   H2801     1.0  0.84123  0.94000  0.07461  1.0000
  H   H2802     1.0  0.81700  0.94691  0.05493  1.0000
  H   H2803     1.0  0.77715  0.92243  0.06236  1.0000
  H   H2804     1.0  0.72104  0.94948  0.06840  1.0000
  H   H2805     1.0  0.74436  0.93069  0.08425  1.0000
  H   H2806     1.0  0.66693  0.69027  0.07231  1.0000
  H   H2807     1.0  0.71085  0.58673  0.20625  1.0000
  C   C3528     1.0  0.83784  0.94037  0.18506  1.0000
  C   C3529     1.0  0.84267  0.93279  0.17025  1.0000
  C   C3530     1.0  0.85110  0.94930  0.15407  1.0000
  H   H2808     1.0  0.97243  0.52070  0.10122  1.0000
  P   P115      1.0  0.85929  0.93949  0.13517  1.0000
  C   C3531     1.0  0.83854  0.91203  0.13713  1.0000
  C   C3532     1.0  0.86057  0.96177  0.11632  1.0000
  C   C3533     1.0  0.79191  0.75172  0.21928  1.0000
  H   H2809     1.0  0.71489  0.99550  0.18983  1.0000
  H   H2810     1.0  0.76744  0.81968  0.23460  1.0000
  H   H2811     1.0  0.89321  0.67172  0.20473  1.0000
  C   C3534     1.0  0.84273  0.95944  0.10837  1.0000
  C   C3535     1.0  0.80603  0.86976  0.13989  1.0000
  C   C3536     1.0  0.82948  0.87157  0.13497  1.0000
  C   C3537     1.0  0.84570  0.89263  0.13350  1.0000
  C   C3538     1.0  0.88118  0.52869  0.12892  1.0000
  H   H2812     1.0  0.88714  0.63744  0.22927  1.0000
  H   H2813     1.0  0.83104  0.92755  0.19748  1.0000
  H   H2814     1.0  0.83973  0.91405  0.17144  1.0000
  H   H2815     1.0  0.91335  0.61194  0.22802  1.0000
  C   C3539     1.0  0.96771  0.54687  0.22929  1.0000
  H   H2816     1.0  0.92635  0.92712  0.15550  1.0000
  H   H2817     1.0  0.86019  0.50504  0.15321  1.0000
  S   S475      1.0  0.82227  0.00103  0.05696  1.0000
  H   H2818     1.0  0.82726  0.94493  0.11369  1.0000
  H   H2819     1.0  0.79345  0.85337  0.14118  1.0000
  H   H2820     1.0  0.83501  0.85651  0.13244  1.0000
  H   H2821     1.0  0.86372  0.89351  0.12971  1.0000
  P   P116      1.0  0.68705  0.99731  0.06400  1.0000
  C   C3540     1.0  0.93562  0.62228  0.07120  1.0000
  C   C3541     1.0  0.92473  0.61594  0.08870  1.0000
  H   H2822     1.0  0.95286  0.63413  0.06622  1.0000
  H   H2823     1.0  0.93366  0.62288  0.09720  1.0000
  H   H2824     1.0  0.85134  0.99948  0.16679  1.0000
  H   H2825     1.0  0.73769  0.57058  0.05812  1.0000
  H   H2826     1.0  0.93222  0.93112  0.10248  1.0000
  H   H2827     1.0  0.71215  0.80081  0.12193  1.0000
  C   C3542     1.0  0.90451  0.66039  0.20391  1.0000
  C   C3543     1.0  0.71230  0.96694  0.10190  1.0000
  C   C3544     1.0  0.71231  0.57332  0.04411  1.0000
  C   C3545     1.0  0.70821  0.57503  0.02798  1.0000
  H   H2828     1.0  0.73113  0.78199  0.21005  1.0000
  C   C3546     1.0  0.73388  0.57148  0.04595  1.0000
  C   C3547     1.0  0.90148  0.59928  0.06642  1.0000
  S   S476      1.0  0.94733  0.55984  0.20366  1.0000
  P   P117      1.0  0.69066  0.57419  0.06229  1.0000
  S   S477      1.0  0.68662  0.55563  0.14493  1.0000
  H   H2829     1.0  0.68951  0.83220  0.14455  1.0000
  C   C3548     1.0  0.89055  0.59235  0.08404  1.0000
  C   C3549     1.0  0.87988  0.98161  0.10925  1.0000
  C   C3550     1.0  0.70555  0.56842  0.21369  1.0000
  P   P118      1.0  0.74906  0.88270  0.09204  1.0000
  C   C3551     1.0  0.70061  0.67277  0.05195  1.0000
  C   C3552     1.0  0.76857  0.82117  0.07376  1.0000
  C   C3553     1.0  0.75411  0.85735  0.08534  1.0000
  C   C3554     1.0  0.73118  0.89608  0.08096  1.0000
  H   H2830     1.0  0.77447  0.80745  0.06921  1.0000
  C   C3555     1.0  0.90229  0.60105  0.09511  1.0000
  H   H2831     1.0  0.80895  0.92445  0.14546  1.0000
  C   C3556     1.0  0.97338  0.73000  0.13209  1.0000
  C   C3557     1.0  0.69832  0.75102  0.19009  1.0000
  C   C3558     1.0  0.76586  0.84013  0.06217  1.0000
  C   C3559     1.0  0.75880  0.85824  0.06789  1.0000
  C   C3560     1.0  0.69795  0.58745  0.09140  1.0000
  C   C3561     1.0  0.72186  0.81560  0.04643  1.0000
  H   H2832     1.0  0.77339  0.96122  0.04174  1.0000
  C   C3562     1.0  0.92397  0.61404  0.06008  1.0000
  H   H2833     1.0  0.93216  0.61962  0.04644  1.0000
  H   H2834     1.0  0.67173  0.72899  0.13318  1.0000
  C   C3563     1.0  0.72560  0.74438  0.21263  1.0000
  H   H2835     1.0  0.76970  0.84113  0.04865  1.0000
  H   H2836     1.0  0.75765  0.87327  0.05861  1.0000
  C   C3564     1.0  0.72530  0.57467  0.01406  1.0000
  H   H2837     1.0  0.70354  0.59797  0.11366  1.0000
  C   C3565     1.0  0.70339  0.84835  0.13890  1.0000
  H   H2838     1.0  0.78061  0.88759  0.14710  1.0000
  H   H2839     1.0  0.83043  0.97439  0.08751  1.0000
  C   C3566     1.0  0.73391  0.87483  0.11442  1.0000
  C   C3567     1.0  0.71514  0.88255  0.07471  1.0000
  C   C3568     1.0  0.72640  0.62279  0.09048  1.0000
  H   H2840     1.0  0.97139  0.59346  0.09405  1.0000
  C   C3569     1.0  0.68398  0.92504  0.18227  1.0000
  H   H2841     1.0  0.69180  0.92873  0.19220  1.0000
  C   C3570     1.0  0.70141  0.89320  0.06611  1.0000
  H   H2842     1.0  0.71083  0.84249  0.11397  1.0000
  C   C3571     1.0  0.69366  0.96721  0.21172  1.0000
  C   C3572     1.0  0.70463  0.59300  0.07346  1.0000
  H   H2843     1.0  0.93301  0.57667  0.16388  1.0000
  H   H2844     1.0  0.78758  0.63858  0.14169  1.0000
  C   C3573     1.0  0.75266  0.61701  0.14918  1.0000
  C   C3574     1.0  0.73912  0.89017  0.12443  1.0000
  H   H2845     1.0  0.71330  0.86387  0.07637  1.0000
  C   C3575     1.0  0.71565  0.85410  0.12166  1.0000
  C   C3576     1.0  0.69733  0.76943  0.09438  1.0000
  C   C3577     1.0  0.76328  0.65105  0.22252  1.0000
  S   S478      1.0  0.80552  0.00055  0.01382  1.0000
  H   H2846     1.0  0.72235  0.57570  0.23296  1.0000
  C   C3578     1.0  0.80088  0.58844  0.10198  1.0000
  H   H2847     1.0  0.78342  0.58083  0.10184  1.0000
  C   C3579     1.0  0.72203  0.61383  0.06413  1.0000
  H   H2848     1.0  0.73470  0.63435  0.09706  1.0000
  C   C3580     1.0  0.72667  0.88449  0.14161  1.0000
  H   H2849     1.0  0.73048  0.89646  0.14931  1.0000
  H   H2850     1.0  0.82880  0.76078  0.21383  1.0000
  H   H2851     1.0  0.73453  0.84880  0.02675  1.0000
  C   C3581     1.0  0.73216  0.66391  0.20487  1.0000
  C   C3582     1.0  0.78378  0.69015  0.00285  1.0000
  H   H2852     1.0  0.72173  0.99999  0.08263  1.0000
  H   H2853     1.0  0.69948  0.85918  0.16227  1.0000
  H   H2854     1.0  0.77012  0.76591  0.02916  1.0000
  C   C3583     1.0  0.90044  0.93468  0.11686  1.0000
  H   H2855     1.0  0.89338  0.93668  0.10597  1.0000
  H   H2856     1.0  0.72712  0.61875  0.05028  1.0000
  C   C3584     1.0  0.73295  0.62856  0.07263  1.0000
  C   C3585     1.0  0.77617  0.62086  0.14747  1.0000
  C   C3586     1.0  0.96572  0.68617  0.15566  1.0000
  S   S479      1.0  0.71226  0.67184  0.19433  1.0000
  C   C3587     1.0  0.67693  0.94265  0.17240  1.0000
  H   H2857     1.0  0.74633  0.64463  0.06538  1.0000
  C   C3588     1.0  0.69231  0.95268  0.22772  1.0000
  H   H2858     1.0  0.66713  0.77415  0.05449  1.0000
  C   C3589     1.0  0.77625  0.74146  0.19673  1.0000
  H   H2859     1.0  0.83460  0.75493  0.18468  1.0000
  H   H2860     1.0  0.89272  0.59354  0.05746  1.0000
  H   H2861     1.0  0.86389  0.61747  0.10027  1.0000
  H   H2862     1.0  0.70745  0.78757  0.19027  1.0000
  C   C3590     1.0  0.73376  0.98601  0.20789  1.0000
  Fe  Fe242     1.0  0.67770  0.51855  0.14297  1.0000
  C   C3591     1.0  0.77280  0.74491  0.21313  1.0000
  C   C3592     1.0  0.96252  0.62539  0.13089  1.0000
  H   H2863     1.0  0.97998  0.51128  0.12949  1.0000
  H   H2864     1.0  0.72637  0.96089  0.16868  1.0000
  C   C3593     1.0  0.76984  0.57920  0.16135  1.0000
  S   S480      1.0  0.69473  0.69252  0.11715  1.0000
  C   C3594     1.0  0.71201  0.56225  0.22885  1.0000
  C   C3595     1.0  0.78471  0.60214  0.15378  1.0000
  C   C3596     1.0  0.73768  0.59447  0.15717  1.0000
  C   C3597     1.0  0.69645  0.94477  0.10938  1.0000
  H   H2865     1.0  0.75772  0.99082  0.17160  1.0000
  H   H2866     1.0  0.67962  0.95998  0.17457  1.0000
  H   H2867     1.0  0.73669  0.80997  0.04158  1.0000
  H   H2868     1.0  0.66984  0.83853  0.06278  1.0000
  H   H2869     1.0  0.68953  0.76291  0.14299  1.0000
  C   C3598     1.0  0.66858  0.58572  0.05543  1.0000
  H   H2870     1.0  0.86055  0.98659  0.14073  1.0000
  C   C3599     1.0  0.77738  0.51170  0.15884  1.0000
  H   H2871     1.0  0.82456  0.54197  0.12287  1.0000
  C   C3600     1.0  0.75747  0.80144  0.24072  1.0000
  C   C3601     1.0  0.70915  0.77009  0.19525  1.0000
  C   C3602     1.0  0.68356  0.74978  0.06683  1.0000
  C   C3603     1.0  0.74690  0.69873  0.00582  1.0000
  C   C3604     1.0  0.69221  0.55117  0.20811  1.0000
  C   C3605     1.0  0.76973  0.52903  0.12733  1.0000
  H   H2872     1.0  0.84448  0.58406  0.06286  1.0000
  Fe  Fe243     1.0  0.97295  0.54992  0.18471  1.0000
  H   H2873     1.0  0.67479  0.51423  0.21376  1.0000
  C   C3606     1.0  0.69116  0.76491  0.12949  1.0000
  C   C3607     1.0  0.72550  0.64257  0.21766  1.0000
  H   H2874     1.0  0.80277  0.60580  0.15291  1.0000
  C   C3608     1.0  0.73440  0.97703  0.15845  1.0000
  H   H2875     1.0  0.76840  0.79017  0.21834  1.0000
  H   H2876     1.0  0.71326  0.96700  0.14230  1.0000
  H   H2877     1.0  0.67777  0.60596  0.14096  1.0000
  H   H2878     1.0  0.68771  0.66331  0.04715  1.0000
  C   C3609     1.0  0.74618  0.57562  0.16320  1.0000
  C   C3610     1.0  0.82953  0.62068  0.10476  1.0000
  C   C3611     1.0  0.70207  0.84606  0.04380  1.0000
  H   H2879     1.0  0.77056  0.56131  0.13429  1.0000
  P   P119      1.0  0.70409  0.77188  0.07171  1.0000
  H   H2880     1.0  0.89421  0.59620  0.10871  1.0000
  H   H2881     1.0  0.73416  0.55825  0.16926  1.0000
  H   H2882     1.0  0.67824  0.61884  0.06180  1.0000
  H   H2883     1.0  0.76181  0.73613  0.19173  1.0000
  H   H2884     1.0  0.89777  0.55283  0.10415  1.0000
  C   C3612     1.0  0.73187  0.76672  0.06512  1.0000
  C   C3613     1.0  0.85549  0.55618  0.07715  1.0000
  P   P120      1.0  0.86215  0.57172  0.09257  1.0000
  H   H2885     1.0  0.74491  0.70685  0.07092  1.0000
  H   H2886     1.0  0.70134  0.86324  0.03700  1.0000
  C   C3614     1.0  0.71215  0.95465  0.23351  1.0000
  H   H2887     1.0  0.78876  0.93708  0.22498  1.0000
  H   H2888     1.0  0.97610  0.61613  0.21279  1.0000
  C   C3615     1.0  0.71428  0.98385  0.20189  1.0000
  H   H2889     1.0  0.83993  0.52257  0.04431  1.0000
  H   H2890     1.0  0.76756  0.56988  0.03358  1.0000
  H   H2891     1.0  0.79283  0.75859  0.04991  1.0000
  C   C3616     1.0  0.73279  0.97131  0.22360  1.0000
  C   C3617     1.0  0.70406  0.80133  0.06089  1.0000
  C   C3618     1.0  0.67700  0.64920  0.00868  1.0000
  C   C3619     1.0  0.71240  0.98281  0.03833  1.0000
  C   C3620     1.0  0.76305  0.76491  0.04248  1.0000
  H   H2892     1.0  0.85604  0.50436  0.06694  1.0000
  C   C3621     1.0  0.95002  0.60200  0.13938  1.0000
  H   H2893     1.0  0.78459  0.56094  0.20100  1.0000
  C   C3622     1.0  0.73258  0.69741  0.06557  1.0000
  H   H2894     1.0  0.86076  0.58983  0.13237  1.0000
  C   C3623     1.0  0.68544  0.80995  0.06684  1.0000
  Fe  Fe244     1.0  0.66766  0.53987  0.17285  1.0000
  C   C3624     1.0  0.86137  0.55036  0.11176  1.0000
  H   H2895     1.0  0.81871  0.58076  0.13779  1.0000
  C   C3625     1.0  0.98355  0.70570  0.15485  1.0000
  C   C3626     1.0  0.88161  0.54482  0.11397  1.0000
  H   H2896     1.0  0.93763  0.67428  0.14514  1.0000
  H   H2897     1.0  0.70833  0.63091  0.22071  1.0000
  H   H2898     1.0  0.69584  0.72070  0.07789  1.0000
  C   C3627     1.0  0.71467  0.72536  0.20734  1.0000
  H   H2899     1.0  0.92741  0.57700  0.23118  1.0000
  C   C3628     1.0  0.85947  0.57130  0.15781  1.0000
  C   C3629     1.0  0.84979  0.57974  0.14493  1.0000
  C   C3630     1.0  0.82592  0.57475  0.14812  1.0000
  H   H2900     1.0  0.87799  0.57508  0.15528  1.0000
  H   H2901     1.0  0.73212  0.97109  0.01873  1.0000
  C   C3631     1.0  0.95539  0.71080  0.13297  1.0000
  H   H2902     1.0  0.69212  0.57710  0.02587  1.0000
  H   H2903     1.0  0.72423  0.80005  0.00204  1.0000
  H   H2904     1.0  0.78060  0.50484  0.17096  1.0000
  C   C3632     1.0  0.80675  0.61028  0.10546  1.0000
  C   C3633     1.0  0.66743  0.75599  0.05848  1.0000
  C   C3634     1.0  0.81759  0.57667  0.09822  1.0000
  C   C3635     1.0  0.76381  0.69237  0.01316  1.0000
  C   C3636     1.0  0.81144  0.56160  0.16437  1.0000
  C   C3637     1.0  0.84522  0.55740  0.17381  1.0000
  H   H2905     1.0  0.79371  0.61937  0.10821  1.0000
  H   H2906     1.0  0.85269  0.55024  0.18368  1.0000
  H   H2907     1.0  0.76782  0.70473  0.23814  1.0000
  Fe  Fe245     1.0  0.78963  0.99689  0.07654  1.0000
  P   P121      1.0  0.78057  0.55403  0.16774  1.0000
  C   C3638     1.0  0.82132  0.55230  0.17703  1.0000
  H   H2908     1.0  0.81378  0.97514  0.22544  1.0000
  C   C3639     1.0  0.84054  0.53862  0.12440  1.0000
  H   H2909     1.0  0.69075  0.71744  0.99777  1.0000
  C   C3640     1.0  0.85908  0.53380  0.07797  1.0000
  P   P122      1.0  0.74410  0.74007  0.22642  1.0000
  H   H2910     1.0  0.81259  0.55982  0.09542  1.0000
  H   H2911     1.0  0.72015  0.62552  0.00583  1.0000
  H   H2912     1.0  0.76578  0.51329  0.07927  1.0000
  P   P123      1.0  0.72115  0.70249  0.01851  1.0000
  C   C3641     1.0  0.77067  0.54532  0.20327  1.0000
  H   H2913     1.0  0.71451  0.67147  0.08952  1.0000
  C   C3642     1.0  0.68514  0.52761  0.21792  1.0000
  C   C3643     1.0  0.72709  0.98040  0.14360  1.0000
  S   S481      1.0  0.96185  0.52348  0.17057  1.0000
  C   C3644     1.0  0.69137  0.52147  0.23324  1.0000
  C   C3645     1.0  0.77566  0.53491  0.15415  1.0000
  H   H2914     1.0  0.83668  0.97010  0.19532  1.0000
  C   C3646     1.0  0.73411  0.70488  0.04818  1.0000
  H   H2915     1.0  0.76175  0.68885  0.02678  1.0000
  H   H2916     1.0  0.66562  0.92083  0.10866  1.0000
  H   H2917     1.0  0.70343  0.65239  0.02162  1.0000
  C   C3647     1.0  0.70391  0.78634  0.11756  1.0000
  S   S482      1.0  0.68454  0.56028  0.18902  1.0000
  C   C3648     1.0  0.76431  0.53828  0.18954  1.0000
  H   H2918     1.0  0.81081  0.54058  0.18926  1.0000
  C   C3649     1.0  0.77193  0.54351  0.13827  1.0000
  H   H2919     1.0  0.68935  0.88291  0.06102  1.0000
  H   H2920     1.0  0.89691  0.52470  0.13061  1.0000
  C   C3650     1.0  0.94167  0.59508  0.15719  1.0000
  H   H2921     1.0  0.67419  0.63032  0.01060  1.0000
  C   C3651     1.0  0.84109  0.96440  0.18384  1.0000
  C   C3652     1.0  0.98666  0.60137  0.09737  1.0000
  C   C3653     1.0  0.75931  0.53191  0.22009  1.0000
  C   C3654     1.0  0.68442  0.83216  0.05828  1.0000
  C   C3655     1.0  0.84459  0.53202  0.05332  1.0000
  H   H2922     1.0  0.82418  0.51362  0.14913  1.0000
  C   C3656     1.0  0.70374  0.76455  0.01610  1.0000
  H   H2923     1.0  0.94492  0.71264  0.12415  1.0000
  H   H2924     1.0  0.77607  0.75524  0.08055  1.0000
  C   C3657     1.0  0.71828  0.69252  0.04116  1.0000
  H   H2925     1.0  0.69679  0.90471  0.23467  1.0000
  C   C3658     1.0  0.75092  0.57111  0.03202  1.0000
  H   H2926     1.0  0.83424  0.56235  0.04243  1.0000
  C   C3659     1.0  0.72267  0.76681  0.20652  1.0000
  C   C3660     1.0  0.68360  0.72598  0.07141  1.0000
  C   C3661     1.0  0.70691  0.78867  0.10008  1.0000
  H   H2927     1.0  0.71725  0.80525  0.09099  1.0000
  H   H2928     1.0  0.69901  0.96626  0.04315  1.0000
  S   S483      1.0  0.78262  0.64355  0.23387  1.0000
  C   C3662     1.0  0.76644  0.75898  0.07139  1.0000
  H   H2929     1.0  0.67153  0.79929  0.07798  1.0000
  C   C3663     1.0  0.68651  0.69834  0.00162  1.0000
  C   C3664     1.0  0.75698  0.63208  0.99862  1.0000
  H   H2930     1.0  0.88770  0.93274  0.15923  1.0000
  C   C3665     1.0  0.68064  0.66242  0.12028  1.0000
  C   C3666     1.0  0.67732  0.54489  0.07670  1.0000
  C   C3667     1.0  0.86050  0.51757  0.14163  1.0000
  C   C3668     1.0  0.84937  0.98093  0.16780  1.0000
  S   S484      1.0  0.98207  0.73231  0.05939  1.0000
  H   H2931     1.0  0.97713  0.67154  0.19790  1.0000
  H   H2932     1.0  0.80748  0.99168  0.10645  1.0000
  H   H2933     1.0  0.95506  0.64913  0.01281  1.0000
  H   H2934     1.0  0.81692  0.98736  0.13436  1.0000
  C   C3669     1.0  0.74351  0.77470  0.99974  1.0000
  H   H2935     1.0  0.71700  0.70800  0.21156  1.0000
  C   C3670     1.0  0.67780  0.93812  0.10287  1.0000
  C   C3671     1.0  0.98752  0.65716  0.17663  1.0000
  H   H2936     1.0  0.86595  0.52550  0.08779  1.0000
  C   C3672     1.0  0.81414  0.75533  0.20905  1.0000
  S   S485      1.0  0.97606  0.56014  0.12277  1.0000
  H   H2937     1.0  0.97669  0.53821  0.22112  1.0000
  H   H2938     1.0  0.89375  0.98399  0.11527  1.0000
  S   S486      1.0  0.98880  0.69758  0.09291  1.0000
  H   H2939     1.0  0.76013  0.57322  0.00517  1.0000
  H   H2940     1.0  0.80372  0.99231  0.19761  1.0000
  H   H2941     1.0  0.97691  0.74674  0.12261  1.0000
  H   H2942     1.0  0.67472  0.99496  0.03176  1.0000
  C   C3673     1.0  0.67964  0.50590  0.09027  1.0000
  C   C3674     1.0  0.84019  0.52241  0.13931  1.0000
  H   H2943     1.0  0.68608  0.64957  0.07762  1.0000
  C   C3675     1.0  0.66927  0.89753  0.16723  1.0000
  H   H2944     1.0  0.68592  0.50323  0.24079  1.0000
  H   H2945     1.0  0.80065  0.00282  0.16804  1.0000
  C   C3676     1.0  0.73662  0.50895  0.10017  1.0000
  H   H2946     1.0  0.76687  0.53578  0.11511  1.0000
  C   C3677     1.0  0.74950  0.69717  0.24360  1.0000
  C   C3678     1.0  0.73775  0.00104  0.13034  1.0000
  S   S487      1.0  0.99054  0.68077  0.05715  1.0000
  C   C3679     1.0  0.66524  0.66114  0.99890  1.0000
  C   C3680     1.0  0.98558  0.67641  0.99720  1.0000
  H   H2947     1.0  0.97696  0.65975  0.13327  1.0000
  H   H2948     1.0  0.67679  0.73275  0.10267  1.0000
  C   C3681     1.0  0.78846  0.96645  0.99905  1.0000
  H   H2949     1.0  0.71167  0.94366  0.24578  1.0000
  C   C3682     1.0  0.86364  0.99592  0.08648  1.0000
  H   H2950     1.0  0.98980  0.68229  0.00789  1.0000
  H   H2951     1.0  0.75823  0.74598  0.99855  1.0000
  C   C3683     1.0  0.66504  0.65704  0.11082  1.0000
  C   C3684     1.0  0.88131  0.99867  0.09444  1.0000
  H   H2952     1.0  0.66585  0.87999  0.16541  1.0000
  P   P124      1.0  0.66492  0.93328  0.24128  1.0000
  C   C3685     1.0  0.99042  0.66559  0.19074  1.0000
  C   C3686     1.0  0.73380  0.50540  0.20980  1.0000
  H   H2953     1.0  0.66125  0.67119  0.10253  1.0000
  C   C3687     1.0  0.66310  0.91531  0.15694  1.0000
  C   C3688     1.0  0.99150  0.50915  0.11848  1.0000
  C   C3689     1.0  0.77082  0.50577  0.13222  1.0000
  H   H2954     1.0  0.69795  0.70895  0.24480  1.0000
  H   H2955     1.0  0.98850  0.62212  0.23822  1.0000
  Fe  Fe246     1.0  0.99331  0.51210  0.17340  1.0000
  C   C3690     1.0  0.99316  0.58850  0.11073  1.0000
  C   C3691     1.0  0.71115  0.00133  0.04596  1.0000
  H   H2956     1.0  0.99416  0.63497  0.07873  1.0000
  H   H2957     1.0  0.76268  0.54380  0.34205  1.0000
  H   H2958     1.0  0.80694  0.65358  0.30750  1.0000
  Fe  Fe247     1.0  0.76763  0.60874  0.25407  1.0000
  H   H2959     1.0  0.83490  0.60910  0.24739  1.0000
  C   C3692     1.0  0.83467  0.52433  0.34714  1.0000
  C   C3693     1.0  0.90218  0.60129  0.39733  1.0000
  C   C3694     1.0  0.68006  0.76385  0.41711  1.0000
  C   C3695     1.0  0.71786  0.66320  0.26077  1.0000
  H   H2960     1.0  0.76402  0.97610  0.26983  1.0000
  H   H2961     1.0  0.73341  0.99846  0.46397  1.0000
  H   H2962     1.0  0.86276  0.53160  0.38967  1.0000
  Fe  Fe248     1.0  0.92232  0.60956  0.30146  1.0000
  S   S488      1.0  0.93667  0.58086  0.31297  1.0000
  S   S489      1.0  0.88492  0.60850  0.31017  1.0000
  Fe  Fe249     1.0  0.96971  0.64156  0.28010  1.0000
  C   C3696     1.0  0.91956  0.63056  0.45150  1.0000
  Fe  Fe250     1.0  0.96395  0.61017  0.31566  1.0000
  S   S490      1.0  0.94275  0.61521  0.27443  1.0000
  S   S491      1.0  0.94787  0.63837  0.30617  1.0000
  S   S492      1.0  0.77980  0.60430  0.27769  1.0000
  H   H2963     1.0  0.87999  0.51443  0.36081  1.0000
  Fe  Fe251     1.0  0.78377  0.56987  0.27333  1.0000
  H   H2964     1.0  0.69382  0.00011  0.34037  1.0000
  C   C3697     1.0  0.78969  0.60583  0.39840  1.0000
  H   H2965     1.0  0.68815  0.53616  0.42621  1.0000
  C   C3698     1.0  0.79052  0.97832  0.24758  1.0000
  C   C3699     1.0  0.95395  0.51206  0.31416  1.0000
  H   H2966     1.0  0.79753  0.54570  0.39252  1.0000
  H   H2967     1.0  0.94485  0.61585  0.42400  1.0000
  H   H2968     1.0  0.86153  0.55699  0.27471  1.0000
  C   C3700     1.0  0.76141  0.97798  0.41194  1.0000
  H   H2969     1.0  0.66961  0.59359  0.38791  1.0000
  H   H2970     1.0  0.89035  0.59688  0.38987  1.0000
  C   C3701     1.0  0.74484  0.95766  0.48793  1.0000
  C   C3702     1.0  0.66204  0.66694  0.43511  1.0000
  H   H2971     1.0  0.78306  0.61184  0.37385  1.0000
  H   H2972     1.0  0.93865  0.53780  0.34825  1.0000
  H   H2973     1.0  0.86957  0.59571  0.35209  1.0000
  S   S493      1.0  0.74002  0.59310  0.48204  1.0000
  C   C3703     1.0  0.87361  0.54695  0.37950  1.0000
  H   H2974     1.0  0.69342  0.60346  0.29195  1.0000
  Fe  Fe252     1.0  0.75800  0.56794  0.47305  1.0000
  S   S494      1.0  0.75404  0.55978  0.44849  1.0000
  C   C3704     1.0  0.95220  0.52462  0.47675  1.0000
  S   S495      1.0  0.79231  0.58789  0.47439  1.0000
  S   S496      1.0  0.71731  0.70063  0.45414  1.0000
  C   C3705     1.0  0.78766  0.59985  0.38334  1.0000
  H   H2975     1.0  0.93651  0.65406  0.42609  1.0000
  C   C3706     1.0  0.79092  0.57834  0.38083  1.0000
  C   C3707     1.0  0.72594  0.54367  0.45021  1.0000
  C   C3708     1.0  0.71720  0.54664  0.43594  1.0000
  C   C3709     1.0  0.69485  0.53358  0.43718  1.0000
  C   C3710     1.0  0.66879  0.68264  0.41880  1.0000
  H   H2976     1.0  0.72021  0.73669  0.26201  1.0000
  C   C3711     1.0  0.71241  0.52738  0.46563  1.0000
  H   H2977     1.0  0.72765  0.55917  0.42398  1.0000
  C   C3712     1.0  0.74377  0.79488  0.25759  1.0000
  C   C3713     1.0  0.85741  0.54647  0.47498  1.0000
  H   H2978     1.0  0.74660  0.55401  0.39274  1.0000
  C   C3714     1.0  0.76938  0.66510  0.47129  1.0000
  C   C3715     1.0  0.74589  0.65403  0.47796  1.0000
  C   C3716     1.0  0.72992  0.66525  0.47307  1.0000
  C   C3717     1.0  0.73735  0.68737  0.46113  1.0000
  C   C3718     1.0  0.76092  0.69876  0.45460  1.0000
  C   C3719     1.0  0.77694  0.68772  0.45983  1.0000
  H   H2979     1.0  0.77384  0.99850  0.45542  1.0000
  H   H2980     1.0  0.71188  0.65646  0.47833  1.0000
  H   H2981     1.0  0.76674  0.71596  0.44543  1.0000
  H   H2982     1.0  0.79515  0.69640  0.45464  1.0000
  H   H2983     1.0  0.96454  0.67187  0.46608  1.0000
  H   H2984     1.0  0.88478  0.51642  0.45486  1.0000
  C   C3720     1.0  0.94030  0.53493  0.37433  1.0000
  C   C3721     1.0  0.89734  0.54987  0.37374  1.0000
  S   S497      1.0  0.77443  0.57583  0.24842  1.0000
  C   C3722     1.0  0.98782  0.54419  0.36059  1.0000
  C   C3723     1.0  0.81260  0.61501  0.34166  1.0000
  C   C3724     1.0  0.77756  0.59925  0.33451  1.0000
  C   C3725     1.0  0.71274  0.52204  0.37394  1.0000
  S   S498      1.0  0.71336  0.53029  0.25756  1.0000
  H   H2985     1.0  0.93518  0.57737  0.25912  1.0000
  H   H2986     1.0  0.67622  0.56495  0.28795  1.0000
  C   C3726     1.0  0.80285  0.63788  0.31803  1.0000
  C   C3727     1.0  0.78278  0.61980  0.32117  1.0000
  H   H2987     1.0  0.74327  0.80804  0.26464  1.0000
  H   H2988     1.0  0.76138  0.96474  0.43830  1.0000
  H   H2989     1.0  0.70746  0.94116  0.45183  1.0000
  C   C3728     1.0  0.70426  0.56903  0.33097  1.0000
  C   C3729     1.0  0.69207  0.57356  0.34561  1.0000
  C   C3730     1.0  0.67462  0.55535  0.35821  1.0000
  C   C3731     1.0  0.68711  0.74469  0.42493  1.0000
  C   C3732     1.0  0.68116  0.52815  0.34136  1.0000
  C   C3733     1.0  0.69860  0.54634  0.32878  1.0000
  H   H2990     1.0  0.90975  0.55449  0.43490  1.0000
  H   H2991     1.0  0.92082  0.55890  0.40379  1.0000
  H   H2992     1.0  0.70619  0.96798  0.35310  1.0000
  H   H2993     1.0  0.70777  0.54273  0.31749  1.0000
  C   C3734     1.0  0.71946  0.53222  0.38630  1.0000
  Fe  Fe253     1.0  0.74314  0.58403  0.29153  1.0000
  C   C3735     1.0  0.73127  0.96075  0.36621  1.0000
  S   S499      1.0  0.81521  0.55731  0.27495  1.0000
  C   C3736     1.0  0.86645  0.59544  0.29927  1.0000
  C   C3737     1.0  0.84463  0.59917  0.30121  1.0000
  C   C3738     1.0  0.82888  0.58773  0.29370  1.0000
  C   C3739     1.0  0.83487  0.57245  0.28414  1.0000
  C   C3740     1.0  0.85681  0.56886  0.28204  1.0000
  C   C3741     1.0  0.87263  0.58042  0.28951  1.0000
  H   H2994     1.0  0.83982  0.61081  0.30866  1.0000
  H   H2995     1.0  0.81195  0.59037  0.29564  1.0000
  H   H2996     1.0  0.88939  0.57734  0.28799  1.0000
  H   H2997     1.0  0.67186  0.57539  0.43893  1.0000
  C   C3742     1.0  0.71535  0.97198  0.43027  1.0000
  H   H2998     1.0  0.72930  0.75745  0.43831  1.0000
  C   C3743     1.0  0.96414  0.57747  0.43416  1.0000
  C   C3744     1.0  0.88921  0.51847  0.44120  1.0000
  C   C3745     1.0  0.92582  0.60612  0.39009  1.0000
  H   H2999     1.0  0.88725  0.64541  0.41909  1.0000
  H   H3000     1.0  0.96541  0.67972  0.43528  1.0000
  C   C3746     1.0  0.87728  0.58317  0.35844  1.0000
  S   S500      1.0  0.73040  0.59166  0.26825  1.0000
  H   H3001     1.0  0.78202  0.76635  0.46419  1.0000
  H   H3002     1.0  0.86054  0.61068  0.47319  1.0000
  C   C3747     1.0  0.67423  0.57954  0.45056  1.0000
  H   H3003     1.0  0.98580  0.54730  0.47361  1.0000
  C   C3748     1.0  0.73429  0.75782  0.44995  1.0000
  H   H3004     1.0  0.70970  0.72250  0.42173  1.0000
  S   S501      1.0  0.94713  0.59208  0.49135  1.0000
  H   H3005     1.0  0.79565  0.59455  0.42303  1.0000
  C   C3749     1.0  0.86362  0.56352  0.37183  1.0000
  H   H3006     1.0  0.83272  0.58116  0.33735  1.0000
  H   H3007     1.0  0.70725  0.52889  0.39862  1.0000
  C   C3750     1.0  0.91842  0.62713  0.46893  1.0000
  Fe  Fe254     1.0  0.73803  0.55818  0.26436  1.0000
  H   H3008     1.0  0.69940  0.74760  0.46594  1.0000
  H   H3009     1.0  0.69150  0.69259  0.39335  1.0000
  C   C3751     1.0  0.74183  0.54667  0.38280  1.0000
  C   C3752     1.0  0.90338  0.53989  0.42995  1.0000
  H   H3010     1.0  0.69533  0.51098  0.37663  1.0000
  C   C3753     1.0  0.90096  0.58654  0.35299  1.0000
  H   H3011     1.0  0.99000  0.54150  0.38633  1.0000
  C   C3754     1.0  0.73082  0.75463  0.25594  1.0000
  C   C3755     1.0  0.75077  0.54072  0.35447  1.0000
  C   C3756     1.0  0.68548  0.89673  0.24749  1.0000
  C   C3757     1.0  0.71027  0.69936  0.24731  1.0000
  C   C3758     1.0  0.69079  0.77572  0.39978  1.0000
  C   C3759     1.0  0.84139  0.54859  0.33931  1.0000
  C   C3760     1.0  0.66320  0.56242  0.46616  1.0000
  C   C3761     1.0  0.79368  0.98968  0.42345  1.0000
  C   C3762     1.0  0.91101  0.57007  0.36065  1.0000
  H   H3012     1.0  0.83340  0.64947  0.32578  1.0000
  C   C3763     1.0  0.70343  0.96919  0.39422  1.0000
  H   H3013     1.0  0.75348  0.66385  0.25635  1.0000
  C   C3764     1.0  0.76258  0.93453  0.24753  1.0000
  C   C3765     1.0  0.74143  0.67389  0.25397  1.0000
  H   H3014     1.0  0.82448  0.61339  0.34936  1.0000
  H   H3015     1.0  0.80063  0.55636  0.41913  1.0000
  H   H3016     1.0  0.77049  0.76719  0.43748  1.0000
  C   C3766     1.0  0.97033  0.58854  0.44625  1.0000
  C   C3767     1.0  0.66833  0.59822  0.31566  1.0000
  C   C3768     1.0  0.95499  0.53558  0.38503  1.0000
  H   H3017     1.0  0.91155  0.60180  0.34258  1.0000
  C   C3769     1.0  0.97334  0.54320  0.34988  1.0000
  C   C3770     1.0  0.90139  0.52349  0.40583  1.0000
  C   C3771     1.0  0.66801  0.96282  0.32672  1.0000
  C   C3772     1.0  0.96086  0.55859  0.25578  1.0000
  H   H3018     1.0  0.72847  0.74351  0.39109  1.0000
  S   S502      1.0  0.97218  0.60915  0.34099  1.0000
  H   H3019     1.0  0.71983  0.76641  0.27827  1.0000
  C   C3773     1.0  0.69249  0.99143  0.45422  1.0000
  H   H3020     1.0  0.82822  0.65875  0.44874  1.0000
  C   C3774     1.0  0.97825  0.58470  0.41743  1.0000
  S   S503      1.0  0.96762  0.55959  0.27520  1.0000
  H   H3021     1.0  0.87547  0.59859  0.41953  1.0000
  C   C3775     1.0  0.70448  0.73741  0.41556  1.0000
  S   S504      1.0  0.66641  0.91176  0.49088  1.0000
  H   H3022     1.0  0.71641  0.77756  0.37706  1.0000
  H   H3023     1.0  0.97402  0.57531  0.40826  1.0000
  C   C3776     1.0  0.95240  0.66495  0.44466  1.0000
  C   C3777     1.0  0.71502  0.74923  0.39832  1.0000
  Fe  Fe255     1.0  0.66119  0.87906  0.48188  1.0000
  C   C3778     1.0  0.72386  0.75157  0.48065  1.0000
  H   H3024     1.0  0.84566  0.51358  0.34335  1.0000
  C   C3779     1.0  0.70821  0.76840  0.39045  1.0000
  H   H3025     1.0  0.68397  0.66758  0.26265  1.0000
  C   C3780     1.0  0.85747  0.65346  0.43225  1.0000
  C   C3781     1.0  0.87537  0.62547  0.44581  1.0000
  C   C3782     1.0  0.84263  0.63413  0.46258  1.0000
  H   H3026     1.0  0.92938  0.57326  0.35618  1.0000
  H   H3027     1.0  0.68454  0.96938  0.25696  1.0000
  C   C3783     1.0  0.68433  0.81582  0.46397  1.0000
  C   C3784     1.0  0.77118  0.97636  0.42573  1.0000
  H   H3028     1.0  0.77125  0.62160  0.31316  1.0000
  C   C3785     1.0  0.66762  0.78881  0.44332  1.0000
  H   H3029     1.0  0.79651  0.98894  0.49010  1.0000
  C   C3786     1.0  0.79583  0.56276  0.39378  1.0000
  H   H3030     1.0  0.69602  0.59128  0.34707  1.0000
  C   C3787     1.0  0.79918  0.52783  0.36408  1.0000
  C   C3788     1.0  0.81360  0.51396  0.35957  1.0000
  H   H3031     1.0  0.76177  0.58576  0.33659  1.0000
  H   H3032     1.0  0.86647  0.51991  0.49193  1.0000
  C   C3789     1.0  0.90359  0.57209  0.46646  1.0000
  C   C3790     1.0  0.67380  0.86553  0.27395  1.0000
  P   P125      1.0  0.78666  0.56990  0.36190  1.0000
  H   H3033     1.0  0.77947  0.95543  0.47987  1.0000
  C   C3791     1.0  0.71747  0.75214  0.46551  1.0000
  C   C3792     1.0  0.94965  0.53846  0.35673  1.0000
  C   C3793     1.0  0.87266  0.53695  0.48247  1.0000
  C   C3794     1.0  0.73054  0.77146  0.26522  1.0000
  H   H3034     1.0  0.78680  0.62223  0.40042  1.0000
  H   H3035     1.0  0.68427  0.52967  0.29155  1.0000
  C   C3795     1.0  0.74712  0.75608  0.48038  1.0000
  H   H3036     1.0  0.67922  0.73537  0.43830  1.0000
  H   H3037     1.0  0.67612  0.84976  0.28159  1.0000
  C   C3796     1.0  0.75757  0.55140  0.36671  1.0000
  C   C3797     1.0  0.67764  0.51323  0.30156  1.0000
  C   C3798     1.0  0.85965  0.62229  0.46160  1.0000
  C   C3799     1.0  0.90947  0.54238  0.41234  1.0000
  H   H3038     1.0  0.94507  0.52129  0.30629  1.0000
  C   C3800     1.0  0.79771  0.56875  0.40886  1.0000
  H   H3039     1.0  0.66916  0.61003  0.41259  1.0000
  P   P126      1.0  0.90952  0.52731  0.38300  1.0000
  C   C3801     1.0  0.66923  0.53256  0.35613  1.0000
  C   C3802     1.0  0.71107  0.96671  0.36493  1.0000
  H   H3040     1.0  0.73993  0.63693  0.48716  1.0000
  C   C3803     1.0  0.90913  0.60854  0.42370  1.0000
  C   C3804     1.0  0.89577  0.54968  0.47810  1.0000
  H   H3041     1.0  0.85304  0.57592  0.45772  1.0000
  C   C3805     1.0  0.94453  0.56915  0.25078  1.0000
  H   H3042     1.0  0.94846  0.53202  0.39873  1.0000
  C   C3806     1.0  0.97672  0.51258  0.30723  1.0000
  H   H3043     1.0  0.96020  0.58189  0.45945  1.0000
  S   S505      1.0  0.72656  0.59205  0.31575  1.0000
  C   C3807     1.0  0.88829  0.58205  0.45921  1.0000
  C   C3808     1.0  0.75752  0.76304  0.44952  1.0000
  H   H3044     1.0  0.93237  0.60559  0.37701  1.0000
  P   P127      1.0  0.89834  0.61155  0.44491  1.0000
  C   C3809     1.0  0.87457  0.64167  0.43122  1.0000
  C   C3810     1.0  0.96962  0.52261  0.44325  1.0000
  C   C3811     1.0  0.94105  0.61121  0.39982  1.0000
  H   H3045     1.0  0.72312  0.51842  0.34844  1.0000
  C   C3812     1.0  0.93814  0.51157  0.46898  1.0000
  Fe  Fe256     1.0  0.68285  0.68648  0.47365  1.0000
  H   H3046     1.0  0.95933  0.61455  0.39427  1.0000
  H   H3047     1.0  0.90511  0.61291  0.47864  1.0000
  S   S506      1.0  0.69677  0.87604  0.48014  1.0000
  C   C3813     1.0  0.84144  0.64960  0.44791  1.0000
  C   C3814     1.0  0.93275  0.61213  0.41663  1.0000
  C   C3815     1.0  0.86522  0.56883  0.46323  1.0000
  H   H3048     1.0  0.76908  0.71999  0.48335  1.0000
  H   H3049     1.0  0.85674  0.66576  0.42095  1.0000
  C   C3816     1.0  0.76395  0.76230  0.46468  1.0000
  H   H3050     1.0  0.68786  0.95882  0.47267  1.0000
  H   H3051     1.0  0.67274  0.82340  0.41310  1.0000
  Fe  Fe257     1.0  0.95923  0.58873  0.28622  1.0000
  H   H3052     1.0  0.92142  0.58189  0.46348  1.0000
  S   S507      1.0  0.66496  0.64791  0.48519  1.0000
  C   C3817     1.0  0.79262  0.59652  0.34475  1.0000
  C   C3818     1.0  0.82705  0.56252  0.34381  1.0000
  H   H3053     1.0  0.71436  0.80351  0.45837  1.0000
  H   H3054     1.0  0.68391  0.99896  0.46355  1.0000
  C   C3819     1.0  0.97500  0.53697  0.46769  1.0000
  H   H3055     1.0  0.71056  0.74745  0.49249  1.0000
  S   S508      1.0  0.97982  0.52041  0.42252  1.0000
  C   C3820     1.0  0.79477  0.59030  0.41112  1.0000
  H   H3056     1.0  0.74189  0.95725  0.35540  1.0000
  H   H3057     1.0  0.83933  0.53684  0.47876  1.0000
  C   C3821     1.0  0.72413  0.96404  0.39540  1.0000
  C   C3822     1.0  0.73768  0.95921  0.38143  1.0000
  P   P128      1.0  0.73226  0.96071  0.41518  1.0000
  C   C3823     1.0  0.66636  0.56698  0.48139  1.0000
  C   C3824     1.0  0.68814  0.87620  0.25739  1.0000
  C   C3825     1.0  0.93614  0.65014  0.43947  1.0000
  C   C3826     1.0  0.97867  0.54051  0.37810  1.0000
  H   H3058     1.0  0.98047  0.54652  0.33623  1.0000
  S   S509      1.0  0.78929  0.65061  0.47710  1.0000
  H   H3059     1.0  0.71172  0.64493  0.26837  1.0000
  C   C3827     1.0  0.71381  0.99522  0.42530  1.0000
  C   C3828     1.0  0.75569  0.94569  0.26013  1.0000
  C   C3829     1.0  0.89383  0.60233  0.41411  1.0000
  H   H3060     1.0  0.94903  0.56250  0.43800  1.0000
  H   H3061     1.0  0.93384  0.63914  0.48753  1.0000
  C   C3830     1.0  0.72743  0.92929  0.42359  1.0000
  C   C3831     1.0  0.74466  0.91974  0.42821  1.0000
  C   C3832     1.0  0.74025  0.89530  0.43471  1.0000
  C   C3833     1.0  0.71881  0.88022  0.43633  1.0000
  C   C3834     1.0  0.70176  0.88954  0.43148  1.0000
  C   C3835     1.0  0.70600  0.91396  0.42518  1.0000
  H   H3062     1.0  0.90750  0.54241  0.48411  1.0000
  H   H3063     1.0  0.67723  0.51050  0.33982  1.0000
  H   H3064     1.0  0.73968  0.93729  0.27003  1.0000
  C   C3836     1.0  0.81768  0.63557  0.32836  1.0000
  C   C3837     1.0  0.69445  0.96857  0.45933  1.0000
  C   C3838     1.0  0.93456  0.64213  0.47408  1.0000
  H   H3065     1.0  0.85764  0.55668  0.32953  1.0000
  S   S510      1.0  0.73442  0.93590  0.47813  1.0000
  C   C3839     1.0  0.99054  0.60694  0.44168  1.0000
  C   C3840     1.0  0.77392  0.99442  0.39616  1.0000
  H   H3066     1.0  0.69190  0.97156  0.40508  1.0000
  C   C3841     1.0  0.70227  0.67596  0.25750  1.0000
  C   C3842     1.0  0.70573  0.95876  0.44743  1.0000
  H   H3067     1.0  0.83024  0.63122  0.47474  1.0000
  H   H3068     1.0  0.76146  0.93089  0.42691  1.0000
  H   H3069     1.0  0.75338  0.88807  0.43866  1.0000
  H   H3070     1.0  0.71529  0.86133  0.44155  1.0000
  H   H3071     1.0  0.68506  0.87786  0.43288  1.0000
  H   H3072     1.0  0.69250  0.92089  0.42159  1.0000
  H   H3073     1.0  0.68574  0.79053  0.39340  1.0000
  C   C3843     1.0  0.95180  0.66073  0.46196  1.0000
  C   C3844     1.0  0.80576  0.55228  0.35621  1.0000
  H   H3074     1.0  0.69056  0.82595  0.47220  1.0000
  H   H3075     1.0  0.66529  0.55894  0.36949  1.0000
  H   H3076     1.0  0.68285  0.59218  0.49294  1.0000
  C   C3845     1.0  0.68021  0.58879  0.48111  1.0000
  C   C3846     1.0  0.69111  0.60601  0.46555  1.0000
  C   C3847     1.0  0.68840  0.60143  0.45014  1.0000
  C   C3848     1.0  0.68145  0.51699  0.45255  1.0000
  P   P129      1.0  0.70388  0.62341  0.43014  1.0000
  C   C3849     1.0  0.69054  0.64700  0.42608  1.0000
  C   C3850     1.0  0.73289  0.63438  0.43125  1.0000
  C   C3851     1.0  0.74433  0.65863  0.42576  1.0000
  C   C3852     1.0  0.76690  0.66658  0.42660  1.0000
  C   C3853     1.0  0.77800  0.65048  0.43324  1.0000
  C   C3854     1.0  0.76663  0.62637  0.43890  1.0000
  C   C3855     1.0  0.74417  0.61834  0.43791  1.0000
  C   C3856     1.0  0.69724  0.66282  0.40967  1.0000
  C   C3857     1.0  0.68644  0.68062  0.40607  1.0000
  H   H3077     1.0  0.66691  0.63687  0.45139  1.0000
  C   C3858     1.0  0.67801  0.59164  0.30128  1.0000
  C   C3859     1.0  0.67283  0.64916  0.43878  1.0000
  C   C3860     1.0  0.70425  0.61042  0.41247  1.0000
  C   C3861     1.0  0.68469  0.60626  0.40641  1.0000
  C   C3862     1.0  0.68491  0.59699  0.39236  1.0000
  C   C3863     1.0  0.70459  0.59170  0.38433  1.0000
  C   C3864     1.0  0.72419  0.59609  0.39012  1.0000
  C   C3865     1.0  0.72404  0.60526  0.40420  1.0000
  S   S511      1.0  0.74793  0.54900  0.28897  1.0000
  C   C3866     1.0  0.69041  0.51377  0.46668  1.0000
  C   C3867     1.0  0.77818  0.98375  0.49168  1.0000
  H   H3078     1.0  0.70206  0.62272  0.46551  1.0000
  Fe  Fe258     1.0  0.77345  0.61108  0.48575  1.0000
  H   H3079     1.0  0.73581  0.67151  0.42120  1.0000
  H   H3080     1.0  0.77548  0.68534  0.42266  1.0000
  H   H3081     1.0  0.79513  0.65672  0.43452  1.0000
  H   H3082     1.0  0.77495  0.61385  0.44441  1.0000
  H   H3083     1.0  0.73547  0.59959  0.44250  1.0000
  H   H3084     1.0  0.71062  0.66115  0.39960  1.0000
  C   C3868     1.0  0.98390  0.53555  0.45100  1.0000
  H   H3085     1.0  0.71920  0.52476  0.47659  1.0000
  H   H3086     1.0  0.84524  0.56091  0.37603  1.0000
  C   C3869     1.0  0.69711  0.97080  0.37895  1.0000
  C   C3870     1.0  0.66840  0.56950  0.29927  1.0000
  C   C3871     1.0  0.76942  0.96772  0.25999  1.0000
  H   H3087     1.0  0.70469  0.58404  0.37370  1.0000
  H   H3088     1.0  0.73948  0.59237  0.38364  1.0000
  H   H3089     1.0  0.73937  0.60821  0.40853  1.0000
  C   C3872     1.0  0.72842  0.52621  0.35806  1.0000
  H   H3090     1.0  0.68120  0.97499  0.37807  1.0000
  H   H3091     1.0  0.75319  0.95416  0.38235  1.0000
  C   C3873     1.0  0.69769  0.80313  0.45621  1.0000
  H   H3092     1.0  0.67633  0.61504  0.31746  1.0000
  H   H3093     1.0  0.66588  0.98803  0.30524  1.0000
  C   C3874     1.0  0.94669  0.51094  0.45216  1.0000
  H   H3094     1.0  0.66680  0.93919  0.35052  1.0000
  Fe  Fe259     1.0  0.70124  0.90708  0.49125  1.0000
  H   H3095     1.0  0.76645  0.99713  0.38555  1.0000
  C   C3875     1.0  0.76850  0.96467  0.48598  1.0000
  C   C3876     1.0  0.68947  0.78983  0.44580  1.0000
  H   H3096     1.0  0.70027  0.78052  0.43969  1.0000
  C   C3877     1.0  0.77952  0.72324  0.49196  1.0000
  H   H3097     1.0  0.79664  0.69681  0.48714  1.0000
  H   H3098     1.0  0.98441  0.53846  0.24904  1.0000
  H   H3099     1.0  0.78279  0.51941  0.37360  1.0000
  H   H3100     1.0  0.98787  0.60150  0.37098  1.0000
  H   H3101     1.0  0.98532  0.52216  0.29397  1.0000
  H   H3102     1.0  0.66720  0.99122  0.27540  1.0000
  S   S512      1.0  0.98666  0.67777  0.26160  1.0000
  S   S513      1.0  0.98800  0.61552  0.28995  1.0000
  C   C3878     1.0  0.79499  0.70986  0.49418  1.0000
  H   H3103     1.0  0.67859  0.95489  0.31885  1.0000
  H   H3104     1.0  0.70166  0.86882  0.25228  1.0000
  C   C3879     1.0  0.66846  0.90685  0.25414  1.0000
  H   H3105     1.0  0.80159  0.78858  0.49366  1.0000
  H   H3106     1.0  0.80125  0.98787  0.43408  1.0000
  H   H3107     1.0  0.70934  0.50392  0.29523  1.0000
  S   S514      1.0  0.74541  0.90655  0.24833  1.0000
  C   C3880     1.0  0.79575  0.82198  0.49496  1.0000
  H   H3108     1.0  0.83314  0.65719  0.49455  1.0000
  C   C3881     1.0  0.78870  0.79794  0.49578  1.0000
  H   H3109     1.0  0.81381  0.83079  0.49256  1.0000
  C   C3882     1.0  0.66268  0.81511  0.46144  1.0000
  C   C3883     1.0  0.66600  0.96530  0.26115  1.0000
  C   C3884     1.0  0.66148  0.95406  0.34452  1.0000
  C   C3885     1.0  0.73078  0.96991  0.49575  1.0000
  C   C3886     1.0  0.67496  0.79476  0.51067  1.0000
  C   C3887     1.0  0.67880  0.84169  0.67917  1.0000
  Fe  Fe260     1.0  0.78197  0.56486  0.50126  1.0000
  C   C3888     1.0  0.68155  0.99415  0.60444  1.0000
  H   H3110     1.0  0.70505  0.63818  0.55805  1.0000
  H   H3111     1.0  0.96110  0.68855  0.56288  1.0000
  H   H3112     1.0  0.70465  0.59931  0.57602  1.0000
  C   C3889     1.0  0.94328  0.60094  0.57172  1.0000
  C   C3890     1.0  0.72035  0.64207  0.51940  1.0000
  S   S515      1.0  0.71242  0.88965  0.71239  1.0000
  H   H3113     1.0  0.70332  0.93639  0.70341  1.0000
  H   H3114     1.0  0.72573  0.60857  0.71951  1.0000
  Fe  Fe261     1.0  0.71079  0.65699  0.72457  1.0000
  H   H3115     1.0  0.77044  0.77879  0.68985  1.0000
  H   H3116     1.0  0.74346  0.67696  0.50856  1.0000
  S   S516      1.0  0.67599  0.97092  0.62302  1.0000
  H   H3117     1.0  0.69158  0.85552  0.66883  1.0000
  C   C3891     1.0  0.80518  0.72892  0.51536  1.0000
  C   C3892     1.0  0.70404  0.95852  0.67028  1.0000
  C   C3893     1.0  0.68104  0.64491  0.57791  1.0000
  S   S517      1.0  0.71368  0.67996  0.69865  1.0000
  H   H3118     1.0  0.69953  0.93316  0.63779  1.0000
  C   C3894     1.0  0.69758  0.99551  0.58925  1.0000
  H   H3119     1.0  0.74366  0.83344  0.50136  1.0000
  C   C3895     1.0  0.72677  0.95869  0.67010  1.0000
  C   C3896     1.0  0.67989  0.77287  0.51407  1.0000
  C   C3897     1.0  0.76528  0.78644  0.49904  1.0000
  H   H3120     1.0  0.84722  0.53605  0.51811  1.0000
  H   H3121     1.0  0.69451  0.57523  0.67013  1.0000
  S   S518      1.0  0.69678  0.56283  0.52417  1.0000
  C   C3898     1.0  0.67687  0.53782  0.58261  1.0000
  S   S519      1.0  0.68649  0.63856  0.67301  1.0000
  H   H3122     1.0  0.69380  0.77093  0.51961  1.0000
  C   C3899     1.0  0.68985  0.55362  0.54663  1.0000
  C   C3900     1.0  0.70421  0.54390  0.55508  1.0000
  C   C3901     1.0  0.69755  0.53575  0.57305  1.0000
  C   C3902     1.0  0.91052  0.61915  0.55933  1.0000
  S   S520      1.0  0.66915  0.52845  0.60512  1.0000
  H   H3123     1.0  0.72019  0.54224  0.54778  1.0000
  H   H3124     1.0  0.72602  0.53615  0.72510  1.0000
  H   H3125     1.0  0.86216  0.79094  0.68151  1.0000
  C   C3903     1.0  0.71969  0.71629  0.51924  1.0000
  C   C3904     1.0  0.69137  0.96733  0.70478  1.0000
  H   H3126     1.0  0.68235  0.69059  0.65246  1.0000
  H   H3127     1.0  0.70650  0.67400  0.63331  1.0000
  H   H3128     1.0  0.68635  0.52046  0.50321  1.0000
  H   H3129     1.0  0.86027  0.62213  0.51033  1.0000
  C   C3905     1.0  0.95481  0.58707  0.62175  1.0000
  C   C3906     1.0  0.68194  0.66667  0.61892  1.0000
  C   C3907     1.0  0.68856  0.76649  0.72315  1.0000
  C   C3908     1.0  0.68934  0.95343  0.73965  1.0000
  C   C3909     1.0  0.69001  0.67534  0.63148  1.0000
  Fe  Fe262     1.0  0.71137  0.86892  0.73864  1.0000
  C   C3910     1.0  0.67634  0.68468  0.64235  1.0000
  H   H3130     1.0  0.86410  0.67181  0.50748  1.0000
  C   C3911     1.0  0.69493  0.63181  0.57127  1.0000
  C   C3912     1.0  0.85015  0.55490  0.51617  1.0000
  C   C3913     1.0  0.72589  0.59175  0.72730  1.0000
  C   C3914     1.0  0.70698  0.93978  0.64708  1.0000
  S   S521      1.0  0.80756  0.54774  0.51063  1.0000
  C   C3915     1.0  0.67089  0.99083  0.52590  1.0000
  C   C3916     1.0  0.68627  0.88677  0.70674  1.0000
  C   C3917     1.0  0.68692  0.89580  0.68963  1.0000
  H   H3131     1.0  0.73494  0.96665  0.67856  1.0000
  S   S522      1.0  0.68579  0.73068  0.70749  1.0000
  H   H3132     1.0  0.79639  0.55503  0.54584  1.0000
  C   C3918     1.0  0.66662  0.63620  0.59470  1.0000
  H   H3133     1.0  0.70330  0.90419  0.68019  1.0000
  H   H3134     1.0  0.73584  0.76614  0.53202  1.0000
  C   C3919     1.0  0.66518  0.81952  0.70907  1.0000
  C   C3920     1.0  0.83332  0.56556  0.51216  1.0000
  C   C3921     1.0  0.66907  0.55541  0.55621  1.0000
  S   S523      1.0  0.97608  0.56318  0.55673  1.0000
  C   C3922     1.0  0.70850  0.73533  0.54673  1.0000
  H   H3135     1.0  0.74718  0.99649  0.71356  1.0000
  Fe  Fe263     1.0  0.73327  0.56957  0.50840  1.0000
  H   H3136     1.0  0.78724  0.75420  0.52109  1.0000
  C   C3923     1.0  0.68313  0.98002  0.71592  1.0000
  H   H3137     1.0  0.73900  0.54674  0.58833  1.0000
  H   H3138     1.0  0.76637  0.52958  0.57202  1.0000
  H   H3139     1.0  0.66731  0.90047  0.67133  1.0000
  H   H3140     1.0  0.74618  0.96014  0.73467  1.0000
  S   S524      1.0  0.74327  0.65284  0.73162  1.0000
  C   C3924     1.0  0.78000  0.71810  0.74379  1.0000
  C   C3925     1.0  0.78970  0.74230  0.51320  1.0000
  H   H3141     1.0  0.73119  0.79140  0.50243  1.0000
  H   H3142     1.0  0.97530  0.64458  0.54307  1.0000
  H   H3143     1.0  0.70814  0.64557  0.51232  1.0000
  C   C3926     1.0  0.99141  0.62275  0.59795  1.0000
  C   C3927     1.0  0.80698  0.83627  0.72564  1.0000
  H   H3144     1.0  0.83793  0.84920  0.66064  1.0000
  C   C3928     1.0  0.98928  0.65613  0.54570  1.0000
  C   C3929     1.0  0.83014  0.79294  0.69670  1.0000
  H   H3145     1.0  0.92527  0.71027  0.60426  1.0000
  H   H3146     1.0  0.70821  0.52746  0.57955  1.0000
  C   C3930     1.0  0.68281  0.57682  0.69606  1.0000
  C   C3931     1.0  0.92604  0.63304  0.56569  1.0000
  S   S525      1.0  0.69201  0.81937  0.51474  1.0000
  Fe  Fe264     1.0  0.92982  0.59447  0.51718  1.0000
  C   C3932     1.0  0.85751  0.60339  0.51185  1.0000
  C   C3933     1.0  0.84944  0.80073  0.68249  1.0000
  C   C3934     1.0  0.80792  0.71280  0.50578  1.0000
  C   C3935     1.0  0.76446  0.99657  0.49899  1.0000
  C   C3936     1.0  0.78402  0.76528  0.72756  1.0000
  C   C3937     1.0  0.76778  0.74671  0.72533  1.0000
  P   P130      1.0  0.78836  0.79576  0.71617  1.0000
  C   C3938     1.0  0.66315  0.61611  0.67230  1.0000
  C   C3939     1.0  0.81355  0.80550  0.69804  1.0000
  H   H3147     1.0  0.69735  0.84662  0.69776  1.0000
  S   S526      1.0  0.93130  0.55872  0.53080  1.0000
  C   C3940     1.0  0.85228  0.82101  0.66953  1.0000
  C   C3941     1.0  0.83580  0.83352  0.67072  1.0000
  C   C3942     1.0  0.81649  0.82579  0.68489  1.0000
  C   C3943     1.0  0.69632  0.71252  0.54751  1.0000
  H   H3148     1.0  0.93309  0.60194  0.60843  1.0000
  H   H3149     1.0  0.75666  0.94876  0.65890  1.0000
  C   C3944     1.0  0.66587  0.56687  0.71165  1.0000
  C   C3945     1.0  0.73924  0.94883  0.65884  1.0000
  C   C3946     1.0  0.76465  0.79988  0.70759  1.0000
  C   C3947     1.0  0.76033  0.78986  0.69442  1.0000
  C   C3948     1.0  0.74274  0.79388  0.68714  1.0000
  C   C3949     1.0  0.72992  0.80866  0.69247  1.0000
  C   C3950     1.0  0.73454  0.81924  0.70522  1.0000
  C   C3951     1.0  0.75161  0.81465  0.71290  1.0000
  H   H3150     1.0  0.81069  0.77393  0.74008  1.0000
  C   C3952     1.0  0.79800  0.75991  0.73822  1.0000
  C   C3953     1.0  0.82919  0.65569  0.50814  1.0000
  Fe  Fe265     1.0  0.97981  0.60868  0.49683  1.0000
  H   H3151     1.0  0.75647  0.75008  0.71748  1.0000
  C   C3954     1.0  0.66362  0.54741  0.68420  1.0000
  H   H3152     1.0  0.73909  0.93216  0.63833  1.0000
  H   H3153     1.0  0.80384  0.83569  0.68561  1.0000
  H   H3154     1.0  0.89928  0.58545  0.55433  1.0000
  H   H3155     1.0  0.67684  0.99485  0.71126  1.0000
  H   H3156     1.0  0.88360  0.56000  0.52082  1.0000
  C   C3955     1.0  0.72936  0.93944  0.64728  1.0000
  C   C3956     1.0  0.92747  0.58699  0.56568  1.0000
  H   H3157     1.0  0.73887  0.78536  0.67746  1.0000
  H   H3158     1.0  0.69609  0.59292  0.69427  1.0000
  H   H3159     1.0  0.72450  0.83052  0.70955  1.0000
  H   H3160     1.0  0.75441  0.82268  0.72297  1.0000
  C   C3957     1.0  0.69541  0.77864  0.73470  1.0000
  C   C3958     1.0  0.66665  0.75336  0.51043  1.0000
  C   C3959     1.0  0.80747  0.85065  0.73682  1.0000
  C   C3960     1.0  0.69803  0.94727  0.71141  1.0000
  C   C3961     1.0  0.76754  0.54819  0.56773  1.0000
  P   P131      1.0  0.75562  0.75562  0.49979  1.0000
  S   S527      1.0  0.98581  0.57408  0.50808  1.0000
  Fe  Fe266     1.0  0.68569  0.69233  0.71286  1.0000
  C   C3962     1.0  0.71414  0.74910  0.74405  1.0000
  H   H3161     1.0  0.81916  0.86831  0.73262  1.0000
  C   C3963     1.0  0.70835  0.77004  0.74508  1.0000
  C   C3964     1.0  0.72621  0.55104  0.73046  1.0000
  H   H3162     1.0  0.67046  0.73652  0.51312  1.0000
  C   C3965     1.0  0.69437  0.74552  0.72213  1.0000
  C   C3966     1.0  0.69476  0.61003  0.58138  1.0000
  C   C3967     1.0  0.67148  0.50993  0.51370  1.0000
  C   C3968     1.0  0.72641  0.74865  0.53224  1.0000
  H   H3163     1.0  0.72415  0.57407  0.70752  1.0000
  H   H3164     1.0  0.66461  0.86402  0.58037  1.0000
  H   H3165     1.0  0.93860  0.64261  0.61438  1.0000
  H   H3166     1.0  0.95628  0.59375  0.57596  1.0000
  C   C3969     1.0  0.68206  0.83662  0.69550  1.0000
  C   C3970     1.0  0.77723  0.74006  0.50113  1.0000
  H   H3167     1.0  0.81973  0.70226  0.50754  1.0000
  C   C3971     1.0  0.71631  0.61968  0.53035  1.0000
  H   H3168     1.0  0.71183  0.72078  0.73187  1.0000
  C   C3972     1.0  0.74023  0.65979  0.51734  1.0000
  C   C3973     1.0  0.75607  0.65515  0.52629  1.0000
  C   C3974     1.0  0.75237  0.63254  0.53715  1.0000
  C   C3975     1.0  0.73230  0.61479  0.53915  1.0000
  P   P132      1.0  0.77240  0.62745  0.54942  1.0000
  C   C3976     1.0  0.76587  0.63789  0.56827  1.0000
  C   C3977     1.0  0.77025  0.59630  0.55627  1.0000
  C   C3978     1.0  0.78600  0.58653  0.54737  1.0000
  H   H3169     1.0  0.67877  0.77333  0.71499  1.0000
  C   C3979     1.0  0.75206  0.55783  0.57683  1.0000
  C   C3980     1.0  0.75316  0.58168  0.57100  1.0000
  C   C3981     1.0  0.77338  0.62927  0.58251  1.0000
  C   C3982     1.0  0.76713  0.63603  0.59754  1.0000
  C   C3983     1.0  0.75338  0.65148  0.59847  1.0000
  C   C3984     1.0  0.74606  0.66038  0.58431  1.0000
  C   C3985     1.0  0.75234  0.65372  0.56924  1.0000
  C   C3986     1.0  0.80128  0.64266  0.53610  1.0000
  C   C3987     1.0  0.80670  0.64492  0.51843  1.0000
  H   H3170     1.0  0.71256  0.96492  0.49694  1.0000
  C   C3988     1.0  0.84655  0.66403  0.51542  1.0000
  C   C3989     1.0  0.84136  0.66173  0.53300  1.0000
  C   C3990     1.0  0.81881  0.65112  0.54332  1.0000
  H   H3171     1.0  0.70059  0.60620  0.53207  1.0000
  H   H3172     1.0  0.98070  0.57517  0.63195  1.0000
  Fe  Fe267     1.0  0.68514  0.65051  0.69731  1.0000
  H   H3173     1.0  0.77124  0.66918  0.52472  1.0000
  H   H3174     1.0  0.72886  0.59718  0.54741  1.0000
  H   H3175     1.0  0.79934  0.59719  0.53596  1.0000
  H   H3176     1.0  0.69261  0.65888  0.61104  1.0000
  H   H3177     1.0  0.74072  0.58866  0.57807  1.0000
  H   H3178     1.0  0.78375  0.61697  0.58210  1.0000
  H   H3179     1.0  0.77271  0.62904  0.60856  1.0000
  H   H3180     1.0  0.74830  0.65645  0.61021  1.0000
  H   H3181     1.0  0.73528  0.67224  0.58506  1.0000
  H   H3182     1.0  0.74621  0.66067  0.55856  1.0000
  H   H3183     1.0  0.79365  0.63801  0.51258  1.0000
  S   S528      1.0  0.66340  0.63833  0.53343  1.0000
  C   C3991     1.0  0.74923  0.79959  0.50062  1.0000
  H   H3184     1.0  0.85494  0.66777  0.53867  1.0000
  H   H3185     1.0  0.81524  0.64914  0.55693  1.0000
  S   S529      1.0  0.96246  0.61350  0.52188  1.0000
  Fe  Fe268     1.0  0.96581  0.57735  0.53294  1.0000
  C   C3992     1.0  0.83714  0.58993  0.50983  1.0000
  H   H3186     1.0  0.92230  0.67237  0.62460  1.0000
  S   S530      1.0  0.89933  0.60976  0.51897  1.0000
  C   C3993     1.0  0.91113  0.59609  0.55944  1.0000
  C   C3994     1.0  0.95060  0.60358  0.60907  1.0000
  C   C3995     1.0  0.76576  0.72323  0.73346  1.0000
  C   C3996     1.0  0.69712  0.94044  0.72874  1.0000
  H   H3187     1.0  0.81844  0.84314  0.71285  1.0000
  S   S531      1.0  0.68476  0.62638  0.72200  1.0000
  H   H3188     1.0  0.69355  0.96884  0.52922  1.0000
  H   H3189     1.0  0.70402  0.74273  0.55736  1.0000
  H   H3190     1.0  0.66218  0.54058  0.67330  1.0000
  C   C3997     1.0  0.69432  0.94921  0.65856  1.0000
  H   H3191     1.0  0.69025  0.51036  0.53260  1.0000
  C   C3998     1.0  0.68239  0.97325  0.73325  1.0000
  H   H3192     1.0  0.96315  0.50935  0.54098  1.0000
  C   C3999     1.0  0.87434  0.59267  0.51585  1.0000
  H   H3193     1.0  0.71616  0.81155  0.68692  1.0000
  P   P133      1.0  0.68940  0.97434  0.68299  1.0000
  H   H3194     1.0  0.86722  0.82700  0.65852  1.0000
  H   H3195     1.0  0.94477  0.71823  0.57343  1.0000
  C   C4000     1.0  0.67368  0.50419  0.53032  1.0000
  H   H3196     1.0  0.92832  0.56927  0.56549  1.0000
  H   H3197     1.0  0.94067  0.57293  0.63075  1.0000
  C   C4001     1.0  0.66263  0.54757  0.57412  1.0000
  C   C4002     1.0  0.74366  0.99575  0.72702  1.0000
  S   S532      1.0  0.76555  0.58959  0.51290  1.0000
  C   C4003     1.0  0.78447  0.56253  0.55300  1.0000
  H   H3198     1.0  0.67715  0.94966  0.65794  1.0000
  C   C4004     1.0  0.70190  0.70296  0.53380  1.0000
  C   C4005     1.0  0.79136  0.81363  0.73091  1.0000
  C   C4006     1.0  0.87075  0.56845  0.51774  1.0000
  C   C4007     1.0  0.68183  0.56695  0.68239  1.0000
  H   H3199     1.0  0.70218  0.92481  0.73369  1.0000
  H   H3200     1.0  0.92537  0.65088  0.56534  1.0000
  H   H3201     1.0  0.82825  0.77708  0.70646  1.0000
  H   H3202     1.0  0.67612  0.98312  0.74179  1.0000
  H   H3203     1.0  0.66833  0.95881  0.58260  1.0000
  C   C4008     1.0  0.68123  0.60171  0.59832  1.0000
  C   C4009     1.0  0.70708  0.73680  0.73268  1.0000
  S   S533      1.0  0.69015  0.88429  0.51835  1.0000
  H   H3204     1.0  0.68253  0.70227  0.55872  1.0000
  C   C4010     1.0  0.73191  0.73932  0.51828  1.0000
  H   H3205     1.0  0.89823  0.62629  0.55397  1.0000
  P   P134      1.0  0.96311  0.64165  0.57995  1.0000
  C   C4011     1.0  0.96891  0.62158  0.59700  1.0000
  C   C4012     1.0  0.95113  0.66330  0.58783  1.0000
  C   C4013     1.0  0.94009  0.65896  0.60526  1.0000
  C   C4014     1.0  0.93082  0.67586  0.61114  1.0000
  C   C4015     1.0  0.93250  0.69721  0.59969  1.0000
  C   C4016     1.0  0.94348  0.70170  0.58233  1.0000
  C   C4017     1.0  0.95277  0.68483  0.57641  1.0000
  H   H3206     1.0  0.69231  0.68527  0.53439  1.0000
  H   H3207     1.0  0.82427  0.59830  0.50671  1.0000
  C   C4018     1.0  0.72513  0.57238  0.72054  1.0000
  C   C4019     1.0  0.67778  0.97029  0.52599  1.0000
  H   H3208     1.0  0.68094  0.58469  0.60612  1.0000
  C   C4020     1.0  0.94245  0.62393  0.57207  1.0000
  C   C4021     1.0  0.74065  0.98960  0.50109  1.0000
  H   H3209     1.0  0.81485  0.73083  0.52462  1.0000
  H   H3210     1.0  0.72997  0.99949  0.50666  1.0000
  H   H3211     1.0  0.72380  0.70871  0.50866  1.0000
  S   S534      1.0  0.68465  0.67136  0.73884  1.0000
  S   S535      1.0  0.74881  0.54267  0.49910  1.0000
  Fe  Fe269     1.0  0.68229  0.85350  0.50715  1.0000
  C   C4022     1.0  0.74302  0.97524  0.73892  1.0000
  C   C4023     1.0  0.75630  0.82355  0.49984  1.0000
  C   C4024     1.0  0.66741  0.61489  0.60502  1.0000
  H   H3212     1.0  0.66107  0.87506  0.55090  1.0000
  H   H3213     1.0  0.69086  0.79474  0.73547  1.0000
  H   H3214     1.0  0.75320  0.70891  0.73170  1.0000
  H   H3215     1.0  0.68001  0.61459  0.64719  1.0000
  C   C4025     1.0  0.72751  0.58977  0.74401  1.0000
  Fe  Fe270     1.0  0.95127  0.55788  0.50519  1.0000
  C   C4026     1.0  0.97731  0.58833  0.62247  1.0000
  H   H3216     1.0  0.97864  0.68117  0.73869  1.0000
  C   C4027     1.0  0.66654  0.89363  0.68457  1.0000
  H   H3217     1.0  0.66981  0.93573  0.52187  1.0000
  H   H3218     1.0  0.70569  0.98144  0.58862  1.0000
  H   H3219     1.0  0.69343  0.99928  0.64799  1.0000
  S   S536      1.0  0.94093  0.52403  0.49806  1.0000
  H   H3220     1.0  0.68126  0.66146  0.56970  1.0000
  S   S537      1.0  0.74103  0.85494  0.74330  1.0000
  H   H3221     1.0  0.66780  0.81645  0.72169  1.0000
  H   H3222     1.0  0.66848  0.53215  0.74161  1.0000
  C   C4028     1.0  0.66499  0.87563  0.71886  1.0000
  C   C4029     1.0  0.66440  0.95166  0.52185  1.0000
  S   S538      1.0  0.67777  0.69587  0.49857  1.0000
  H   H3223     1.0  0.66428  0.86866  0.73210  1.0000
  C   C4030     1.0  0.66477  0.60721  0.65790  1.0000
  H   H3224     1.0  0.66647  0.57526  0.72190  1.0000
  H   H3225     1.0  0.81233  0.61672  0.74512  1.0000
  C   C4031     1.0  0.98842  0.65780  0.56240  1.0000
  H   H3226     1.0  0.98446  0.51493  0.56246  1.0000
  C   C4032     1.0  0.77954  0.83473  0.49711  1.0000
  H   H3227     1.0  0.78493  0.85333  0.49652  1.0000
  Fe  Fe271     1.0  0.74719  0.86067  0.96590  1.0000
  Fe  Fe272     1.0  0.76771  0.91343  0.95077  1.0000
  S   S539      1.0  0.73905  0.92165  0.96768  1.0000
  S   S540      1.0  0.79619  0.94508  0.93394  1.0000
  S   S541      1.0  0.67135  0.99753  0.86721  1.0000
  C   C4033     1.0  0.77698  0.63916  0.98506  1.0000
  Fe  Fe273     1.0  0.71588  0.89214  0.96179  1.0000
  S   S542      1.0  0.77311  0.88769  0.97217  1.0000
  S   S543      1.0  0.74438  0.88624  0.94287  1.0000
  C   C4034     1.0  0.73242  0.92065  0.81413  1.0000
  C   C4035     1.0  0.71367  0.94478  0.79813  1.0000
  C   C4036     1.0  0.89106  0.52607  0.91540  1.0000
  Fe  Fe274     1.0  0.82679  0.97727  0.83778  1.0000
  H   H3228     1.0  0.70563  0.97705  0.85031  1.0000
  S   S544      1.0  0.82577  0.94394  0.85670  1.0000
  C   C4037     1.0  0.72702  0.61480  0.87932  1.0000
  C   C4038     1.0  0.73623  0.80259  0.96200  1.0000
  H   H3229     1.0  0.71330  0.98221  0.97815  1.0000
  H   H3230     1.0  0.94457  0.69969  0.92356  1.0000
  H   H3231     1.0  0.86856  0.98425  0.87528  1.0000
  H   H3232     1.0  0.68868  0.94807  0.75307  1.0000
  S   S545      1.0  0.79556  0.97893  0.82849  1.0000
  Fe  Fe275     1.0  0.79656  0.63085  0.84654  1.0000
  S   S546      1.0  0.81550  0.60682  0.83675  1.0000
  S   S547      1.0  0.79293  0.62892  0.87429  1.0000
  Fe  Fe276     1.0  0.78456  0.64655  0.81302  1.0000
  S   S548      1.0  0.80288  0.62367  0.80071  1.0000
  S   S549      1.0  0.76212  0.66652  0.80144  1.0000
  Fe  Fe277     1.0  0.78602  0.59625  0.82588  1.0000
  S   S550      1.0  0.77021  0.55759  0.82945  1.0000
  Fe  Fe278     1.0  0.83058  0.63662  0.81291  1.0000
  S   S551      1.0  0.86855  0.64555  0.79978  1.0000
  S   S552      1.0  0.76601  0.61814  0.83739  1.0000
  S   S553      1.0  0.81362  0.66183  0.82337  1.0000
  C   C4039     1.0  0.71629  0.63118  0.85399  1.0000
  C   C4040     1.0  0.78374  0.94939  0.76884  1.0000
  C   C4041     1.0  0.74233  0.75942  0.79250  1.0000
  C   C4042     1.0  0.76990  0.97529  0.87570  1.0000
  C   C4043     1.0  0.67803  0.68155  0.85846  1.0000
  H   H3233     1.0  0.78299  0.96425  0.75928  1.0000
  Fe  Fe279     1.0  0.97643  0.68573  0.82897  1.0000
  S   S554      1.0  0.93880  0.68324  0.83980  1.0000
  H   H3234     1.0  0.74855  0.99199  0.83970  1.0000
  H   H3235     1.0  0.87302  0.97415  0.84788  1.0000
  H   H3236     1.0  0.79096  0.65215  0.95775  1.0000
  C   C4044     1.0  0.75583  0.66045  0.78282  1.0000
  C   C4045     1.0  0.77097  0.65297  0.77152  1.0000
  H   H3237     1.0  0.77682  0.98199  0.86200  1.0000
  C   C4046     1.0  0.95144  0.65224  0.75646  1.0000
  C   C4047     1.0  0.71907  0.75102  0.80162  1.0000
  C   C4048     1.0  0.73597  0.66448  0.77874  1.0000
  H   H3238     1.0  0.78646  0.65007  0.77438  1.0000
  C   C4049     1.0  0.88498  0.98957  0.84885  1.0000
  H   H3239     1.0  0.73851  0.95818  0.76515  1.0000
  H   H3240     1.0  0.72395  0.66976  0.78759  1.0000
  C   C4050     1.0  0.91916  0.67128  0.82921  1.0000
  C   C4051     1.0  0.89574  0.66962  0.83524  1.0000
  C   C4052     1.0  0.88001  0.66133  0.82648  1.0000
  C   C4053     1.0  0.88762  0.65477  0.81158  1.0000
  C   C4054     1.0  0.91095  0.65609  0.80569  1.0000
  C   C4055     1.0  0.92664  0.66414  0.81454  1.0000
  H   H3241     1.0  0.88973  0.67506  0.84654  1.0000
  H   H3242     1.0  0.86204  0.66027  0.83113  1.0000
  H   H3243     1.0  0.91695  0.65102  0.79419  1.0000
  H   H3244     1.0  0.94456  0.66515  0.80983  1.0000
  H   H3245     1.0  0.76891  0.76327  0.87118  1.0000
  H   H3246     1.0  0.73233  0.57988  0.83407  1.0000
  H   H3247     1.0  0.85467  0.62447  0.89128  1.0000
  H   H3248     1.0  0.66518  0.79892  0.80408  1.0000
  H   H3249     1.0  0.80694  0.93710  0.80202  1.0000
  H   H3250     1.0  0.71805  0.64596  0.84332  1.0000
  C   C4056     1.0  0.77112  0.68984  0.89056  1.0000
  C   C4057     1.0  0.76891  0.66906  0.90285  1.0000
  C   C4058     1.0  0.77525  0.65017  0.89778  1.0000
  C   C4059     1.0  0.78335  0.65186  0.88041  1.0000
  C   C4060     1.0  0.78455  0.67217  0.86809  1.0000
  C   C4061     1.0  0.77886  0.69139  0.87316  1.0000
  H   H3251     1.0  0.76272  0.66765  0.91630  1.0000
  H   H3252     1.0  0.77363  0.63420  0.90735  1.0000
  H   H3253     1.0  0.79036  0.67316  0.85471  1.0000
  C   C4062     1.0  0.75842  0.94322  0.90155  1.0000
  C   C4063     1.0  0.90108  0.54693  0.91901  1.0000
  C   C4064     1.0  0.74699  0.65474  0.75180  1.0000
  C   C4065     1.0  0.97483  0.70539  0.90310  1.0000
  H   H3254     1.0  0.92789  0.62133  0.77534  1.0000
  H   H3255     1.0  0.79947  0.97865  0.98711  1.0000
  C   C4066     1.0  0.80584  0.94441  0.91270  1.0000
  C   C4067     1.0  0.80325  0.92297  0.90838  1.0000
  C   C4068     1.0  0.81011  0.92293  0.89116  1.0000
  C   C4069     1.0  0.81906  0.94432  0.87825  1.0000
  C   C4070     1.0  0.73422  0.63877  0.97852  1.0000
  C   C4071     1.0  0.73842  0.97413  0.75632  1.0000
  H   H3256     1.0  0.79582  0.90645  0.91829  1.0000
  H   H3257     1.0  0.80784  0.90635  0.88781  1.0000
  H   H3258     1.0  0.82879  0.60012  0.76808  1.0000
  C   C4072     1.0  0.66945  0.99454  0.91026  1.0000
  C   C4073     1.0  0.74391  0.78444  0.95661  1.0000
  H   H3259     1.0  0.76205  0.78563  0.95361  1.0000
  C   C4074     1.0  0.73146  0.70229  0.86426  1.0000
  H   H3260     1.0  0.67889  0.77973  0.96793  1.0000
  H   H3261     1.0  0.75898  0.78794  0.99148  1.0000
  C   C4075     1.0  0.69207  0.85621  0.82976  1.0000
  H   H3262     1.0  0.81751  0.98236  0.90315  1.0000
  H   H3263     1.0  0.80336  0.56932  0.79412  1.0000
  C   C4076     1.0  0.73735  0.70173  0.84721  1.0000
  C   C4077     1.0  0.77784  0.59476  0.75800  1.0000
  C   C4078     1.0  0.76800  0.53241  0.88142  1.0000
  H   H3264     1.0  0.75182  0.52615  0.77732  1.0000
  C   C4079     1.0  0.97507  0.66137  0.96950  1.0000
  C   C4080     1.0  0.82183  0.96570  0.88264  1.0000
  S   S555      1.0  0.76102  0.87736  0.78168  1.0000
  C   C4081     1.0  0.84920  0.81034  0.82163  1.0000
  C   C4082     1.0  0.79601  0.73639  0.74626  1.0000
  H   H3265     1.0  0.81918  0.75310  0.77573  1.0000
  C   C4083     1.0  0.67597  0.87422  0.93411  1.0000
  H   H3266     1.0  0.74903  0.97433  0.98366  1.0000
  H   H3267     1.0  0.71190  0.76099  0.80966  1.0000
  S   S556      1.0  0.71694  0.86465  0.98450  1.0000
  C   C4084     1.0  0.71834  0.58508  0.78548  1.0000
  C   C4085     1.0  0.71492  0.60826  0.80604  1.0000
  C   C4086     1.0  0.72693  0.59527  0.79732  1.0000
  H   H3268     1.0  0.68855  0.57281  0.87020  1.0000
  H   H3269     1.0  0.72410  0.74233  0.75207  1.0000
  H   H3270     1.0  0.72184  0.61631  0.81500  1.0000
  H   H3271     1.0  0.74282  0.59317  0.79996  1.0000
  H   H3272     1.0  0.74010  0.65114  0.86466  1.0000
  C   C4087     1.0  0.70181  0.60902  0.85568  1.0000
  C   C4088     1.0  0.69990  0.58972  0.86917  1.0000
  C   C4089     1.0  0.69952  0.59174  0.92214  1.0000
  C   C4090     1.0  0.71265  0.59242  0.88102  1.0000
  C   C4091     1.0  0.70482  0.76323  0.95884  1.0000
  C   C4092     1.0  0.70536  0.73000  0.80025  1.0000
  C   C4093     1.0  0.72870  0.63411  0.86593  1.0000
  H   H3273     1.0  0.68216  0.71778  0.84588  1.0000
  C   C4094     1.0  0.67008  0.68571  0.99531  1.0000
  H   H3274     1.0  0.77172  0.70142  0.96450  1.0000
  H   H3275     1.0  0.71618  0.66482  0.76033  1.0000
  H   H3276     1.0  0.80698  0.73218  0.75428  1.0000
  C   C4095     1.0  0.87835  0.99916  0.90342  1.0000
  H   H3277     1.0  0.77004  0.75326  0.77506  1.0000
  S   S557      1.0  0.66719  0.93559  0.85755  1.0000
  H   H3278     1.0  0.68387  0.86216  0.94067  1.0000
  Fe  Fe280     1.0  0.73472  0.86652  0.76751  1.0000
  S   S558      1.0  0.68419  0.90116  0.95644  1.0000
  C   C4096     1.0  0.81065  0.59353  0.76921  1.0000
  Fe  Fe281     1.0  0.71343  0.82141  0.75807  1.0000
  C   C4097     1.0  0.76330  0.99031  0.88524  1.0000
  H   H3279     1.0  0.68482  0.62102  0.80988  1.0000
  H   H3280     1.0  0.76409  0.78835  0.75172  1.0000
  C   C4098     1.0  0.69421  0.61106  0.80308  1.0000
  Fe  Fe282     1.0  0.73245  0.70040  0.91883  1.0000
  H   H3281     1.0  0.66852  0.66744  0.81676  1.0000
  C   C4099     1.0  0.72931  0.72324  0.86822  1.0000
  H   H3282     1.0  0.76282  0.92330  0.76006  1.0000
  C   C4100     1.0  0.76737  0.95173  0.88381  1.0000
  C   C4101     1.0  0.73146  0.66152  0.76334  1.0000
  C   C4102     1.0  0.89056  0.52627  0.89866  1.0000
  C   C4103     1.0  0.96092  0.65013  0.98613  1.0000
  H   H3283     1.0  0.90759  0.82509  0.80863  1.0000
  H   H3284     1.0  0.94486  0.54266  0.92243  1.0000
  H   H3285     1.0  0.72005  0.78361  0.91824  1.0000
  H   H3286     1.0  0.73723  0.61731  0.88817  1.0000
  C   C4104     1.0  0.75213  0.74663  0.78227  1.0000
  Fe  Fe283     1.0  0.82055  0.99269  0.80243  1.0000
  H   H3287     1.0  0.74632  0.71523  0.77351  1.0000
  H   H3288     1.0  0.93797  0.66007  0.75388  1.0000
  C   C4105     1.0  0.77230  0.92622  0.76927  1.0000
  H   H3289     1.0  0.72842  0.60506  0.74896  1.0000
  C   C4106     1.0  0.87309  0.95793  0.91764  1.0000
  H   H3290     1.0  0.73699  0.70658  0.98226  1.0000
  C   C4107     1.0  0.74440  0.99146  0.93699  1.0000
  C   C4108     1.0  0.67446  0.69498  0.82971  1.0000
  C   C4109     1.0  0.71431  0.85416  0.82868  1.0000
  C   C4110     1.0  0.72410  0.85638  0.84214  1.0000
  C   C4111     1.0  0.71170  0.86102  0.85670  1.0000
  C   C4112     1.0  0.68951  0.86343  0.85755  1.0000
  P   P135      1.0  0.72439  0.86605  0.87368  1.0000
  C   C4113     1.0  0.70958  0.84350  0.89359  1.0000
  C   C4114     1.0  0.75430  0.86631  0.86815  1.0000
  C   C4115     1.0  0.76072  0.84579  0.87413  1.0000
  C   C4116     1.0  0.78391  0.84617  0.87051  1.0000
  C   C4117     1.0  0.80081  0.86683  0.86051  1.0000
  C   C4118     1.0  0.79451  0.88706  0.85408  1.0000
  C   C4119     1.0  0.77140  0.88691  0.85795  1.0000
  C   C4120     1.0  0.71864  0.84294  0.90771  1.0000
  C   C4121     1.0  0.70736  0.82580  0.92322  1.0000
  C   C4122     1.0  0.78689  0.69389  0.98526  1.0000
  C   C4123     1.0  0.67826  0.80888  0.91065  1.0000
  C   C4124     1.0  0.68937  0.82618  0.89514  1.0000
  C   C4125     1.0  0.72229  0.89489  0.87558  1.0000
  C   C4126     1.0  0.71585  0.89926  0.89157  1.0000
  C   C4127     1.0  0.71243  0.92110  0.89267  1.0000
  C   C4128     1.0  0.71603  0.93900  0.87782  1.0000
  C   C4129     1.0  0.72317  0.93504  0.86184  1.0000
  C   C4130     1.0  0.72601  0.91304  0.86075  1.0000
  H   H3291     1.0  0.79211  0.85413  0.76168  1.0000
  C   C4131     1.0  0.66348  0.74107  0.81860  1.0000
  H   H3292     1.0  0.72419  0.85167  0.81711  1.0000
  H   H3293     1.0  0.74148  0.85512  0.84091  1.0000
  H   H3294     1.0  0.67990  0.86771  0.86845  1.0000
  H   H3295     1.0  0.74791  0.82959  0.88185  1.0000
  H   H3296     1.0  0.78875  0.83052  0.87568  1.0000
  H   H3297     1.0  0.81882  0.86736  0.85791  1.0000
  H   H3298     1.0  0.80762  0.90316  0.84640  1.0000
  H   H3299     1.0  0.76716  0.90304  0.85313  1.0000
  H   H3300     1.0  0.73431  0.85598  0.90682  1.0000
  H   H3301     1.0  0.71430  0.82583  0.93410  1.0000
  H   H3302     1.0  0.67843  0.79543  0.93675  1.0000
  H   H3303     1.0  0.90097  0.54689  0.93206  1.0000
  H   H3304     1.0  0.68195  0.82599  0.88456  1.0000
  H   H3305     1.0  0.71296  0.88589  0.90329  1.0000
  H   H3306     1.0  0.70706  0.92410  0.90510  1.0000
  H   H3307     1.0  0.72613  0.94881  0.85025  1.0000
  H   H3308     1.0  0.73090  0.91011  0.84831  1.0000
  H   H3309     1.0  0.78045  0.70741  0.86364  1.0000
  Fe  Fe284     1.0  0.68204  0.67636  0.92473  1.0000
  C   C4132     1.0  0.73998  0.54643  0.83562  1.0000
  C   C4133     1.0  0.94574  0.63038  0.76855  1.0000
  C   C4134     1.0  0.91101  0.56810  0.88892  1.0000
  P   P136      1.0  0.92175  0.59542  0.87213  1.0000
  C   C4135     1.0  0.94231  0.61675  0.87753  1.0000
  C   C4136     1.0  0.93773  0.59190  0.85247  1.0000
  C   C4137     1.0  0.94242  0.60958  0.83718  1.0000
  C   C4138     1.0  0.95467  0.60716  0.82180  1.0000
  C   C4139     1.0  0.96307  0.58750  0.82165  1.0000
  C   C4140     1.0  0.95937  0.57031  0.83691  1.0000
  C   C4141     1.0  0.94681  0.57251  0.85233  1.0000
  C   C4142     1.0  0.94125  0.64016  0.87522  1.0000
  C   C4143     1.0  0.95823  0.65704  0.87820  1.0000
  C   C4144     1.0  0.97655  0.65068  0.88335  1.0000
  C   C4145     1.0  0.97795  0.62746  0.88542  1.0000
  C   C4146     1.0  0.96093  0.61054  0.88249  1.0000
  C   C4147     1.0  0.89661  0.60483  0.86967  1.0000
  C   C4148     1.0  0.88436  0.61257  0.88263  1.0000
  C   C4149     1.0  0.86418  0.61866  0.88127  1.0000
  C   C4150     1.0  0.85605  0.61702  0.86705  1.0000
  C   C4151     1.0  0.86791  0.60895  0.85427  1.0000
  C   C4152     1.0  0.88794  0.60264  0.85563  1.0000
  H   H3310     1.0  0.91827  0.58400  0.90891  1.0000
  H   H3311     1.0  0.93671  0.62535  0.83714  1.0000
  H   H3312     1.0  0.95830  0.62095  0.81004  1.0000
  H   H3313     1.0  0.97311  0.58604  0.80974  1.0000
  H   H3314     1.0  0.96662  0.55553  0.83676  1.0000
  H   H3315     1.0  0.94459  0.55930  0.86406  1.0000
  H   H3316     1.0  0.92794  0.64568  0.87033  1.0000
  H   H3317     1.0  0.95776  0.67528  0.87570  1.0000
  H   H3318     1.0  0.68997  0.56261  0.84139  1.0000
  S   S559      1.0  0.68478  0.73946  0.95625  1.0000
  H   H3319     1.0  0.96267  0.59285  0.88356  1.0000
  H   H3320     1.0  0.89033  0.61369  0.89381  1.0000
  H   H3321     1.0  0.84046  0.62185  0.86594  1.0000
  H   H3322     1.0  0.86165  0.60769  0.84320  1.0000
  H   H3323     1.0  0.89636  0.59590  0.84572  1.0000
  C   C4153     1.0  0.79539  0.70534  0.92918  1.0000
  C   C4154     1.0  0.80410  0.72662  0.93272  1.0000
  C   C4155     1.0  0.82628  0.73226  0.93470  1.0000
  C   C4156     1.0  0.83984  0.71672  0.93294  1.0000
  C   C4157     1.0  0.83123  0.69533  0.92926  1.0000
  C   C4158     1.0  0.80888  0.68978  0.92738  1.0000
  P   P137      1.0  0.84932  0.67593  0.92614  1.0000
  C   C4159     1.0  0.83147  0.64650  0.92889  1.0000
  C   C4160     1.0  0.86903  0.68680  0.90488  1.0000
  C   C4161     1.0  0.87906  0.67136  0.89742  1.0000
  C   C4162     1.0  0.89371  0.67944  0.88078  1.0000
  C   C4163     1.0  0.89871  0.70303  0.87153  1.0000
  C   C4164     1.0  0.88906  0.71860  0.87892  1.0000
  C   C4165     1.0  0.87432  0.71057  0.89553  1.0000
  C   C4166     1.0  0.82378  0.62978  0.94496  1.0000
  C   C4167     1.0  0.80931  0.60737  0.94717  1.0000
  C   C4168     1.0  0.80261  0.60132  0.93332  1.0000
  C   C4169     1.0  0.81026  0.61776  0.91727  1.0000
  C   C4170     1.0  0.82444  0.64033  0.91507  1.0000
  C   C4171     1.0  0.86497  0.67448  0.94216  1.0000
  C   C4172     1.0  0.85461  0.67564  0.95861  1.0000
  C   C4173     1.0  0.86595  0.67318  0.97141  1.0000
  C   C4174     1.0  0.88780  0.66967  0.96791  1.0000
  C   C4175     1.0  0.89835  0.66865  0.95155  1.0000
  C   C4176     1.0  0.88700  0.67102  0.93870  1.0000
  H   H3324     1.0  0.77808  0.70085  0.92787  1.0000
  H   H3325     1.0  0.79350  0.73859  0.93409  1.0000
  H   H3326     1.0  0.83294  0.74868  0.93761  1.0000
  H   H3327     1.0  0.85706  0.72142  0.93439  1.0000
  H   H3328     1.0  0.80164  0.67343  0.92464  1.0000
  H   H3329     1.0  0.87548  0.65304  0.90444  1.0000
  H   H3330     1.0  0.90114  0.66748  0.87489  1.0000
  H   H3331     1.0  0.91003  0.70915  0.85860  1.0000
  H   H3332     1.0  0.89284  0.73686  0.87168  1.0000
  H   H3333     1.0  0.86687  0.72294  0.90083  1.0000
  H   H3334     1.0  0.82842  0.63404  0.95597  1.0000
  H   H3335     1.0  0.80306  0.59485  0.95974  1.0000
  H   H3336     1.0  0.79132  0.58399  0.93504  1.0000
  H   H3337     1.0  0.80484  0.61316  0.90655  1.0000
  H   H3338     1.0  0.82967  0.65291  0.90262  1.0000
  H   H3339     1.0  0.83742  0.67771  0.96176  1.0000
  H   H3340     1.0  0.69020  0.61060  0.94065  1.0000
  H   H3341     1.0  0.89634  0.66743  0.97800  1.0000
  H   H3342     1.0  0.91518  0.66563  0.94894  1.0000
  H   H3343     1.0  0.89533  0.66982  0.92622  1.0000
  C   C4177     1.0  0.73225  0.53113  0.90080  1.0000
  H   H3344     1.0  0.94595  0.63545  0.98836  1.0000
  C   C4178     1.0  0.67916  0.97599  0.90885  1.0000
  H   H3345     1.0  0.87565  0.84332  0.81466  1.0000
  H   H3346     1.0  0.73358  0.90344  0.82026  1.0000
  C   C4179     1.0  0.71454  0.92256  0.80671  1.0000
  C   C4180     1.0  0.72768  0.98382  0.96754  1.0000
  H   H3347     1.0  0.76280  0.93949  0.81930  1.0000
  H   H3348     1.0  0.74452  0.95105  0.92489  1.0000
  H   H3349     1.0  0.89907  0.54731  0.87268  1.0000
  C   C4181     1.0  0.76614  0.98076  0.95702  1.0000
  H   H3350     1.0  0.76179  0.97863  0.80384  1.0000
  C   C4182     1.0  0.87195  0.82441  0.81627  1.0000
  C   C4183     1.0  0.84444  0.78597  0.82366  1.0000
  C   C4184     1.0  0.86243  0.77543  0.82039  1.0000
  C   C4185     1.0  0.88525  0.78974  0.81490  1.0000
  P   P138      1.0  0.85566  0.74388  0.82307  1.0000
  C   C4186     1.0  0.88004  0.73489  0.81315  1.0000
  C   C4187     1.0  0.84670  0.72767  0.84540  1.0000
  C   C4188     1.0  0.83761  0.73765  0.85818  1.0000
  C   C4189     1.0  0.82933  0.72417  0.87526  1.0000
  C   C4190     1.0  0.83013  0.70075  0.87967  1.0000
  C   C4191     1.0  0.83941  0.69077  0.86708  1.0000
  C   C4192     1.0  0.84760  0.70413  0.85001  1.0000
  C   C4193     1.0  0.87941  0.72394  0.79986  1.0000
  C   C4194     1.0  0.89793  0.71595  0.79300  1.0000
  C   C4195     1.0  0.91716  0.71875  0.79934  1.0000
  C   C4196     1.0  0.91769  0.72902  0.81285  1.0000
  C   C4197     1.0  0.89911  0.73682  0.81986  1.0000
  C   C4198     1.0  0.83259  0.73681  0.81336  1.0000
  C   C4199     1.0  0.83480  0.74941  0.79655  1.0000
  C   C4200     1.0  0.81725  0.74358  0.78877  1.0000
  C   C4201     1.0  0.79744  0.72512  0.79773  1.0000
  C   C4202     1.0  0.79492  0.71298  0.81459  1.0000
  C   C4203     1.0  0.81232  0.71890  0.82243  1.0000
  H   H3351     1.0  0.82668  0.77531  0.82778  1.0000
  H   H3352     1.0  0.89950  0.78236  0.81195  1.0000
  H   H3353     1.0  0.83631  0.75554  0.85506  1.0000
  H   H3354     1.0  0.82138  0.73150  0.88505  1.0000
  H   H3355     1.0  0.82274  0.69011  0.89275  1.0000
  H   H3356     1.0  0.83940  0.67238  0.87042  1.0000
  H   H3357     1.0  0.85399  0.69583  0.84035  1.0000
  H   H3358     1.0  0.86447  0.72081  0.79506  1.0000
  H   H3359     1.0  0.89707  0.70683  0.78314  1.0000
  H   H3360     1.0  0.93131  0.71212  0.79424  1.0000
  C   C4204     1.0  0.68160  0.74674  0.87364  1.0000
  H   H3361     1.0  0.89949  0.74405  0.83069  1.0000
  H   H3362     1.0  0.85026  0.76347  0.78939  1.0000
  C   C4205     1.0  0.73451  0.99365  0.76198  1.0000
  C   C4206     1.0  0.85523  0.95876  0.93079  1.0000
  H   H3363     1.0  0.77968  0.69847  0.82145  1.0000
  H   H3364     1.0  0.81006  0.70913  0.83542  1.0000
  H   H3365     1.0  0.72854  0.68651  0.87451  1.0000
  C   C4207     1.0  0.69091  0.78908  0.86146  1.0000
  C   C4208     1.0  0.69811  0.76846  0.86496  1.0000
  C   C4209     1.0  0.72596  0.98988  0.95075  1.0000
  P   P139      1.0  0.72838  0.77036  0.86061  1.0000
  H   H3366     1.0  0.66970  0.60344  0.78882  1.0000
  C   C4210     1.0  0.74468  0.79592  0.84286  1.0000
  C   C4211     1.0  0.73712  0.80090  0.82808  1.0000
  C   C4212     1.0  0.75016  0.82006  0.81408  1.0000
  C   C4213     1.0  0.77041  0.83487  0.81494  1.0000
  C   C4214     1.0  0.77776  0.83042  0.82972  1.0000
  C   C4215     1.0  0.76508  0.81094  0.84357  1.0000
  C   C4216     1.0  0.74896  0.94097  0.81349  1.0000
  C   C4217     1.0  0.73741  0.77261  0.87961  1.0000
  C   C4218     1.0  0.72369  0.77837  0.89303  1.0000
  C   C4219     1.0  0.73097  0.78000  0.90764  1.0000
  C   C4220     1.0  0.75207  0.77634  0.90884  1.0000
  C   C4221     1.0  0.76578  0.77060  0.89557  1.0000
  C   C4222     1.0  0.75841  0.76852  0.88108  1.0000
  C   C4223     1.0  0.88254  0.99537  0.86441  1.0000
  H   H3367     1.0  0.70330  0.80617  0.85546  1.0000
  H   H3368     1.0  0.77890  0.64543  0.74707  1.0000
  H   H3369     1.0  0.72121  0.78989  0.82733  1.0000
  H   H3370     1.0  0.74437  0.82388  0.80266  1.0000
  H   H3371     1.0  0.78024  0.85001  0.80421  1.0000
  H   H3372     1.0  0.79323  0.84222  0.83045  1.0000
  H   H3373     1.0  0.77124  0.80785  0.85479  1.0000
  H   H3374     1.0  0.72483  0.72327  0.88150  1.0000
  C   C4224     1.0  0.75420  0.98190  0.90307  1.0000
  C   C4225     1.0  0.97575  0.53890  0.90699  1.0000
  C   C4226     1.0  0.88476  0.97811  0.90407  1.0000
  H   H3375     1.0  0.75756  0.77747  0.92022  1.0000
  H   H3376     1.0  0.78173  0.76683  0.89680  1.0000
  H   H3377     1.0  0.71347  0.95595  0.87875  1.0000
  S   S560      1.0  0.75640  0.82673  0.96405  1.0000
  H   H3378     1.0  0.74617  0.58083  0.94482  1.0000
  H   H3379     1.0  0.70146  0.90688  0.80743  1.0000
  C   C4227     1.0  0.79619  0.95348  0.78068  1.0000
  C   C4228     1.0  0.76987  0.69959  0.97796  1.0000
  H   H3380     1.0  0.75330  0.65204  0.95195  1.0000
  C   C4229     1.0  0.77282  0.56819  0.78564  1.0000
  Fe  Fe285     1.0  0.68272  0.84759  0.77481  1.0000
  P   P140      1.0  0.71122  0.56750  0.89809  1.0000
  H   H3381     1.0  0.89843  0.97715  0.89389  1.0000
  C   C4230     1.0  0.79732  0.93416  0.79289  1.0000
  C   C4231     1.0  0.81559  0.96576  0.89985  1.0000
  C   C4232     1.0  0.73055  0.52207  0.83901  1.0000
  Fe  Fe286     1.0  0.69697  0.71216  0.94457  1.0000
  H   H3382     1.0  0.75529  0.58468  0.87112  1.0000
  C   C4233     1.0  0.70123  0.55126  0.84100  1.0000
  C   C4234     1.0  0.91099  0.56791  0.90583  1.0000
  C   C4235     1.0  0.79637  0.57615  0.78385  1.0000
  C   C4236     1.0  0.75428  0.64657  0.96497  1.0000
  C   C4237     1.0  0.77556  0.64648  0.96824  1.0000
  C   C4238     1.0  0.96308  0.62030  0.77196  1.0000
  H   H3383     1.0  0.70633  0.98987  0.81912  1.0000
  C   C4239     1.0  0.73877  0.72530  0.78131  1.0000
  C   C4240     1.0  0.68800  0.00257  0.78335  1.0000
  C   C4241     1.0  0.68566  0.60113  0.79122  1.0000
  S   S561      1.0  0.67370  0.67506  0.95264  1.0000
  C   C4242     1.0  0.74781  0.97939  0.97066  1.0000
  S   S562      1.0  0.76458  0.71398  0.89695  1.0000
  H   H3384     1.0  0.73434  0.75107  0.95066  1.0000
  C   C4243     1.0  0.77014  0.55567  0.87279  1.0000
  H   H3385     1.0  0.68465  0.85478  0.81921  1.0000
  C   C4244     1.0  0.76341  0.57723  0.77266  1.0000
  C   C4245     1.0  0.73078  0.57441  0.92472  1.0000
  S   S563      1.0  0.72910  0.70144  0.94607  1.0000
  C   C4246     1.0  0.72827  0.76486  0.95496  1.0000
  C   C4247     1.0  0.69707  0.78104  0.96471  1.0000
  H   H3386     1.0  0.66327  0.88831  0.77406  1.0000
  H   H3387     1.0  0.78456  0.56497  0.86171  1.0000
  H   H3388     1.0  0.78740  0.89618  0.80252  1.0000
  C   C4248     1.0  0.71272  0.80076  0.96619  1.0000
  H   H3389     1.0  0.66735  0.55153  0.92579  1.0000
  S   S564      1.0  0.70751  0.88345  0.76158  1.0000
  S   S565      1.0  0.70712  0.63631  0.97469  1.0000
  C   C4249     1.0  0.78621  0.91098  0.79315  1.0000
  H   H3390     1.0  0.78085  0.52384  0.87700  1.0000
  C   C4250     1.0  0.67096  0.67169  0.82835  1.0000
  C   C4251     1.0  0.74113  0.72212  0.83413  1.0000
  P   P141      1.0  0.73297  0.56691  0.77507  1.0000
  H   H3391     1.0  0.66256  0.79568  0.91187  1.0000
  H   H3392     1.0  0.80209  0.69147  0.97740  1.0000
  S   S566      1.0  0.70940  0.83171  0.78257  1.0000
  P   P142      1.0  0.73029  0.99327  0.78426  1.0000
  C   C4252     1.0  0.67439  0.89468  0.93913  1.0000
  C   C4253     1.0  0.66755  0.78788  0.86610  1.0000
  C   C4254     1.0  0.66639  0.54066  0.91706  1.0000
  H   H3393     1.0  0.70662  0.81452  0.97057  1.0000
  H   H3394     1.0  0.77245  0.94009  0.87635  1.0000
  C   C4255     1.0  0.74831  0.96321  0.80471  1.0000
  H   H3395     1.0  0.76194  0.55524  0.79731  1.0000
  H   H3396     1.0  0.69992  0.94606  0.79221  1.0000
  H   H3397     1.0  0.75660  0.92498  0.90786  1.0000
  H   H3398     1.0  0.83524  0.81834  0.82416  1.0000
  C   C4256     1.0  0.73410  0.55438  0.89195  1.0000
  S   S567      1.0  0.68446  0.83440  0.75152  1.0000
  C   C4257     1.0  0.75334  0.56671  0.87806  1.0000
  C   C4258     1.0  0.72526  0.56105  0.83676  1.0000
  C   C4259     1.0  0.68716  0.80878  0.92471  1.0000
  Fe  Fe287     1.0  0.70634  0.66447  0.95233  1.0000
  C   C4260     1.0  0.75181  0.95819  0.91118  1.0000
  C   C4261     1.0  0.90020  0.54727  0.88550  1.0000
  H   H3399     1.0  0.67346  0.64417  0.86781  1.0000
  C   C4262     1.0  0.69767  0.58827  0.78242  1.0000
  C   C4263     1.0  0.76442  0.98664  0.94026  1.0000
  H   H3400     1.0  0.70723  0.78124  0.89249  1.0000
  S   S568      1.0  0.71256  0.66241  0.92515  1.0000
  H   H3401     1.0  0.70524  0.70062  0.78917  1.0000
  C   C4264     1.0  0.71371  0.99750  0.91419  1.0000
  C   C4265     1.0  0.77369  0.90690  0.78133  1.0000
  H   H3402     1.0  0.67074  0.99881  0.83173  1.0000
  H   H3403     1.0  0.88240  0.51020  0.89591  1.0000
  H   H3404     1.0  0.71752  0.52133  0.91158  1.0000
  H   H3405     1.0  0.95874  0.60345  0.78142  1.0000
  C   C4266     1.0  0.73278  0.74380  0.85520  1.0000
  H   H3406     1.0  0.74559  0.72153  0.82093  1.0000
  S   S569      1.0  0.70243  0.71454  0.91668  1.0000
  H   H3407     1.0  0.96432  0.69411  0.94626  1.0000
  C   C4267     1.0  0.73082  0.96517  0.79673  1.0000
  Fe  Fe288     1.0  0.74277  0.89415  0.98869  1.0000
  H   H3408     1.0  0.77870  0.98733  0.92984  1.0000
  C   C4268     1.0  0.98945  0.50659  0.91966  1.0000
  H   H3409     1.0  0.69076  0.58086  0.77326  1.0000
  C   C4269     1.0  0.88994  0.81412  0.81289  1.0000
  C   C4270     1.0  0.67970  0.86081  0.84421  1.0000
  H   H3410     1.0  0.68681  0.59549  0.91565  1.0000
  C   C4271     1.0  0.71440  0.99408  0.85121  1.0000
  H   H3411     1.0  0.68980  0.54076  0.80197  1.0000
  H   H3412     1.0  0.83504  0.98020  0.94055  1.0000
  H   H3413     1.0  0.73896  0.68554  0.84408  1.0000
  C   C4272     1.0  0.69196  0.52682  0.84429  1.0000
  C   C4273     1.0  0.71383  0.57824  0.91650  1.0000
  H   H3414     1.0  0.78413  0.71985  0.79162  1.0000
  H   H3415     1.0  0.85748  0.67342  0.98419  1.0000
  C   C4274     1.0  0.76665  0.65032  0.75603  1.0000
  C   C4275     1.0  0.75002  0.70216  0.98815  1.0000
  C   C4276     1.0  0.97386  0.69704  0.93311  1.0000
  C   C4277     1.0  0.95464  0.51303  0.93518  1.0000
  H   H3416     1.0  0.96622  0.70820  0.89312  1.0000
  C   C4278     1.0  0.73303  0.58364  0.93856  1.0000
  C   C4279     1.0  0.69575  0.99495  0.81100  1.0000
  S   S570      1.0  0.80400  0.63912  0.98859  1.0000
  C   C4280     1.0  0.67858  0.69988  0.84473  1.0000
  C   C4281     1.0  0.72858  0.56846  0.75410  1.0000
  C   C4282     1.0  0.70109  0.97731  0.91100  1.0000
  C   C4283     1.0  0.66374  0.90995  0.93075  1.0000
  S   S571      1.0  0.81042  0.98289  0.77961  1.0000
  H   H3417     1.0  0.74211  0.75857  0.82772  1.0000
  C   C4284     1.0  0.70671  0.51233  0.84341  1.0000
  H   H3418     1.0  0.99275  0.62291  0.88866  1.0000
  C   C4285     1.0  0.69986  0.52863  0.79970  1.0000
  H   H3419     1.0  0.82859  0.98219  0.87281  1.0000
  C   C4286     1.0  0.67542  0.99976  0.81823  1.0000
  C   C4287     1.0  0.84923  0.97982  0.93049  1.0000
  C   C4288     1.0  0.73896  0.74310  0.83808  1.0000
  C   C4289     1.0  0.68474  0.54453  0.90261  1.0000
  H   H3420     1.0  0.78148  0.97657  0.95943  1.0000
  C   C4290     1.0  0.96263  0.70043  0.92026  1.0000
  H   H3421     1.0  0.77518  0.94000  0.98702  1.0000
  H   H3422     1.0  0.75268  0.77590  0.79330  1.0000
  H   H3423     1.0  0.68161  0.76842  0.79496  1.0000
  S   S572      1.0  0.71707  0.78464  0.75980  1.0000
  C   C4291     1.0  0.71546  0.71704  0.79022  1.0000
  H   H3424     1.0  0.93224  0.73018  0.81820  1.0000
  H   H3425     1.0  0.68171  0.53438  0.76737  1.0000
  C   C4292     1.0  0.68241  0.53024  0.89140  1.0000
  H   H3426     1.0  0.84560  0.94297  0.94104  1.0000
  H   H3427     1.0  0.72009  0.60379  0.95502  1.0000
  H   H3428     1.0  0.72962  0.53265  0.75435  1.0000
  H   H3429     1.0  0.68660  0.73068  0.87721  1.0000
  C   C4293     1.0  0.70155  0.60053  0.93617  1.0000
  H   H3430     1.0  0.87753  0.94150  0.91782  1.0000
  H   H3431     1.0  0.68059  0.68518  0.87025  1.0000
  P   P143      1.0  0.74299  0.00039  0.91519  1.0000
  H   H3432     1.0  0.99020  0.66393  0.88504  1.0000
  C   C4294     1.0  0.67036  0.65344  0.84212  1.0000
  H   H3433     1.0  0.97114  0.65496  0.95896  1.0000
  C   C4295     1.0  0.67395  0.65837  0.85714  1.0000
  C   C4296     1.0  0.71837  0.59661  0.94431  1.0000
  H   H3434     1.0  0.70821  0.96273  0.90982  1.0000
  H   H3435     1.0  0.68128  0.73402  0.77514  1.0000
  C   C4297     1.0  0.66663  0.86902  0.92088  1.0000
  C   C4298     1.0  0.73479  0.52042  0.78616  1.0000
  H   H3436     1.0  0.76454  0.81420  0.77110  1.0000
  H   H3437     1.0  0.69210  0.60668  0.84650  1.0000
  H   H3438     1.0  0.69621  0.53305  0.88003  1.0000
  C   C4299     1.0  0.72177  0.53655  0.78800  1.0000
  H   H3439     1.0  0.74246  0.56464  0.92038  1.0000
  H   H3440     1.0  0.88335  0.50983  0.92562  1.0000
  P   P144      1.0  0.67536  0.71868  0.81193  1.0000
  S   S573      1.0  0.99080  0.65580  0.83792  1.0000
  C   C4300     1.0  0.98613  0.63219  0.76348  1.0000
  C   C4301     1.0  0.95717  0.53245  0.92160  1.0000
  C   C4302     1.0  0.97449  0.66416  0.74794  1.0000
  S   S574      1.0  0.85137  0.98826  0.81150  1.0000
  H   H3441     1.0  0.66223  0.92564  0.93473  1.0000
  C   C4303     1.0  0.80137  0.60289  0.75632  1.0000
  C   C4304     1.0  0.79231  0.84262  0.75326  1.0000
  H   H3442     1.0  0.94027  0.50807  0.94651  1.0000
  C   C4305     1.0  0.66961  0.76394  0.80753  1.0000
  S   S575      1.0  0.99301  0.69122  0.80121  1.0000
  C   C4306     1.0  0.70270  0.99727  0.79339  1.0000
  C   C4307     1.0  0.99206  0.65444  0.75165  1.0000
  C   C4308     1.0  0.86069  0.99996  0.91687  1.0000
  C   C4309     1.0  0.74914  0.52018  0.89552  1.0000
  C   C4310     1.0  0.66533  0.53734  0.76666  1.0000
  H   H3443     1.0  0.66676  0.63537  0.84122  1.0000
  C   C4311     1.0  0.77657  0.80554  0.74756  1.0000
  C   C4312     1.0  0.73563  0.63160  0.99533  1.0000
  C   C4313     1.0  0.66596  0.71932  0.78060  1.0000
  C   C4314     1.0  0.77689  0.82006  0.75862  1.0000
  H   H3444     1.0  0.71020  0.99309  0.94861  1.0000
  H   H3445     1.0  0.74175  0.51067  0.83815  1.0000
  H   H3446     1.0  0.77853  0.69990  0.74995  1.0000
  H   H3447     1.0  0.97740  0.55411  0.89675  1.0000
  C   C4315     1.0  0.99203  0.52597  0.90587  1.0000
  H   H3448     1.0  0.66752  0.85303  0.91721  1.0000
  H   H3449     1.0  0.99344  0.55518  0.86343  1.0000
  C   C4316     1.0  0.69093  0.50490  0.80907  1.0000
  H   H3450     1.0  0.66265  0.86294  0.84499  1.0000
  H   H3451     1.0  0.66988  0.96082  0.90566  1.0000
  H   H3452     1.0  0.90373  0.00007  0.82219  1.0000
  H   H3453     1.0  0.66177  0.69513  0.98703  1.0000
  H   H3454     1.0  0.66214  0.80387  0.86334  1.0000
  H   H3455     1.0  0.66504  0.92611  0.78158  1.0000
  S   S576      1.0  0.66226  0.51345  0.84875  1.0000
  C   C4317     1.0  0.66204  0.51250  0.89455  1.0000
  H   H3456     1.0  0.77098  0.60250  0.74798  1.0000
  C   C4318     1.0  0.72820  0.54914  0.74710  1.0000
  C   C4319     1.0  0.73863  0.00260  0.84515  1.0000
  C   C4320     1.0  0.99418  0.68070  0.96657  1.0000
