data_image0
_chemical_formula_structural       CHPC3H2C4HC2H3CHC2H2C3HCHCH2C2H5CHC4PCH2C3HCHC3HCHC2HC2H3C2H4C3HC3HCHC2HSH3CH2C4HCHC2H2CHC2PHC2H6CHCH2C2H2C2SFeS2Fe2S2FeSHFeSHFeSFeS2FeSC2SFeSFeSHCHSH2C2FeSCHSHFeS2CFeCSFeS2CFeH2S3CHC10H3CHC7H5SH2C2H2CSC6H4C2HC6H4C6H4CHC2H3C2SC3HCHCHC2HCH2CHPHCHC2H2CHCHC2H3PCH2PCHCHC2H2C2HC5HC8PC12H14CHCH2C2HC4H2C8PC2H3C3HC9H6CHCHC3H7CHCHC2H2CH3FeCHC3HCH2C2H2CPHC4H3CHCH2CH5CHC2H2CSC2HC2H2SHSC2H2CHCHCHCH2C2H2C2HC2HCHC2HCHC2H2C3HCHC4H3CSHC2SCH4CHCFeH2C5HC2HFeC2H2C6HSHCFeS2FeSC2S2FeS2FeS2FeCFeS3H5CH2SHFeS2CSC2H2C3H4SCH2CH2C7H4C6H4C6H4C2H3C2SHCH3SH2C3FePC3PCHC2H2C14H3Fe2CHCH3CH6C4H4C6PC9HC8HCH8C2H4CSH2C2HSHCHC2H2CH2C2HCH2C2H2C7H2C3H3CH2CH3C2HC4HCHC3H3C2H2C3HC4HCHCH2C2H2C2HCH5FeCHCPC15H8C2HCHC4H2C2HCPSH2FeC2SH2C2SCH2C2HCH4CHSC4FePHC2HCFeS2FeSCSHFeSCFeS2FeSFeS3C3HCHCH3C5FeC2H2C9H5CPHCH2CHC4HCHPC3HSPH2C2H2C3HC2H3CHCHC5HCH3C2HCH2CHC2H2C2H2C3HCHCHC2HCHCH2CHC2H2CSCH6C2H3CH2C2HCHCHC6HCHCHCHSH2C2HSC3HC2HCHC2H2CHC2H2C4FeS2HFeH2SFeS2FeS2FeSFeS3CH4C4HC2HC6H4C4H6C2H2CHC3HCH2CHCHC2H3C2H4CPH2C4H2C2HCHC5HCHC3H2CHCHCHPC8HCHC8HCH10CH2CH4CPH2C3HCHFeHC3HC2H4CHC4HC3S2H3CH3C2HC2H2CHCH3FeSHFeS2FeSFeS3HSH2SFeHSHSFeSFeSC2HFeHSFeS2FeSCFeSFeS3C6H4CH2C7H4C2HCHC6H4C6H4C6H7C2H2C7PC3HC4H7CH2C4H4CHCH2SCH2C3H3C3HC3H5SC3HCHC2HC2PH3CHCH2C3SC7HC3PCHCH3CHCH4CHC2HC2PC11H5SCHC3SH2C3HC2H3C2H2C3SH3CH2C4H3C2H4CHCH2C2H2CH2CPHCH2CHFeC7PCHC7SCH6FeH4C7PCSHCHCHC9H5CH2CHCH7C2HC3PHC6HC2H2C2HC2H7CHCHC4HCHC5HC2FeC5HC3HCHCH2C3HSCHC2SCHFeC2FeHCHCHC2HC2FeHCSHC5HCHCHC2HCHCH3CH2C3HPCFeS2FeS2FeSFeS3HSH2S2FeS2FeS2FeSFeS3CHSCHCS2HPHFeC6HCH4C6H3SC3H2C2FeC3SC2HCHC6H4C6H4C3H2C2H3C3H2C6PC18H19CH4C4HCHCHC3HC2H2CH4C3H2C4H3C3H3CFeC3SHC2H2C2H4C6HC5FeCSCHC2HCH2C2H5C6HCPFeHCH4C2HCHC3S2HCHC8HC2H3C3HCHC3HCH4CHCH2PHCHC2SHC2H2C5H5CH4CH2C2PC3H2CHC5H3CPHC5HC2HPFeC7HC2H2CHCHPC6H3CHC4HCH2C2H4PCPH2C2H2C2H2C3SC2HCHC2H2CHCH2CH3C3H2C2HCH2C2HCH6C5H4FeCHC5H2CHCSHCH2CHCHC2H2FeS2C2H2PHFeSCFeS2FeSFeS3FeSFeS2FeSCS2C2FeS2CHFeSHSFeS2FeCHFe2S3C6H4C6H4C6H4C6H4C2HC6H4C3SC2H2CHC2H2CH3C3H3C6H4CSHC4PC3HC2HC12HCHCHCH11CHC4PC18HC2H20CHC3HC4HCHC7H3SH2C4HC5HC4HC6PC18H9CH8C4HC3HC4HCHCHC2H3PCH3CHCHC4H2FeC4HCH2CHCH4CHCH3CH2C3FeH2PCPH3CFeCH2CH3C2HCSCSC2H2C2HC3HCH2C2H4CH3C2HCHCH3C2H5CHC2HCH4SH2C4H2CHC2HPC2H3CHSC3HCHC2HCHCHCH3C2H5C2HS2HC2SCH2C4H2C3H2SFeS2FeSHFeCFeS3FeS2FeS2FeSFeHS2FeS2FeS2FeSFeS3HCH2SC5PC2H4C2HCH2C6H4C6H4C6H4C2H2CH5C2H2C4H4C4H2SHC3H4C6H2C2HCHCH2C2HCH4C5HC2H2C7HC4HC7PC4HC5H7CH6CSH2CHFeCH2C3PHCHC3HSCH4CHC3H3C11H3CH5C4SC2HC6HCHC7HC2FeC2PC2H7C3PC9HC2SHC3H4CH2CHSC2HC4PH2PC2H3CHCHSCPHC2HC3HCHC6H2C4H4CH3C4PC3H3C2HC6H2C3HPCH2C3PH2CH2CHC3HC3HCHC3FeC4PH2C2HCHCHC3SHCH2CHCHC2H2CHCH2CH3C2SH3C2H2C2H3CHC2HCHC3H2CH2C2SH3CFeHC6HC3H2C2H6CHCH2C3HCH2CHCH2C5HC3HCHC6H3FeSFeS2FeSCS2CSCFeSH3FeS2FeS2FeCFeS3CH2FeS2FeSCHSCFeS2FeS2FeSFeS3C6H4C6H4C6H4CHC2H2C7H4C6H4C3HC2HCSH3CH3CHCHCHSCH2CHC3PHC4HC2H4CH2C2H2C2HC4HC2H3CHCHC3PCHC8PC8PHC2H11C6PC5SH5C3H3C2HCHC2H4C10HCHSHCH3CH3CHCHCHCH2CHC6PC15H15C2HC3H4CH3CHCHCH2CHCFeC3HC4HCHC3HCH3CH2CH2C5H4C4H2C2PHCH2C3HCHC2H3CHCHFeSCHC6H6C2HCHC3HC2HCFeC2HSH2SHCHPHCH3FeSFeSFeCFeSCSFeSFeS2FeSFeS3FeHSC2H2CHSFeS2FeS2FeSFeS3CSC6HCH2CHCHC6H4C7H7C6H2CHC7HC2H2C7H2C5HC6PC14H3CH15SC2HCH2CHCHC3HC3HCHCH4C5H2CHCH9CH2C2HC2H6CHC3H2C3H4PSCH2CH3CHFeCHCHSCHC8PC4HCH7CH3CH4C8PC18H22C4H4C2SHCH2CH2C3SPC10HC4HC3H6CH3SCH3CH3CH2CHCHCHC2H3CH3C6PC16HC3H2C3H2PCHC2HCH3C2HC11H4CHCH7FeS2FeS2FeSFeS3FeS2H2FeSFeHSHFeHSC2HCFeS2HFeS2FeS2FeSFeS3H2SH2CH3CHC3H3C4H4CPC6H4C2HCH4C6H4C7H2C8H5C2HCHCHC4H2C5HC4HPSCHCHC3H2CH3C2H4CH3C3H2C3H2SHCHC2HC3H4C5HC5H3CH3C3H2CHC2HFeH2SC2H2C2HCHCH3C2HCHCHC2HC3SC3HCHC2H2CH2CH2CSCHPC3H2C6PC18H18C2HCPC4HCHC7H3CFeH3C3H2C2HCH2CHC5PHCHC2H2C2HCH2C2HC4H3C3HCH3CH4C2H3CHCH4CHC2H2CFeSCFeS2FeCFeS3FeS2FeS2Fe3S2FeS2FeS2FeSFeS4CFeSHC3HCHC2H2C2PC2HC6H7CSC4HC4H2C6H4C5H3CHC6H4CH2CFeCH2C7H2PH2CHCHC4PC4H4C7HCH3C2SCH4CH2CSC3HC5H2C6HC3SH3CHCH2CHC5HCH3C6SCH3CH2CSHCH2C2SCH3C3PCHCHFeHCHC2HCHCH3C6H2CHC2HCH2CH2C3SHC2HC3HSCH2C4H4CHCHC4HC2H3C4HC2H2CHC4HC2SC2PCH2C2HC2H4CH3C2SC7HC2HCHC2HC3HCHCH2CHC2PHC2SH2C3H2CH2C2HC2HC2HCHC2H2FeH2CHCH2CH3C5H2CHSPC2HCHC2FeH2C2HC2H2SHCH3CHC2H3C3PH5FeS2FeSFeHS2HCHFeHSCHFeSCSFeHPFeS2HFeSCSFeS2FeS2FeSFeS3FeS2CSC3H2C6H4C4HCHC6H4C6H4CHCHC6H4C6H5C9PC18H20C10H9C6PC4H2C12H6CHCH11C4HC2HC2HC2HCHFeHCH5CH3C3HCHC3HC2HCH3C3H2C4H2CHC5H2C2H2CHC11H5CFeHC4H2CHCH2C3HCH3PCHC2HC4HC4H3C2SC3HCH2C3HCHC2HC3H3CHCFeS2CSH3CH2CHCHCH2C2H4CSHC8SC2HCH2CHC2HC2HCPSHC4H2C2PCHFeC4HC3H2CS2C2H4C2H2C2HC2HS2C2HC2HCP2CH2C2H2C2H2FeSC2H4SH2CH2CH2C3HSC2SFeS2FeS2FeSFeS3FeS2FeS2FeSFeS3FeSCFeSCFeSFeCS2C2SH3C8H9C6H4C6H2CPC6H4C6H4CH4C2HC2HC4H3C2PCHC2H6CH2C2H3C3HC2HC2H2C2HC2HC6PC17H8CH9C2HC3H2C2H4C7PC8HC5HCH11CH4CH6C2PC2HC5HCPCH2C2H2C2PHCH7CHSC4HPCHCHCH3C3HSC2HCHC4H2C2H2C2H2CHC2H2CH2C2PC2H7CHC5HC3HCHC4H2CHC5HCHCHC3H2C3PCHCHC3H2CH2C2HC2H2CSHCH2C4HC3HCH2C2HC2HC3HC5HC8HCH2C2H2CHC9H4CHC3SH2CHC2H3C4HCHPCHSHCHC2HCHC2HCHCH2C4HCH2CHC2SFeS2FeS2FeCFeS3FeSCSFeSFe2SCFeS2FeS2FeSFeHS4FeS2Fe3H2C8H4C5H3CH2C2HS2FeH3C8H4C6H5CHC6H3C2FeHC4H3C2H2C5H2CSCFeSC2H2SH2C8PC18H21CHSH2C5HC2SH3C6PH2CHC2HCPSCH4C2HPC8H2C9HCHSH4CH2C2H9CHCH5PC2H3C4HC8HC4H5SH4SHC2H2C2H2CHFeC2H3CHC4HC2HCH4CH3CHPH2CH2PC3SCHCH3C3HC2H2C2HCPCHC10HC2HCH2CHCHC5HC3H4C3HCH2CHC2HCH2C3SH2C2FeC4HCHC3HCHSC2H3C3HC2PC2H2SCSCH3CHPHCHCH3CHC4HC2H2CHCH2CH2SHCFeS2FeS2FeSFeS3CH2FeS2FeHSFe2HS2CHFeSHSHC2HCHCSHC3HC2H3CHC2HCH2SC2H2C6H4C6HCH2C6H4C6H5C3HC2H2C6H4C2HSHCH2SHC4H3CHSH4CHC2H2PC4HCH3CH2CHCFeC3H2C3HC2H3C3HC3HC3H2C3HC2HCH2C7PC7HC2HC4HC4H9C3H3CH2CHCPC13H10C2HC7PC3H8C4H2C4H3C4PC3HCSCHC7H10CHCHCH3CHCHC6SC2H2C2H3CH2SH3C2H2CH2CHCPC2HC4HC5HCH2C2H7CHCHC2HC2H2C3HCH2CHCH4CH2CSC2HFeHCHCSHC3FeS2FeS2FeCFeS3FeS2FeS2HPH2C2HCSC3H2C4SCH3C7H4CHCHCHC2HC2HCHC3HC2HCHFeC2H2CH2CHFeCHCH2C3HCHC8H2C3H3C2H2CPH2CHCHC3HCH4C5HCH4CH6C2H3PHSCH2C2HCHCHCHC2HCHCH2C2H6C5H2C2H4C2HPHC4HC2HCH2CSHC2H2CHCHC2HSHC2HCHCH3FeS2FeS2FeCFeS2FeS2FeS2FeSFeS3H2SH2CHCHC2HC3HC3HC6H5C5H3C3H2CHCHC2HCH2C6HC3HCHCH3C4H2C2H2C3H2CHCHC2H2CHC6HCH5C3HCHC2HC3H3C2HCHCHCHCH2CHCH2C4HC3HC2H3C4H2C2HPHCHCH2SC4HC3H2CHC3H2PHCH3CH5CH2CH2SCHCHCFeSFe2S2FeSFeHS2FeSCFeS2FeCFeS3HSH2FeSC6SC3SHSFeHFeS2H2SC3HCH3C2H2CH3C7H4CH5CH4PH2C2H2C6H6C2HC6H4C2HC5SHC6PC6HC8H8C2H7SCHC2HCHCHC2H3C2SHCH2CH2C2H3CH3C5H4C13H12CH2CPHC10H4C2HC6HFeCHCHC4FeHCSHCHC2HCSH2C2FeCHC3HPHFeHSC3SHC2SC3H3SH2C9FeCHCHCHC3FeH3CH2CSH3C2HCH2CHC2HCFeCH4C4HSH3CHC2HCSHCHCPC3HS2C4PCH2CHC5HPCSC2SC4FeC3H2C2H4CHSC2FeC2HCHC3HFeH2CH2C2H2C3H3CHCHCSC2HSH2SH5C3FeS2H3FeSFeCSHFeS2FeS2FeSFeCS2CH2CSCH2SHC2FeS2FeSPCHS2H3C2SHC3HC8H5C3H5P2CHCH2C2HC6H4C5H2C6H4C6H4C4H6CH2CHCHCH3C2H2C5H2FeC5SHPHC17HCHCH5CH2CFeCH5C6H6S2CPHC2HCHCHC2H2CH3FeC2SH2C3HC6PC9HC2H13CH3C4HC2PHC2H5CSCHC2HCH2C3H2CSH2CFeCH4CSHCHC2HC4H3CHCH5C3H3C2HC2SHCHC2HC2HC2HC2H3C4HC4HCHCHCH4CHC2H2CHC2HC2H2CH3CH2C2H3C2H2CH3CH4CHSCH2C3HC
_chemical_formula_sum              "C4320 H3456 P144 S576 Fe288"
_cell_length_a       68.8917
_cell_length_b       69.1103
_cell_length_c       69.1062
_cell_angle_alpha    83.1084
_cell_angle_beta     83.0953
_cell_angle_gamma    83.1297

_space_group_name_H-M_alt    "P 1"
_space_group_IT_number       1

loop_
  _space_group_symop_operation_xyz
  'x, y, z'

loop_
  _atom_site_type_symbol
  _atom_site_label
  _atom_site_symmetry_multiplicity
  _atom_site_fract_x
  _atom_site_fract_y
  _atom_site_fract_z
  _atom_site_occupancy
  C   C1        1.0  0.36314  0.05188  0.03416  1.0000
  H   H1        1.0  0.38792  0.08408  0.06450  1.0000
  P   P1        1.0  0.35134  0.03712  0.02012  1.0000
  C   C2        1.0  0.31752  0.06300  0.02879  1.0000
  C   C3        1.0  0.36836  0.06175  0.06559  1.0000
  C   C4        1.0  0.35939  0.05023  0.05470  1.0000
  H   H2        1.0  0.34945  0.04009  0.06229  1.0000
  H   H3        1.0  0.39436  0.08745  0.02820  1.0000
  C   C5        1.0  0.37575  0.06545  0.02468  1.0000
  C   C6        1.0  0.28897  0.06680  0.01072  1.0000
  C   C7        1.0  0.38101  0.07512  0.05606  1.0000
  C   C8        1.0  0.38466  0.07699  0.03562  1.0000
  H   H4        1.0  0.36547  0.06036  0.08143  1.0000
  C   C9        1.0  0.32678  0.04868  0.01693  1.0000
  C   C10       1.0  0.35002  0.01285  0.03303  1.0000
  H   H5        1.0  0.32476  0.06739  0.04034  1.0000
  H   H6        1.0  0.37869  0.06726  0.00886  1.0000
  H   H7        1.0  0.29162  0.08310  0.03478  1.0000
  C   C11       1.0  0.29867  0.07200  0.02568  1.0000
  H   H8        1.0  0.37733  0.01215  0.04594  1.0000
  C   C12       1.0  0.36486  0.00439  0.04470  1.0000
  C   C13       1.0  0.33456  0.00194  0.03104  1.0000
  H   H9        1.0  0.32332  0.00755  0.02157  1.0000
  H   H10       1.0  0.38419  0.00935  0.00588  1.0000
  C   C14       1.0  0.29807  0.05253  0.99895  1.0000
  C   C15       1.0  0.31682  0.04349  0.00213  1.0000
  C   C16       1.0  0.36544  0.03538  0.99647  1.0000
  H   H11       1.0  0.27445  0.07386  0.00819  1.0000
  C   C17       1.0  0.38096  0.02045  0.99395  1.0000
  H   H12       1.0  0.32368  0.03247  0.99294  1.0000
  C   C18       1.0  0.04615  0.00533  0.39408  1.0000
  H   H13       1.0  0.01959  0.13977  0.45799  1.0000
  H   H14       1.0  0.41073  0.29104  0.47142  1.0000
  C   C19       1.0  0.21153  0.01198  0.31047  1.0000
  C   C20       1.0  0.05575  0.16416  0.44467  1.0000
  H   H15       1.0  0.05749  0.99499  0.26411  1.0000
  H   H16       1.0  0.01937  0.01936  0.40758  1.0000
  H   H17       1.0  0.02183  0.07321  0.37448  1.0000
  H   H18       1.0  0.10784  0.01182  0.35660  1.0000
  H   H19       1.0  0.06017  0.00766  0.34496  1.0000
  C   C21       1.0  0.02138  0.02518  0.37590  1.0000
  H   H20       1.0  0.22013  0.01983  0.29856  1.0000
  C   C22       1.0  0.01492  0.07499  0.36102  1.0000
  C   C23       1.0  0.11765  0.99865  0.35425  1.0000
  C   C24       1.0  0.06426  0.12871  0.48038  1.0000
  C   C25       1.0  0.00436  0.12979  0.48573  1.0000
  P   P2        1.0  0.08428  0.16218  0.47053  1.0000
  C   C26       1.0  0.05777  0.00202  0.37651  1.0000
  H   H21       1.0  0.10496  0.16258  0.43027  1.0000
  H   H22       1.0  0.03883  0.02343  0.30805  1.0000
  C   C27       1.0  0.00842  0.02222  0.30385  1.0000
  C   C28       1.0  0.01377  0.12738  0.46696  1.0000
  C   C29       1.0  0.19114  0.01650  0.31331  1.0000
  H   H23       1.0  0.15223  0.18005  0.45540  1.0000
  C   C30       1.0  0.06142  0.19822  0.47506  1.0000
  H   H24       1.0  0.03332  0.16634  0.42513  1.0000
  C   C31       1.0  0.00281  0.06120  0.35725  1.0000
  C   C32       1.0  0.01496  0.10931  0.45952  1.0000
  C   C33       1.0  0.02799  0.01684  0.39381  1.0000
  H   H25       1.0  0.01083  0.10707  0.31989  1.0000
  C   C34       1.0  0.39976  0.26365  0.46937  1.0000
  H   H26       1.0  0.00806  0.07945  0.46530  1.0000
  C   C35       1.0  0.00711  0.09347  0.47106  1.0000
  C   C36       1.0  0.00923  0.09397  0.33003  1.0000
  H   H27       1.0  0.02528  0.01428  0.25967  1.0000
  C   C37       1.0  0.14008  0.13530  0.47598  1.0000
  C   C38       1.0  0.02757  0.01392  0.30751  1.0000
  H   H28       1.0  0.05239  0.19482  0.46448  1.0000
  H   H29       1.0  0.00098  0.00714  0.35070  1.0000
  H   H30       1.0  0.02617  0.10271  0.35107  1.0000
  C   C39       1.0  0.14313  0.16846  0.46105  1.0000
  C   C40       1.0  0.04900  0.16535  0.42625  1.0000
  H   H31       1.0  0.11609  0.18631  0.45599  1.0000
  H   H32       1.0  0.02175  0.10770  0.44474  1.0000
  H   H33       1.0  0.16765  0.14755  0.46852  1.0000
  H   H34       1.0  0.14177  0.00884  0.36575  1.0000
  C   C41       1.0  0.01773  0.09155  0.34765  1.0000
  C   C42       1.0  0.07780  0.18546  0.48052  1.0000
  C   C43       1.0  0.02685  0.99852  0.25943  1.0000
  H   H35       1.0  0.04268  0.22474  0.48032  1.0000
  C   C44       1.0  0.99779  0.09581  0.48990  1.0000
  C   C45       1.0  0.05129  0.01030  0.35866  1.0000
  C   C46       1.0  0.03330  0.02200  0.35836  1.0000
  H   H36       1.0  0.18392  0.02784  0.30357  1.0000
  C   C47       1.0  0.13686  0.99688  0.35948  1.0000
  H   H37       1.0  0.04951  0.10262  0.48809  1.0000
  C   C48       1.0  0.11963  0.13870  0.47626  1.0000
  C   C49       1.0  0.12267  0.17195  0.46140  1.0000
  H   H38       1.0  0.20989  0.00613  0.40864  1.0000
  S   S1        1.0  0.00518  0.18075  0.46368  1.0000
  H   H39       1.0  0.22070  0.01284  0.48608  1.0000
  H   H40       1.0  0.06303  0.12873  0.46494  1.0000
  H   H41       1.0  0.16426  0.01020  0.33056  1.0000
  C   C50       1.0  0.11076  0.15710  0.46905  1.0000
  H   H42       1.0  0.47577  0.32004  0.48974  1.0000
  H   H43       1.0  0.04516  0.16400  0.45754  1.0000
  C   C51       1.0  0.19622  0.00122  0.40588  1.0000
  C   C52       1.0  0.07341  0.14328  0.48730  1.0000
  C   C53       1.0  0.08932  0.16339  0.42944  1.0000
  C   C54       1.0  0.15183  0.15016  0.46840  1.0000
  H   H44       1.0  0.09292  0.16459  0.39790  1.0000
  C   C55       1.0  0.06239  0.16552  0.40939  1.0000
  H   H45       1.0  0.00508  0.03797  0.30153  1.0000
  C   C56       1.0  0.07593  0.16336  0.44648  1.0000
  C   C57       1.0  0.08254  0.16447  0.41099  1.0000
  H   H46       1.0  0.16654  0.99873  0.48694  1.0000
  H   H47       1.0  0.05710  0.16653  0.39511  1.0000
  C   C58       1.0  0.05585  0.21547  0.48396  1.0000
  H   H48       1.0  0.40645  0.26262  0.45446  1.0000
  C   C59       1.0  0.40220  0.27970  0.47906  1.0000
  C   C60       1.0  0.18001  0.00643  0.32871  1.0000
  P   P3        1.0  0.99818  0.04037  0.37503  1.0000
  H   H49       1.0  0.14681  0.12125  0.48208  1.0000
  C   C61       1.0  0.00918  0.18646  0.48747  1.0000
  C   C62       1.0  0.99840  0.07958  0.32555  1.0000
  H   H50       1.0  0.00329  0.14397  0.49115  1.0000
  H   H51       1.0  0.11086  0.12703  0.48248  1.0000
  H   H52       1.0  0.37297  0.31129  0.47712  1.0000
  H   H53       1.0  0.38691  0.23643  0.47142  1.0000
  H   H54       1.0  0.02862  0.02847  0.34438  1.0000
  H   H55       1.0  0.18277  0.00351  0.43544  1.0000
  C   C63       1.0  0.38875  0.24890  0.47892  1.0000
  H   H56       1.0  0.03259  0.16303  0.49099  1.0000
  C   C64       1.0  0.18089  0.99982  0.42100  1.0000
  H   H57       1.0  0.05125  0.99905  0.40794  1.0000
  H   H58       1.0  0.99645  0.99777  0.25643  1.0000
  C   C65       1.0  0.22083  0.99735  0.32302  1.0000
  C   C66       1.0  0.37036  0.32334  0.48605  1.0000
  H   H59       1.0  0.20650  0.99622  0.37628  1.0000
  H   H60       1.0  0.23665  0.99386  0.32085  1.0000
  C   C67       1.0  0.19418  0.99558  0.38750  1.0000
  C   C68       1.0  0.21707  0.00323  0.49924  1.0000
  S   S2        1.0  0.06366  0.16259  0.55965  1.0000
  Fe  Fe1       1.0  0.08571  0.19834  0.58935  1.0000
  S   S3        1.0  0.09557  0.16601  0.59057  1.0000
  S   S4        1.0  0.10584  0.21322  0.60595  1.0000
  Fe  Fe2       1.0  0.09476  0.16953  0.55814  1.0000
  Fe  Fe3       1.0  0.06355  0.16271  0.59202  1.0000
  S   S5        1.0  0.04980  0.13984  0.61303  1.0000
  S   S6        1.0  0.05328  0.19458  0.59265  1.0000
  Fe  Fe4       1.0  0.20091  0.08009  0.57114  1.0000
  S   S7        1.0  0.22932  0.05998  0.56976  1.0000
  H   H61       1.0  0.01442  0.99910  0.69233  1.0000
  Fe  Fe5       1.0  0.18084  0.05358  0.60265  1.0000
  S   S8        1.0  0.20762  0.03211  0.60402  1.0000
  H   H62       1.0  0.19252  0.13444  0.58329  1.0000
  Fe  Fe6       1.0  0.22430  0.05832  0.60286  1.0000
  S   S9        1.0  0.24960  0.05902  0.62155  1.0000
  Fe  Fe7       1.0  0.20996  0.03544  0.57099  1.0000
  S   S10       1.0  0.19703  0.07963  0.60394  1.0000
  S   S11       1.0  0.18217  0.05600  0.56986  1.0000
  Fe  Fe8       1.0  0.38243  0.24559  0.73093  1.0000
  S   S12       1.0  0.28275  0.15017  0.70685  1.0000
  C   C69       1.0  0.44116  0.16801  0.71421  1.0000
  C   C70       1.0  0.22980  0.01379  0.65889  1.0000
  S   S13       1.0  0.30175  0.10679  0.72407  1.0000
  Fe  Fe9       1.0  0.30985  0.13788  0.72118  1.0000
  S   S14       1.0  0.34090  0.14642  0.71321  1.0000
  Fe  Fe10      1.0  0.27307  0.11972  0.71247  1.0000
  S   S15       1.0  0.25182  0.11008  0.69289  1.0000
  H   H63       1.0  0.00385  0.22561  0.57415  1.0000
  C   C71       1.0  0.31989  0.00580  0.69000  1.0000
  H   H64       1.0  0.04058  0.99661  0.65135  1.0000
  S   S16       1.0  0.41496  0.23761  0.72363  1.0000
  H   H65       1.0  0.21946  0.02506  0.51868  1.0000
  H   H66       1.0  0.99802  0.22222  0.51836  1.0000
  C   C72       1.0  0.01412  0.12691  0.54047  1.0000
  C   C73       1.0  0.02826  0.04039  0.60095  1.0000
  Fe  Fe11      1.0  0.41717  0.27030  0.71743  1.0000
  S   S17       1.0  0.43517  0.29064  0.69544  1.0000
  C   C74       1.0  0.21637  0.01024  0.51774  1.0000
  H   H67       1.0  0.04310  0.17375  0.52069  1.0000
  S   S18       1.0  0.38448  0.27783  0.72219  1.0000
  H   H68       1.0  0.02627  0.10770  0.62191  1.0000
  Fe  Fe12      1.0  0.47133  0.30681  0.57993  1.0000
  S   S19       1.0  0.46574  0.28340  0.60558  1.0000
  S   S20       1.0  0.46074  0.30079  0.55189  1.0000
  C   C75       1.0  0.00300  0.11206  0.53728  1.0000
  Fe  Fe13      1.0  0.12554  0.25887  0.70532  1.0000
  C   C76       1.0  0.05681  0.11363  0.49344  1.0000
  S   S21       1.0  0.10241  0.25299  0.68586  1.0000
  Fe  Fe14      1.0  0.16270  0.27671  0.71263  1.0000
  S   S22       1.0  0.21241  0.00545  0.55876  1.0000
  S   S23       1.0  0.18980  0.29125  0.69932  1.0000
  C   C77       1.0  0.25829  0.00387  0.59435  1.0000
  Fe  Fe15      1.0  0.48856  0.31198  0.53619  1.0000
  H   H69       1.0  0.08613  0.00742  0.67495  1.0000
  H   H70       1.0  0.43594  0.16506  0.70078  1.0000
  S   S24       1.0  0.15764  0.24759  0.70334  1.0000
  S   S25       1.0  0.13101  0.28895  0.71200  1.0000
  S   S26       1.0  0.03002  0.20856  0.54165  1.0000
  C   C78       1.0  0.39373  0.28106  0.49845  1.0000
  H   H71       1.0  0.13049  0.01915  0.56981  1.0000
  C   C79       1.0  0.37957  0.32269  0.50322  1.0000
  C   C80       1.0  0.05734  0.04773  0.61421  1.0000
  C   C81       1.0  0.38253  0.26625  0.50788  1.0000
  C   C82       1.0  0.99886  0.15406  0.65123  1.0000
  C   C83       1.0  0.22894  0.19000  0.74066  1.0000
  C   C84       1.0  0.19917  0.13240  0.72863  1.0000
  C   C85       1.0  0.00780  0.09286  0.54589  1.0000
  C   C86       1.0  0.08536  0.04912  0.64303  1.0000
  C   C87       1.0  0.30775  0.31972  0.64238  1.0000
  C   C88       1.0  0.17527  0.12118  0.54779  1.0000
  H   H72       1.0  0.47840  0.12850  0.73755  1.0000
  H   H73       1.0  0.15286  0.14949  0.51136  1.0000
  H   H74       1.0  0.09168  0.21168  0.51435  1.0000
  C   C89       1.0  0.02849  0.12298  0.55346  1.0000
  H   H75       1.0  0.02997  0.01183  0.59086  1.0000
  C   C90       1.0  0.17269  0.13123  0.52933  1.0000
  C   C91       1.0  0.44155  0.28930  0.66993  1.0000
  C   C92       1.0  0.45030  0.30489  0.65851  1.0000
  C   C93       1.0  0.45693  0.30377  0.63850  1.0000
  C   C94       1.0  0.45525  0.28684  0.62984  1.0000
  C   C95       1.0  0.44601  0.27153  0.64113  1.0000
  C   C96       1.0  0.43909  0.27276  0.66103  1.0000
  H   H76       1.0  0.45217  0.31779  0.66523  1.0000
  H   H77       1.0  0.46392  0.31569  0.62997  1.0000
  H   H78       1.0  0.44449  0.25846  0.63449  1.0000
  H   H79       1.0  0.43229  0.26073  0.66961  1.0000
  H   H80       1.0  0.26518  0.99375  0.56579  1.0000
  S   S27       1.0  0.11969  0.24830  0.73747  1.0000
  H   H81       1.0  0.43455  0.27761  0.50631  1.0000
  H   H82       1.0  0.41828  0.29944  0.61583  1.0000
  C   C97       1.0  0.48313  0.21621  0.64177  1.0000
  C   C98       1.0  0.16368  0.00169  0.51782  1.0000
  H   H83       1.0  0.47308  0.20509  0.64571  1.0000
  H   H84       1.0  0.07040  0.12585  0.53573  1.0000
  C   C99       1.0  0.48764  0.25317  0.73165  1.0000
  S   S28       1.0  0.19857  0.10849  0.55136  1.0000
  C   C100      1.0  0.34495  0.17068  0.71623  1.0000
  C   C101      1.0  0.36406  0.17516  0.71783  1.0000
  C   C102      1.0  0.36756  0.19444  0.72006  1.0000
  C   C103      1.0  0.35202  0.20946  0.72017  1.0000
  C   C104      1.0  0.21470  0.00658  0.65078  1.0000
  C   C105      1.0  0.32941  0.18567  0.71673  1.0000
  H   H85       1.0  0.37619  0.16371  0.71727  1.0000
  H   H86       1.0  0.38225  0.19780  0.72128  1.0000
  H   H87       1.0  0.32526  0.01239  0.67562  1.0000
  H   H88       1.0  0.45452  0.23081  0.70023  1.0000
  C   C106      1.0  0.99852  0.19220  0.61435  1.0000
  C   C107      1.0  0.03778  0.02208  0.59680  1.0000
  H   H89       1.0  0.01153  0.14163  0.53319  1.0000
  C   C108      1.0  0.25012  0.07377  0.64098  1.0000
  C   C109      1.0  0.23331  0.08495  0.64868  1.0000
  C   C110      1.0  0.23419  0.09585  0.66453  1.0000
  C   C111      1.0  0.25193  0.09614  0.67269  1.0000
  C   C112      1.0  0.26879  0.08505  0.66493  1.0000
  C   C113      1.0  0.26783  0.07385  0.64928  1.0000
  H   H90       1.0  0.21958  0.08498  0.64256  1.0000
  H   H91       1.0  0.22098  0.10403  0.67059  1.0000
  H   H92       1.0  0.28252  0.08497  0.67107  1.0000
  H   H93       1.0  0.28093  0.06524  0.64350  1.0000
  C   C114      1.0  0.10438  0.22350  0.62868  1.0000
  C   C115      1.0  0.08648  0.22963  0.63916  1.0000
  C   C116      1.0  0.08622  0.23848  0.65662  1.0000
  C   C117      1.0  0.10381  0.24135  0.66390  1.0000
  C   C118      1.0  0.12171  0.23493  0.65358  1.0000
  C   C119      1.0  0.12195  0.22617  0.63608  1.0000
  H   H94       1.0  0.07282  0.22802  0.63358  1.0000
  H   H95       1.0  0.07228  0.24338  0.66442  1.0000
  H   H96       1.0  0.13536  0.23696  0.65895  1.0000
  H   H97       1.0  0.13586  0.22160  0.62805  1.0000
  C   C120      1.0  0.99863  0.02741  0.64375  1.0000
  H   H98       1.0  0.22252  0.11160  0.58626  1.0000
  C   C121      1.0  0.14193  0.13401  0.55959  1.0000
  C   C122      1.0  0.15980  0.12242  0.56296  1.0000
  H   H99       1.0  0.13017  0.13533  0.57137  1.0000
  H   H100      1.0  0.16175  0.11478  0.57729  1.0000
  H   H101      1.0  0.33637  0.31393  0.62712  1.0000
  C   C123      1.0  0.01708  0.02039  0.65018  1.0000
  C   C124      1.0  0.13932  0.14358  0.54083  1.0000
  S   S29       1.0  0.08674  0.20211  0.55621  1.0000
  C   C125      1.0  0.13130  0.01779  0.58546  1.0000
  C   C126      1.0  0.12232  0.00306  0.59764  1.0000
  C   C127      1.0  0.47430  0.25255  0.70071  1.0000
  H   H102      1.0  0.05178  0.12341  0.65992  1.0000
  C   C128      1.0  0.02749  0.13594  0.60520  1.0000
  H   H103      1.0  0.05350  0.10072  0.52343  1.0000
  C   C129      1.0  0.99923  0.20290  0.49573  1.0000
  H   H104      1.0  0.32091  0.21654  0.71835  1.0000
  C   C130      1.0  0.01811  0.14999  0.59213  1.0000
  C   C131      1.0  0.30752  0.00907  0.72407  1.0000
  H   H105      1.0  0.02472  0.16328  0.58666  1.0000
  C   C132      1.0  0.19399  0.31461  0.70491  1.0000
  H   H106      1.0  0.03638  0.13470  0.55647  1.0000
  H   H107      1.0  0.46940  0.00413  0.72082  1.0000
  C   C133      1.0  0.33522  0.32634  0.70316  1.0000
  H   H108      1.0  0.18427  0.01268  0.64448  1.0000
  P   P4        1.0  0.06984  0.06362  0.62626  1.0000
  H   H109      1.0  0.30644  0.30440  0.64736  1.0000
  C   C134      1.0  0.12312  0.00159  0.61790  1.0000
  H   H110      1.0  0.01307  0.04437  0.59817  1.0000
  C   C135      1.0  0.24240  0.27268  0.71591  1.0000
  C   C136      1.0  0.39037  0.30998  0.63070  1.0000
  H   H111      1.0  0.37574  0.26689  0.52276  1.0000
  H   H112      1.0  0.01887  0.21279  0.68406  1.0000
  C   C137      1.0  0.18091  0.14014  0.72227  1.0000
  H   H113      1.0  0.22398  0.31186  0.69159  1.0000
  C   C138      1.0  0.20828  0.04304  0.66596  1.0000
  H   H114      1.0  0.39280  0.30098  0.64436  1.0000
  C   C139      1.0  0.27324  0.04601  0.72095  1.0000
  C   C140      1.0  0.05297  0.16634  0.67903  1.0000
  H   H115      1.0  0.13432  0.01317  0.64145  1.0000
  H   H116      1.0  0.41562  0.32031  0.73495  1.0000
  H   H117      1.0  0.15930  0.00038  0.54931  1.0000
  P   P5        1.0  0.00436  0.19285  0.65390  1.0000
  C   C141      1.0  0.40205  0.32123  0.59731  1.0000
  H   H118      1.0  0.23066  0.27276  0.70672  1.0000
  H   H119      1.0  0.02547  0.07428  0.56595  1.0000
  P   P6        1.0  0.49438  0.16603  0.73575  1.0000
  C   C142      1.0  0.13318  0.01472  0.62589  1.0000
  H   H120      1.0  0.03089  0.05998  0.64832  1.0000
  C   C143      1.0  0.01898  0.11870  0.61205  1.0000
  H   H121      1.0  0.23859  0.03789  0.67171  1.0000
  C   C144      1.0  0.24048  0.26372  0.73519  1.0000
  C   C145      1.0  0.08325  0.20795  0.50335  1.0000
  H   H122      1.0  0.49272  0.09629  0.72744  1.0000
  H   H123      1.0  0.08359  0.16808  0.66883  1.0000
  C   C146      1.0  0.06855  0.17284  0.66598  1.0000
  C   C147      1.0  0.46821  0.16962  0.73344  1.0000
  H   H124      1.0  0.46875  0.28555  0.49725  1.0000
  C   C148      1.0  0.09064  0.02107  0.66736  1.0000
  C   C149      1.0  0.00332  0.21953  0.58940  1.0000
  C   C150      1.0  0.22662  0.03200  0.66631  1.0000
  C   C151      1.0  0.15472  0.14200  0.52577  1.0000
  C   C152      1.0  0.46134  0.16585  0.71606  1.0000
  H   H125      1.0  0.45640  0.21786  0.73506  1.0000
  C   C153      1.0  0.05727  0.01684  0.60067  1.0000
  C   C154      1.0  0.07542  0.14214  0.50739  1.0000
  C   C155      1.0  0.21924  0.12335  0.59564  1.0000
  C   C156      1.0  0.23186  0.12523  0.60952  1.0000
  C   C157      1.0  0.22784  0.14064  0.62126  1.0000
  C   C158      1.0  0.21111  0.15408  0.61923  1.0000
  C   C159      1.0  0.19792  0.15187  0.60580  1.0000
  C   C160      1.0  0.20227  0.13644  0.59392  1.0000
  P   P7        1.0  0.17509  0.16784  0.60449  1.0000
  C   C161      1.0  0.15449  0.15526  0.61628  1.0000
  C   C162      1.0  0.17599  0.18950  0.61657  1.0000
  C   C163      1.0  0.17389  0.18824  0.63713  1.0000
  C   C164      1.0  0.17417  0.20490  0.64672  1.0000
  C   C165      1.0  0.17661  0.22297  0.63581  1.0000
  C   C166      1.0  0.17879  0.22437  0.61532  1.0000
  C   C167      1.0  0.17849  0.20771  0.60570  1.0000
  C   C168      1.0  0.13749  0.16604  0.62441  1.0000
  C   C169      1.0  0.12091  0.15667  0.63211  1.0000
  C   C170      1.0  0.12111  0.13648  0.63178  1.0000
  C   C171      1.0  0.13795  0.12561  0.62380  1.0000
  C   C172      1.0  0.15453  0.13495  0.61601  1.0000
  H   H126      1.0  0.24474  0.11472  0.61115  1.0000
  H   H127      1.0  0.23770  0.14209  0.63198  1.0000
  H   H128      1.0  0.20851  0.16596  0.62837  1.0000
  H   H129      1.0  0.17198  0.17437  0.64570  1.0000
  H   H130      1.0  0.17224  0.20388  0.66260  1.0000
  H   H131      1.0  0.17654  0.23595  0.64324  1.0000
  H   H132      1.0  0.18041  0.23845  0.60689  1.0000
  H   H133      1.0  0.18002  0.20916  0.58983  1.0000
  H   H134      1.0  0.13665  0.18184  0.62408  1.0000
  H   H135      1.0  0.10765  0.16528  0.63754  1.0000
  H   H136      1.0  0.10803  0.12936  0.63720  1.0000
  H   H137      1.0  0.13800  0.11000  0.62313  1.0000
  H   H138      1.0  0.16708  0.12625  0.60939  1.0000
  H   H139      1.0  0.20058  0.16868  0.56676  1.0000
  C   C173      1.0  0.25921  0.28180  0.70861  1.0000
  H   H140      1.0  0.36076  0.30127  0.53771  1.0000
  C   C174      1.0  0.47971  0.23375  0.65038  1.0000
  H   H141      1.0  0.01180  0.24533  0.59927  1.0000
  H   H142      1.0  0.17892  0.04448  0.65762  1.0000
  C   C175      1.0  0.02355  0.08575  0.66311  1.0000
  C   C176      1.0  0.02147  0.19886  0.52166  1.0000
  H   H143      1.0  0.00952  0.08123  0.66982  1.0000
  C   C177      1.0  0.37310  0.29678  0.54615  1.0000
  C   C178      1.0  0.08866  0.19052  0.49479  1.0000
  C   C179      1.0  0.03074  0.18182  0.51402  1.0000
  C   C180      1.0  0.47295  0.00160  0.73581  1.0000
  H   H144      1.0  0.13276  0.20616  0.71723  1.0000
  H   H145      1.0  0.37605  0.12893  0.73132  1.0000
  C   C181      1.0  0.38012  0.25022  0.49814  1.0000
  C   C182      1.0  0.99890  0.99672  0.62959  1.0000
  C   C183      1.0  0.18486  0.11652  0.65134  1.0000
  C   C184      1.0  0.17670  0.09955  0.65983  1.0000
  C   C185      1.0  0.16928  0.09794  0.67963  1.0000
  C   C186      1.0  0.17016  0.11325  0.69097  1.0000
  C   C187      1.0  0.17861  0.13025  0.68259  1.0000
  C   C188      1.0  0.18559  0.13190  0.66259  1.0000
  P   P8        1.0  0.17938  0.15026  0.69706  1.0000
  C   C189      1.0  0.15762  0.16759  0.69503  1.0000
  C   C190      1.0  0.28122  0.04316  0.73899  1.0000
  H   H146      1.0  0.48906  0.26203  0.65142  1.0000
  H   H147      1.0  0.15917  0.18880  0.52524  1.0000
  H   H148      1.0  0.49367  0.27298  0.70523  1.0000
  C   C191      1.0  0.12512  0.19596  0.69115  1.0000
  C   C192      1.0  0.46496  0.22962  0.72853  1.0000
  C   C193      1.0  0.15249  0.18129  0.70871  1.0000
  H   H149      1.0  0.31465  0.18245  0.71542  1.0000
  C   C194      1.0  0.46389  0.23690  0.70891  1.0000
  C   C195      1.0  0.12990  0.18223  0.67758  1.0000
  C   C196      1.0  0.14595  0.16792  0.67961  1.0000
  C   C197      1.0  0.20130  0.16261  0.68962  1.0000
  C   C198      1.0  0.20178  0.18214  0.69322  1.0000
  C   C199      1.0  0.21928  0.19094  0.68922  1.0000
  C   C200      1.0  0.23651  0.18033  0.68172  1.0000
  C   C201      1.0  0.23618  0.16098  0.67797  1.0000
  C   C202      1.0  0.21870  0.15216  0.68191  1.0000
  H   H150      1.0  0.19089  0.11758  0.63608  1.0000
  H   H151      1.0  0.17621  0.08762  0.65106  1.0000
  H   H152      1.0  0.16294  0.08478  0.68620  1.0000
  H   H153      1.0  0.16435  0.11172  0.70627  1.0000
  H   H154      1.0  0.19194  0.14491  0.65584  1.0000
  H   H155      1.0  0.28741  0.28864  0.71483  1.0000
  C   C203      1.0  0.00315  0.20320  0.62868  1.0000
  H   H156      1.0  0.46690  0.23625  0.66086  1.0000
  C   C204      1.0  0.27432  0.28162  0.72046  1.0000
  H   H157      1.0  0.21256  0.13237  0.71866  1.0000
  C   C205      1.0  0.32488  0.32526  0.63114  1.0000
  C   C206      1.0  0.40481  0.30919  0.61470  1.0000
  C   C207      1.0  0.17935  0.32671  0.71487  1.0000
  H   H158      1.0  0.12126  0.18291  0.66536  1.0000
  H   H159      1.0  0.14930  0.15737  0.66899  1.0000
  H   H160      1.0  0.18897  0.19056  0.69974  1.0000
  H   H161      1.0  0.21963  0.20580  0.69261  1.0000
  H   H162      1.0  0.25022  0.18693  0.67933  1.0000
  H   H163      1.0  0.24967  0.15249  0.67275  1.0000
  H   H164      1.0  0.21908  0.13688  0.67978  1.0000
  C   C208      1.0  0.21217  0.99791  0.53496  1.0000
  H   H165      1.0  0.00303  0.23846  0.70434  1.0000
  C   C209      1.0  0.06471  0.18556  0.64926  1.0000
  H   H166      1.0  0.47160  0.16108  0.70398  1.0000
  C   C210      1.0  0.10509  0.09871  0.57581  1.0000
  C   C211      1.0  0.11341  0.08063  0.58412  1.0000
  H   H167      1.0  0.11332  0.10693  0.56390  1.0000
  H   H168      1.0  0.12814  0.07489  0.57870  1.0000
  C   C212      1.0  0.25046  0.07286  0.73228  1.0000
  H   H169      1.0  0.37158  0.23877  0.50553  1.0000
  H   H170      1.0  0.04326  0.10126  0.57320  1.0000
  H   H171      1.0  0.16497  0.32183  0.71913  1.0000
  Fe  Fe16      1.0  0.05525  0.19480  0.55959  1.0000
  C   C213      1.0  0.46071  0.31668  0.49348  1.0000
  H   H172      1.0  0.26700  0.01615  0.59089  1.0000
  C   C214      1.0  0.00775  0.22250  0.62310  1.0000
  C   C215      1.0  0.00539  0.20907  0.51262  1.0000
  C   C216      1.0  0.06840  0.12677  0.52032  1.0000
  H   H173      1.0  0.24423  0.00561  0.65891  1.0000
  C   C217      1.0  0.19305  0.03580  0.65833  1.0000
  H   H174      1.0  0.38257  0.28116  0.59307  1.0000
  H   H175      1.0  0.01165  0.23119  0.63381  1.0000
  C   C218      1.0  0.42180  0.30793  0.50396  1.0000
  C   C219      1.0  0.03566  0.07373  0.65071  1.0000
  H   H176      1.0  0.17366  0.01291  0.51628  1.0000
  H   H177      1.0  0.05595  0.15648  0.69200  1.0000
  C   C220      1.0  0.07925  0.03178  0.65348  1.0000
  P   P9        1.0  0.39680  0.30206  0.51064  1.0000
  H   H178      1.0  0.18462  0.13049  0.51764  1.0000
  C   C221      1.0  0.13637  0.19543  0.70674  1.0000
  C   C222      1.0  0.40457  0.28471  0.56838  1.0000
  C   C223      1.0  0.38528  0.28528  0.57742  1.0000
  C   C224      1.0  0.36955  0.29130  0.56632  1.0000
  H   H179      1.0  0.07676  0.19050  0.63900  1.0000
  H   H180      1.0  0.16109  0.18119  0.72085  1.0000
  H   H181      1.0  0.35460  0.29164  0.57334  1.0000
  C   C225      1.0  0.00784  0.23060  0.60356  1.0000
  H   H182      1.0  0.23160  0.22034  0.73038  1.0000
  C   C226      1.0  0.03354  0.17252  0.67535  1.0000
  H   H183      1.0  0.33483  0.31148  0.71024  1.0000
  H   H184      1.0  0.03045  0.06743  0.61247  1.0000
  C   C227      1.0  0.49242  0.24832  0.64505  1.0000
  H   H185      1.0  0.02004  0.11290  0.67619  1.0000
  H   H186      1.0  0.06197  0.23331  0.50552  1.0000
  H   H187      1.0  0.06065  0.10111  0.60310  1.0000
  H   H188      1.0  0.04274  0.20202  0.63281  1.0000
  H   H189      1.0  0.02389  0.02902  0.65894  1.0000
  C   C228      1.0  0.00103  0.11557  0.60603  1.0000
  H   H190      1.0  0.07343  0.10210  0.63847  1.0000
  C   C229      1.0  0.45671  0.29720  0.49769  1.0000
  C   C230      1.0  0.17041  0.17517  0.57933  1.0000
  H   H191      1.0  0.01173  0.15390  0.64052  1.0000
  H   H192      1.0  0.36261  0.32393  0.64219  1.0000
  C   C231      1.0  0.22152  0.20945  0.73527  1.0000
  S   S30       1.0  0.35545  0.23400  0.72255  1.0000
  C   C232      1.0  0.15557  0.99462  0.53645  1.0000
  C   C233      1.0  0.03239  0.10411  0.56285  1.0000
  H   H193      1.0  0.08282  0.15285  0.51311  1.0000
  C   C234      1.0  0.06709  0.02967  0.60918  1.0000
  C   C235      1.0  0.04530  0.19198  0.64569  1.0000
  H   H194      1.0  0.02162  0.16730  0.68556  1.0000
  H   H195      1.0  0.10920  0.05584  0.60552  1.0000
  S   S31       1.0  0.15452  0.04618  0.62357  1.0000
  H   H196      1.0  0.14957  0.14503  0.73109  1.0000
  S   S32       1.0  0.11710  0.15728  0.53498  1.0000
  C   C236      1.0  0.00380  0.21861  0.68240  1.0000
  C   C237      1.0  0.02956  0.18536  0.65860  1.0000
  H   H197      1.0  0.26050  0.28895  0.69375  1.0000
  H   H198      1.0  0.31624  0.03298  0.70283  1.0000
  C   C238      1.0  0.14737  0.18751  0.55556  1.0000
  H   H199      1.0  0.11276  0.20711  0.68958  1.0000
  C   C239      1.0  0.02470  0.17577  0.49704  1.0000
  H   H200      1.0  0.14756  0.04251  0.58397  1.0000
  C   C240      1.0  0.14230  0.02940  0.61365  1.0000
  H   H201      1.0  0.11692  0.01941  0.68179  1.0000
  C   C241      1.0  0.14128  0.03087  0.59345  1.0000
  H   H202      1.0  0.42320  0.28959  0.54161  1.0000
  H   H203      1.0  0.10732  0.06961  0.63982  1.0000
  C   C242      1.0  0.02226  0.08897  0.55884  1.0000
  C   C243      1.0  0.03808  0.05331  0.60938  1.0000
  H   H204      1.0  0.22722  0.25690  0.74045  1.0000
  H   H205      1.0  0.47263  0.25891  0.68584  1.0000
  C   C244      1.0  0.05361  0.07956  0.64142  1.0000
  C   C245      1.0  0.18563  0.17380  0.56391  1.0000
  H   H206      1.0  0.13248  0.19253  0.55232  1.0000
  C   C246      1.0  0.08610  0.10609  0.58280  1.0000
  C   C247      1.0  0.10273  0.06994  0.59942  1.0000
  H   H207      1.0  0.07966  0.12016  0.57650  1.0000
  C   C248      1.0  0.15130  0.18241  0.57499  1.0000
  H   H208      1.0  0.13928  0.18401  0.58650  1.0000
  C   C249      1.0  0.40816  0.29007  0.54821  1.0000
  C   C250      1.0  0.18159  0.17872  0.54447  1.0000
  H   H209      1.0  0.08221  0.02533  0.61206  1.0000
  C   C251      1.0  0.04741  0.10937  0.65767  1.0000
  H   H210      1.0  0.06572  0.02647  0.65088  1.0000
  C   C252      1.0  0.25796  0.06086  0.71763  1.0000
  C   C253      1.0  0.05956  0.09733  0.64528  1.0000
  H   H211      1.0  0.12745  0.05044  0.66398  1.0000
  H   H212      1.0  0.41682  0.28025  0.57700  1.0000
  C   C254      1.0  0.11380  0.04539  0.66133  1.0000
  C   C255      1.0  0.08382  0.07743  0.60674  1.0000
  C   C256      1.0  0.07543  0.09538  0.59805  1.0000
  H   H213      1.0  0.19323  0.17688  0.53262  1.0000
  C   C257      1.0  0.39245  0.29607  0.53691  1.0000
  H   H214      1.0  0.00025  0.08090  0.54281  1.0000
  C   C258      1.0  0.16245  0.18549  0.54029  1.0000
  C   C259      1.0  0.02946  0.10354  0.66665  1.0000
  C   C260      1.0  0.10791  0.02787  0.67129  1.0000
  C   C261      1.0  0.10250  0.05607  0.64736  1.0000
  H   H215      1.0  0.20603  0.05736  0.67124  1.0000
  H   H216      1.0  0.43828  0.04461  0.74154  1.0000
  H   H217      1.0  0.48475  0.19474  0.70188  1.0000
  C   C262      1.0  0.19618  0.01762  0.65085  1.0000
  S   S33       1.0  0.25817  0.12434  0.74282  1.0000
  H   H218      1.0  0.25216  0.06339  0.70354  1.0000
  C   C263      1.0  0.42766  0.17388  0.72972  1.0000
  C   C264      1.0  0.27255  0.27246  0.73966  1.0000
  S   S34       1.0  0.25444  0.18438  0.74145  1.0000
  C   C265      1.0  0.33299  0.20500  0.71837  1.0000
  H   H219      1.0  0.23902  0.08472  0.72942  1.0000
  H   H220      1.0  0.06475  0.00269  0.59740  1.0000
  H   H221      1.0  0.27872  0.03701  0.70933  1.0000
  H   H222      1.0  0.24783  0.01184  0.62289  1.0000
  C   C266      1.0  0.05900  0.11258  0.51338  1.0000
  H   H223      1.0  0.19559  0.23013  0.73292  1.0000
  C   C267      1.0  0.49310  0.12706  0.72995  1.0000
  Fe  Fe17      1.0  0.26932  0.15395  0.73750  1.0000
  H   H224      1.0  0.47361  0.04906  0.74040  1.0000
  H   H225      1.0  0.21770  0.30154  0.73608  1.0000
  C   C268      1.0  0.16388  0.13952  0.73565  1.0000
  C   C269      1.0  0.21262  0.32109  0.69935  1.0000
  C   C270      1.0  0.37312  0.32280  0.62929  1.0000
  C   C271      1.0  0.24728  0.00132  0.61265  1.0000
  C   C272      1.0  0.06669  0.22028  0.49818  1.0000
  H   H226      1.0  0.10117  0.18089  0.49958  1.0000
  C   C273      1.0  0.99861  0.20040  0.59480  1.0000
  C   C274      1.0  0.99996  0.14700  0.58635  1.0000
  H   H227      1.0  0.41203  0.17562  0.72828  1.0000
  Fe  Fe18      1.0  0.15218  0.23880  0.73565  1.0000
  C   C275      1.0  0.20116  0.21500  0.73670  1.0000
  C   C276      1.0  0.43734  0.29280  0.50287  1.0000
  H   H228      1.0  0.08476  0.32513  0.73576  1.0000
  H   H229      1.0  0.41341  0.32086  0.58500  1.0000
  C   C277      1.0  0.49000  0.00850  0.74068  1.0000
  C   C278      1.0  0.02658  0.00188  0.64600  1.0000
  C   C279      1.0  0.31468  0.01742  0.70542  1.0000
  C   C280      1.0  0.48622  0.26058  0.71194  1.0000
  C   C281      1.0  0.47639  0.23801  0.74000  1.0000
  C   C282      1.0  0.15951  0.99380  0.50128  1.0000
  H   H230      1.0  0.26828  0.23528  0.86116  1.0000
  S   S35       1.0  0.37398  0.30489  0.76834  1.0000
  H   H231      1.0  0.45983  0.00638  0.80896  1.0000
  C   C283      1.0  0.36073  0.99503  0.85211  1.0000
  Fe  Fe19      1.0  0.45639  0.16414  0.90988  1.0000
  S   S36       1.0  0.46212  0.19514  0.91326  1.0000
  S   S37       1.0  0.42683  0.15258  0.92025  1.0000
  Fe  Fe20      1.0  0.47259  0.19645  0.88079  1.0000
  S   S38       1.0  0.46456  0.22223  0.85792  1.0000
  C   C284      1.0  0.48566  0.27145  0.76755  1.0000
  C   C285      1.0  0.35004  0.31196  0.76174  1.0000
  S   S39       1.0  0.46542  0.16642  0.87752  1.0000
  S   S40       1.0  0.48618  0.15134  0.91834  1.0000
  Fe  Fe21      1.0  0.36131  0.02564  0.88568  1.0000
  S   S41       1.0  0.33003  0.03725  0.89380  1.0000
  S   S42       1.0  0.38433  0.24735  0.76290  1.0000
  Fe  Fe22      1.0  0.37842  0.05870  0.90113  1.0000
  S   S43       1.0  0.34826  0.07252  0.91103  1.0000
  S   S44       1.0  0.40843  0.06799  0.90401  1.0000
  Fe  Fe23      1.0  0.34124  0.04157  0.92217  1.0000
  C   C286      1.0  0.01301  0.30397  0.92010  1.0000
  Fe  Fe24      1.0  0.34028  0.06656  0.88150  1.0000
  S   S45       1.0  0.32587  0.09170  0.86141  1.0000
  S   S46       1.0  0.37194  0.02852  0.91437  1.0000
  S   S47       1.0  0.37100  0.05419  0.87132  1.0000
  H   H232      1.0  0.31502  0.02000  0.78312  1.0000
  H   H233      1.0  0.03677  0.30899  0.83221  1.0000
  H   H234      1.0  0.34052  0.18791  0.75583  1.0000
  H   H235      1.0  0.36343  0.03275  0.79133  1.0000
  H   H236      1.0  0.43011  0.01470  0.93334  1.0000
  C   C287      1.0  0.49067  0.26637  0.78677  1.0000
  H   H237      1.0  0.46295  0.28551  0.74991  1.0000
  H   H238      1.0  0.41813  0.03997  0.77304  1.0000
  S   S48       1.0  0.09836  0.29499  0.85813  1.0000
  H   H239      1.0  0.18498  0.30394  0.75500  1.0000
  Fe  Fe25      1.0  0.28747  0.11340  0.75403  1.0000
  S   S49       1.0  0.32548  0.03187  0.95223  1.0000
  S   S50       1.0  0.43582  0.21827  0.77386  1.0000
  C   C288      1.0  0.37156  0.04107  0.79929  1.0000
  S   S51       1.0  0.15980  0.26682  0.74491  1.0000
  C   C289      1.0  0.05607  0.28539  0.79247  1.0000
  C   C290      1.0  0.10915  0.29740  0.79072  1.0000
  H   H240      1.0  0.48805  0.19529  0.76374  1.0000
  H   H241      1.0  0.48890  0.04722  0.77132  1.0000
  C   C291      1.0  0.10366  0.29667  0.83218  1.0000
  C   C292      1.0  0.11221  0.27998  0.82320  1.0000
  C   C293      1.0  0.11509  0.28037  0.80257  1.0000
  H   H242      1.0  0.36501  0.08048  0.82536  1.0000
  H   H243      1.0  0.48326  0.14036  0.85313  1.0000
  H   H244      1.0  0.11617  0.26654  0.83225  1.0000
  H   H245      1.0  0.12122  0.26730  0.79588  1.0000
  S   S52       1.0  0.16271  0.20827  0.74835  1.0000
  C   C294      1.0  0.29329  0.01099  0.76672  1.0000
  H   H246      1.0  0.41059  0.19273  0.82164  1.0000
  H   H247      1.0  0.33588  0.02198  0.81648  1.0000
  C   C295      1.0  0.49331  0.12923  0.84667  1.0000
  H   H248      1.0  0.18576  0.28032  0.79737  1.0000
  H   H249      1.0  0.34439  0.02373  0.85019  1.0000
  C   C296      1.0  0.32516  0.00779  0.96504  1.0000
  C   C297      1.0  0.45525  0.22038  0.83528  1.0000
  C   C298      1.0  0.44651  0.23741  0.82503  1.0000
  C   C299      1.0  0.44004  0.23694  0.80647  1.0000
  C   C300      1.0  0.44251  0.21944  0.79776  1.0000
  C   C301      1.0  0.45105  0.20235  0.80807  1.0000
  C   C302      1.0  0.45721  0.20275  0.82677  1.0000
  H   H250      1.0  0.44475  0.25106  0.83154  1.0000
  H   H251      1.0  0.43341  0.25018  0.79878  1.0000
  H   H252      1.0  0.45289  0.18867  0.80157  1.0000
  H   H253      1.0  0.46374  0.18945  0.83445  1.0000
  C   C303      1.0  0.42176  0.12948  0.91440  1.0000
  C   C304      1.0  0.43686  0.11539  0.90832  1.0000
  C   C305      1.0  0.43248  0.09671  0.90510  1.0000
  C   C306      1.0  0.41297  0.09204  0.90741  1.0000
  C   C307      1.0  0.39780  0.10629  0.91298  1.0000
  C   C308      1.0  0.40221  0.12486  0.91664  1.0000
  H   H254      1.0  0.45197  0.11872  0.90664  1.0000
  H   H255      1.0  0.44434  0.08574  0.90105  1.0000
  H   H256      1.0  0.38273  0.10287  0.91495  1.0000
  H   H257      1.0  0.39046  0.13563  0.92141  1.0000
  C   C309      1.0  0.30213  0.09024  0.80183  1.0000
  C   C310      1.0  0.30470  0.10800  0.80848  1.0000
  C   C311      1.0  0.31211  0.10814  0.82665  1.0000
  C   C312      1.0  0.31715  0.09055  0.83837  1.0000
  C   C313      1.0  0.31468  0.07278  0.83166  1.0000
  C   C314      1.0  0.30710  0.07265  0.81357  1.0000
  H   H258      1.0  0.30055  0.12162  0.79978  1.0000
  H   H259      1.0  0.31371  0.12197  0.83181  1.0000
  H   H260      1.0  0.31841  0.05912  0.84051  1.0000
  H   H261      1.0  0.30512  0.05881  0.80862  1.0000
  C   C315      1.0  0.26132  0.20858  0.85176  1.0000
  C   C316      1.0  0.49460  0.18175  0.77101  1.0000
  H   H262      1.0  0.21457  0.11906  0.75299  1.0000
  H   H263      1.0  0.47366  0.12457  0.82606  1.0000
  H   H264      1.0  0.43988  0.29503  0.77827  1.0000
  C   C317      1.0  0.27661  0.00083  0.76820  1.0000
  C   C318      1.0  0.00687  0.31664  0.79397  1.0000
  S   S53       1.0  0.29247  0.08920  0.77924  1.0000
  H   H265      1.0  0.04016  0.29078  0.93080  1.0000
  C   C319      1.0  0.21534  0.30911  0.74912  1.0000
  H   H266      1.0  0.25886  0.18110  0.84099  1.0000
  H   H267      1.0  0.44900  0.28613  0.81208  1.0000
  H   H268      1.0  0.39382  0.21507  0.79661  1.0000
  S   S54       1.0  0.49416  0.09484  0.80338  1.0000
  H   H269      1.0  0.33550  0.20921  0.78217  1.0000
  H   H270      1.0  0.40004  0.07033  0.82885  1.0000
  C   C320      1.0  0.34436  0.00970  0.82387  1.0000
  C   C321      1.0  0.27379  0.22270  0.85337  1.0000
  C   C322      1.0  0.38873  0.03408  0.96030  1.0000
  Fe  Fe26      1.0  0.41707  0.24145  0.75547  1.0000
  P   P10       1.0  0.32629  0.20107  0.82528  1.0000
  C   C323      1.0  0.21514  0.26801  0.78769  1.0000
  C   C324      1.0  0.22670  0.25186  0.78022  1.0000
  C   C325      1.0  0.21749  0.23573  0.77669  1.0000
  P   P11       1.0  0.25262  0.25299  0.77260  1.0000
  C   C326      1.0  0.26561  0.22860  0.77460  1.0000
  H   H271      1.0  0.49409  0.30730  0.74812  1.0000
  C   C327      1.0  0.29574  0.00179  0.80148  1.0000
  C   C328      1.0  0.19364  0.32056  0.77651  1.0000
  H   H272      1.0  0.30296  0.23139  0.84679  1.0000
  H   H273      1.0  0.07583  0.25596  0.82985  1.0000
  C   C329      1.0  0.32332  0.05520  0.74760  1.0000
  C   C330      1.0  0.25951  0.21435  0.78966  1.0000
  C   C331      1.0  0.26898  0.19526  0.79067  1.0000
  C   C332      1.0  0.28493  0.19038  0.77706  1.0000
  C   C333      1.0  0.29131  0.20451  0.76226  1.0000
  C   C334      1.0  0.31966  0.30355  0.75206  1.0000
  C   C335      1.0  0.26258  0.26724  0.78870  1.0000
  C   C336      1.0  0.26797  0.25857  0.80700  1.0000
  C   C337      1.0  0.27594  0.26952  0.81929  1.0000
  C   C338      1.0  0.27851  0.28920  0.81347  1.0000
  C   C339      1.0  0.27289  0.29802  0.79548  1.0000
  C   C340      1.0  0.26488  0.28714  0.78321  1.0000
  C   C341      1.0  0.36230  0.05785  0.80727  1.0000
  C   C342      1.0  0.44777  0.00020  0.81809  1.0000
  H   H274      1.0  0.42800  0.02404  0.89796  1.0000
  H   H275      1.0  0.22176  0.28095  0.78975  1.0000
  H   H276      1.0  0.22591  0.22344  0.77016  1.0000
  Fe  Fe27      1.0  0.49314  0.18233  0.91925  1.0000
  Fe  Fe28      1.0  0.08663  0.32079  0.87563  1.0000
  C   C343      1.0  0.43024  0.01195  0.82313  1.0000
  H   H277      1.0  0.29078  0.04849  0.98718  1.0000
  C   C344      1.0  0.46467  0.04723  0.75437  1.0000
  H   H278      1.0  0.24708  0.21779  0.80029  1.0000
  H   H279      1.0  0.26357  0.18404  0.80160  1.0000
  H   H280      1.0  0.29194  0.17548  0.77756  1.0000
  C   C345      1.0  0.10120  0.31424  0.79973  1.0000
  H   H281      1.0  0.49375  0.19375  0.79851  1.0000
  H   H282      1.0  0.26613  0.24336  0.81178  1.0000
  H   H283      1.0  0.28029  0.26276  0.83327  1.0000
  H   H284      1.0  0.01038  0.29761  0.77080  1.0000
  H   H285      1.0  0.27495  0.31327  0.79083  1.0000
  H   H286      1.0  0.26081  0.29434  0.76934  1.0000
  C   C346      1.0  0.32746  0.25672  0.79740  1.0000
  C   C347      1.0  0.34567  0.26175  0.80095  1.0000
  C   C348      1.0  0.35798  0.24845  0.81206  1.0000
  C   C349      1.0  0.32152  0.23842  0.80505  1.0000
  H   H287      1.0  0.31812  0.26692  0.78844  1.0000
  H   H288      1.0  0.35039  0.27584  0.79481  1.0000
  H   H289      1.0  0.37223  0.25231  0.81449  1.0000
  H   H290      1.0  0.30759  0.23452  0.80175  1.0000
  C   C350      1.0  0.45669  0.12572  0.78060  1.0000
  C   C351      1.0  0.45949  0.10765  0.77296  1.0000
  C   C352      1.0  0.44348  0.09718  0.77254  1.0000
  C   C353      1.0  0.42467  0.10460  0.77995  1.0000
  C   C354      1.0  0.42161  0.12296  0.78727  1.0000
  C   C355      1.0  0.43783  0.13344  0.78764  1.0000
  P   P12       1.0  0.39705  0.13223  0.79659  1.0000
  C   C356      1.0  0.38096  0.12541  0.78024  1.0000
  C   C357      1.0  0.39131  0.12222  0.82175  1.0000
  C   C358      1.0  0.37251  0.12674  0.83148  1.0000
  C   C359      1.0  0.36793  0.11912  0.85096  1.0000
  C   C360      1.0  0.38220  0.10732  0.86101  1.0000
  C   C361      1.0  0.40111  0.10325  0.85164  1.0000
  C   C362      1.0  0.40570  0.11068  0.83208  1.0000
  C   C363      1.0  0.38505  0.13023  0.75994  1.0000
  C   C364      1.0  0.34083  0.18963  0.84454  1.0000
  H   H291      1.0  0.40151  0.01226  0.84003  1.0000
  C   C365      1.0  0.35325  0.10904  0.77414  1.0000
  C   C366      1.0  0.36528  0.11426  0.78720  1.0000
  C   C367      1.0  0.39544  0.15857  0.79656  1.0000
  C   C368      1.0  0.40418  0.16644  0.81080  1.0000
  C   C369      1.0  0.40348  0.18674  0.81085  1.0000
  C   C370      1.0  0.39393  0.19935  0.79680  1.0000
  C   C371      1.0  0.38499  0.19170  0.78272  1.0000
  C   C372      1.0  0.38567  0.17139  0.78261  1.0000
  H   H292      1.0  0.33031  0.13800  0.79732  1.0000
  C   C373      1.0  0.02423  0.29163  0.93304  1.0000
  H   H293      1.0  0.44574  0.08308  0.76689  1.0000
  H   H294      1.0  0.41252  0.09597  0.77996  1.0000
  H   H295      1.0  0.43618  0.14744  0.79343  1.0000
  H   H296      1.0  0.36131  0.13598  0.82397  1.0000
  H   H297      1.0  0.35324  0.12221  0.85829  1.0000
  H   H298      1.0  0.37862  0.10131  0.87609  1.0000
  H   H299      1.0  0.41215  0.09425  0.85966  1.0000
  H   H300      1.0  0.42047  0.10746  0.82517  1.0000
  C   C374      1.0  0.27319  0.05493  0.75381  1.0000
  C   C375      1.0  0.19549  0.18157  0.74873  1.0000
  H   H301      1.0  0.02023  0.31252  0.90778  1.0000
  H   H302      1.0  0.34085  0.10087  0.77962  1.0000
  H   H303      1.0  0.36205  0.10963  0.80259  1.0000
  H   H304      1.0  0.41178  0.15689  0.82175  1.0000
  C   C376      1.0  0.04548  0.30006  0.80312  1.0000
  S   S55       1.0  0.42155  0.27329  0.74871  1.0000
  H   H305      1.0  0.37771  0.20153  0.77172  1.0000
  H   H306      1.0  0.37859  0.16596  0.77156  1.0000
  C   C377      1.0  0.37009  0.16943  0.85457  1.0000
  C   C378      1.0  0.34915  0.01070  0.84291  1.0000
  H   H307      1.0  0.36381  0.17626  0.82470  1.0000
  S   S56       1.0  0.11045  0.29831  0.76476  1.0000
  H   H308      1.0  0.34986  0.06132  0.98215  1.0000
  C   C379      1.0  0.32996  0.18573  0.80543  1.0000
  H   H309      1.0  0.18451  0.11889  0.77665  1.0000
  C   C380      1.0  0.25542  0.26382  0.74736  1.0000
  C   C381      1.0  0.31108  0.32290  0.75306  1.0000
  H   H310      1.0  0.36201  0.21997  0.82805  1.0000
  H   H311      1.0  0.34706  0.06256  0.80533  1.0000
  C   C382      1.0  0.33374  0.22504  0.81640  1.0000
  H   H312      1.0  0.05636  0.28630  0.77670  1.0000
  H   H313      1.0  0.32100  0.20081  0.86848  1.0000
  C   C383      1.0  0.04506  0.29802  0.82364  1.0000
  C   C384      1.0  0.35869  0.17827  0.83981  1.0000
  H   H314      1.0  0.05648  0.28117  0.84894  1.0000
  C   C385      1.0  0.33462  0.19210  0.86431  1.0000
  H   H315      1.0  0.47419  0.10150  0.76789  1.0000
  H   H316      1.0  0.07566  0.25864  0.79374  1.0000
  C   C386      1.0  0.47750  0.27175  0.80274  1.0000
  C   C387      1.0  0.42390  0.00517  0.92492  1.0000
  H   H317      1.0  0.32593  0.15883  0.82439  1.0000
  H   H318      1.0  0.02369  0.27144  0.95925  1.0000
  C   C388      1.0  0.19476  0.26778  0.79195  1.0000
  C   C389      1.0  0.33428  0.19373  0.78593  1.0000
  C   C390      1.0  0.33721  0.18167  0.77079  1.0000
  C   C391      1.0  0.33567  0.16163  0.77483  1.0000
  C   C392      1.0  0.05598  0.28215  0.83322  1.0000
  C   C393      1.0  0.33156  0.15353  0.79418  1.0000
  C   C394      1.0  0.28809  0.18987  0.83385  1.0000
  H   H319      1.0  0.46927  0.13347  0.78151  1.0000
  H   H320      1.0  0.37266  0.16499  0.88559  1.0000
  C   C395      1.0  0.35211  0.23012  0.81972  1.0000
  C   C396      1.0  0.29341  0.22045  0.84517  1.0000
  C   C397      1.0  0.28173  0.22355  0.76100  1.0000
  H   H321      1.0  0.34121  0.18509  0.89427  1.0000
  H   H322      1.0  0.46928  0.04220  0.80306  1.0000
  H   H323      1.0  0.26887  0.00068  0.75547  1.0000
  C   C398      1.0  0.39107  0.03455  0.80218  1.0000
  H   H324      1.0  0.28449  0.27230  0.74855  1.0000
  H   H325      1.0  0.38384  0.16061  0.85092  1.0000
  C   C399      1.0  0.30072  0.20403  0.83528  1.0000
  H   H326      1.0  0.24465  0.31766  0.74592  1.0000
  H   H327      1.0  0.33760  0.15247  0.76290  1.0000
  H   H328      1.0  0.29318  0.17700  0.82646  1.0000
  C   C400      1.0  0.35865  0.03078  0.74914  1.0000
  C   C401      1.0  0.46726  0.28181  0.76460  1.0000
  H   H329      1.0  0.37222  0.02116  0.75012  1.0000
  C   C402      1.0  0.06687  0.26948  0.80212  1.0000
  C   C403      1.0  0.37309  0.12489  0.74696  1.0000
  C   C404      1.0  0.19715  0.23555  0.78101  1.0000
  C   C405      1.0  0.36169  0.04961  0.98067  1.0000
  H   H330      1.0  0.25252  0.07933  0.76167  1.0000
  C   C406      1.0  0.34183  0.99720  0.97276  1.0000
  H   H331      1.0  0.07191  0.31889  0.77044  1.0000
  C   C407      1.0  0.18579  0.25156  0.78863  1.0000
  C   C408      1.0  0.44478  0.04476  0.75504  1.0000
  C   C409      1.0  0.45932  0.28228  0.79966  1.0000
  H   H332      1.0  0.16996  0.25152  0.79154  1.0000
  H   H333      1.0  0.15206  0.13188  0.76553  1.0000
  H   H334      1.0  0.19077  0.30493  0.81801  1.0000
  C   C410      1.0  0.16341  0.31050  0.83589  1.0000
  C   C411      1.0  0.21588  0.17594  0.74691  1.0000
  H   H335      1.0  0.47608  0.23289  0.75548  1.0000
  H   H336      1.0  0.42391  0.18221  0.75912  1.0000
  C   C412      1.0  0.41487  0.99827  0.89392  1.0000
  C   C413      1.0  0.32893  0.16544  0.80946  1.0000
  C   C414      1.0  0.36377  0.17188  0.87417  1.0000
  H   H337      1.0  0.35599  0.00267  0.96889  1.0000
  C   C415      1.0  0.23054  0.31803  0.75482  1.0000
  C   C416      1.0  0.30255  0.01172  0.78360  1.0000
  C   C417      1.0  0.37326  0.04889  0.96266  1.0000
  C   C418      1.0  0.30682  0.00092  0.97092  1.0000
  H   H338      1.0  0.24614  0.21025  0.85819  1.0000
  C   C419      1.0  0.41509  0.00352  0.83554  1.0000
  H   H339      1.0  0.28491  0.29762  0.82284  1.0000
  C   C420      1.0  0.34606  0.18322  0.87903  1.0000
  H   H340      1.0  0.45897  0.17803  0.76279  1.0000
  H   H341      1.0  0.29376  0.00918  0.96571  1.0000
  C   C421      1.0  0.06693  0.26793  0.82246  1.0000
  C   C422      1.0  0.16519  0.13191  0.75519  1.0000
  H   H342      1.0  0.30328  0.00222  0.81431  1.0000
  H   H343      1.0  0.03689  0.31920  0.98716  1.0000
  C   C423      1.0  0.19687  0.31044  0.75988  1.0000
  C   C424      1.0  0.01492  0.28081  0.94912  1.0000
  H   H344      1.0  0.16095  0.29517  0.83888  1.0000
  C   C425      1.0  0.26849  0.19216  0.84207  1.0000
  H   H345      1.0  0.19012  0.22316  0.77799  1.0000
  H   H346      1.0  0.27905  0.05299  0.76787  1.0000
  H   H347      1.0  0.39765  0.03376  0.94629  1.0000
  H   H348      1.0  0.14717  0.31576  0.76549  1.0000
  H   H349      1.0  0.37019  0.05980  0.95046  1.0000
  Fe  Fe29      1.0  0.38868  0.27887  0.75353  1.0000
  C   C426      1.0  0.45419  0.28728  0.78060  1.0000
  H   H350      1.0  0.39775  0.02105  0.79651  1.0000
  C   C427      1.0  0.49521  0.00501  0.75986  1.0000
  P   P13       1.0  0.42755  0.03774  0.81440  1.0000
  C   C428      1.0  0.40186  0.04545  0.81210  1.0000
  C   C429      1.0  0.43653  0.05171  0.83133  1.0000
  C   C430      1.0  0.43568  0.04514  0.85140  1.0000
  C   C431      1.0  0.44326  0.05583  0.86422  1.0000
  C   C432      1.0  0.45160  0.07310  0.85713  1.0000
  C   C433      1.0  0.45209  0.07990  0.83728  1.0000
  C   C434      1.0  0.44440  0.06942  0.82446  1.0000
  C   C435      1.0  0.39237  0.06215  0.82037  1.0000
  C   C436      1.0  0.37255  0.06813  0.81821  1.0000
  C   C437      1.0  0.44189  0.04133  0.79072  1.0000
  C   C438      1.0  0.46206  0.04327  0.78982  1.0000
  C   C439      1.0  0.47329  0.04635  0.77176  1.0000
  C   C440      1.0  0.22700  0.32594  0.83360  1.0000
  C   C441      1.0  0.09878  0.31397  0.82031  1.0000
  C   C442      1.0  0.43339  0.04193  0.77311  1.0000
  H   H351      1.0  0.34568  0.28320  0.75513  1.0000
  H   H352      1.0  0.42919  0.03186  0.85718  1.0000
  H   H353      1.0  0.44258  0.05090  0.87972  1.0000
  H   H354      1.0  0.45758  0.08131  0.86702  1.0000
  H   H355      1.0  0.45856  0.09327  0.83176  1.0000
  H   H356      1.0  0.44494  0.07506  0.80917  1.0000
  H   H357      1.0  0.39745  0.13824  0.75413  1.0000
  H   H358      1.0  0.13676  0.32032  0.85340  1.0000
  C   C443      1.0  0.35826  0.05078  0.75081  1.0000
  C   C444      1.0  0.14972  0.32467  0.84408  1.0000
  H   H359      1.0  0.34186  0.00734  0.74600  1.0000
  C   C445      1.0  0.18345  0.12458  0.76147  1.0000
  H   H360      1.0  0.21492  0.31747  0.83911  1.0000
  C   C446      1.0  0.35702  0.11460  0.75406  1.0000
  C   C447      1.0  0.33920  0.29817  0.75602  1.0000
  C   C448      1.0  0.48780  0.12010  0.83145  1.0000
  C   C449      1.0  0.42293  0.01038  0.90488  1.0000
  H   H361      1.0  0.40454  0.00836  0.97406  1.0000
  H   H362      1.0  0.30992  0.06502  0.74705  1.0000
  C   C450      1.0  0.02538  0.32623  0.97856  1.0000
  C   C451      1.0  0.34137  0.02297  0.74678  1.0000
  H   H363      1.0  0.28670  0.23401  0.74907  1.0000
  C   C452      1.0  0.39257  0.01984  0.97592  1.0000
  P   P14       1.0  0.03230  0.32128  0.79084  1.0000
  S   S57       1.0  0.29708  0.14352  0.75153  1.0000
  H   H364      1.0  0.30317  0.20047  0.75126  1.0000
  H   H365      1.0  0.37158  0.05679  0.75291  1.0000
  Fe  Fe30      1.0  0.49565  0.15622  0.88618  1.0000
  C   C453      1.0  0.06169  0.32364  0.75965  1.0000
  C   C454      1.0  0.43432  0.17750  0.74710  1.0000
  S   S58       1.0  0.05426  0.32511  0.94711  1.0000
  H   H366      1.0  0.48117  0.26740  0.81759  1.0000
  H   H367      1.0  0.34005  0.07836  0.75158  1.0000
  C   C455      1.0  0.24365  0.32348  0.84379  1.0000
  C   C456      1.0  0.18016  0.31610  0.82399  1.0000
  S   S59       1.0  0.09849  0.32309  0.90419  1.0000
  C   C457      1.0  0.04137  0.32560  0.76528  1.0000
  H   H368      1.0  0.17912  0.32193  0.78424  1.0000
  H   H369      1.0  0.41366  0.00251  0.87847  1.0000
  C   C458      1.0  0.45446  0.17528  0.74904  1.0000
  C   C459      1.0  0.32355  0.03511  0.74609  1.0000
  H   H370      1.0  0.34740  0.11118  0.74390  1.0000
  C   C460      1.0  0.34058  0.06293  0.75008  1.0000
  H   H371      1.0  0.31122  0.29269  0.74811  1.0000
  H   H372      1.0  0.18545  0.17083  0.75429  1.0000
  H   H373      1.0  0.24421  0.31326  0.85693  1.0000
  H   H374      1.0  0.22152  0.16094  0.75115  1.0000
  C   C461      1.0  0.00024  0.30453  0.78181  1.0000
  H   H375      1.0  0.14433  0.32513  0.79933  1.0000
  S   S60       1.0  0.36899  0.99633  0.87475  1.0000
  C   C462      1.0  0.20039  0.12471  0.74816  1.0000
  C   C463      1.0  0.48312  0.99425  0.77405  1.0000
  C   C464      1.0  0.18812  0.20117  0.74395  1.0000
  C   C465      1.0  0.25803  0.06984  0.75039  1.0000
  Fe  Fe31      1.0  0.12769  0.27726  0.74408  1.0000
  P   P15       1.0  0.30134  0.02452  0.74374  1.0000
  H   H376      1.0  0.09268  0.32701  0.82704  1.0000
  C   C466      1.0  0.00019  0.63193  0.08566  1.0000
  C   C467      1.0  0.13204  0.65016  0.19544  1.0000
  H   H377      1.0  0.14728  0.65612  0.09333  1.0000
  C   C468      1.0  0.08821  0.57543  0.08357  1.0000
  Fe  Fe32      1.0  0.21610  0.61170  0.02860  1.0000
  S   S61       1.0  0.18987  0.63110  0.01916  1.0000
  S   S62       1.0  0.23514  0.62408  0.04834  1.0000
  Fe  Fe33      1.0  0.17316  0.60497  0.02839  1.0000
  S   S63       1.0  0.14155  0.60939  0.04211  1.0000
  C   C469      1.0  0.05158  0.59515  0.07610  1.0000
  S   S64       1.0  0.19899  0.58563  0.03927  1.0000
  H   H378      1.0  0.19264  0.57996  0.22413  1.0000
  Fe  Fe34      1.0  0.05630  0.64163  0.13519  1.0000
  S   S65       1.0  0.03786  0.63520  0.16367  1.0000
  C   C470      1.0  0.20619  0.63317  0.10104  1.0000
  Fe  Fe35      1.0  0.09006  0.61183  0.14643  1.0000
  S   S66       1.0  0.07387  0.60252  0.17585  1.0000
  S   S67       1.0  0.12008  0.59832  0.13454  1.0000
  Fe  Fe36      1.0  0.04686  0.60320  0.15966  1.0000
  S   S68       1.0  0.02254  0.58373  0.15611  1.0000
  Fe  Fe37      1.0  0.06616  0.63534  0.17722  1.0000
  S   S69       1.0  0.06780  0.65097  0.20451  1.0000
  S   S70       1.0  0.06433  0.61013  0.13051  1.0000
  S   S71       1.0  0.08371  0.64416  0.14872  1.0000
  C   C471      1.0  0.07093  0.51317  0.08358  1.0000
  C   C472      1.0  0.05534  0.51915  0.04751  1.0000
  C   C473      1.0  0.15004  0.65344  0.23606  1.0000
  H   H379      1.0  0.02951  0.54914  0.18513  1.0000
  C   C474      1.0  0.02758  0.61614  0.01958  1.0000
  H   H380      1.0  0.15326  0.64936  0.00320  1.0000
  C   C475      1.0  0.09355  0.57094  0.99698  1.0000
  H   H381      1.0  0.22808  0.46600  0.01696  1.0000
  H   H382      1.0  0.03750  0.60331  0.07357  1.0000
  H   H383      1.0  0.22588  0.38645  0.02396  1.0000
  C   C476      1.0  0.06685  0.64339  0.01766  1.0000
  C   C477      1.0  0.24314  0.42863  0.00135  1.0000
  C   C478      1.0  0.00119  0.46111  0.12242  1.0000
  C   C479      1.0  0.23747  0.64931  0.04999  1.0000
  C   C480      1.0  0.06124  0.64134  0.05312  1.0000
  Fe  Fe38      1.0  0.20547  0.57679  0.00825  1.0000
  C   C481      1.0  0.00885  0.61291  0.01566  1.0000
  C   C482      1.0  0.06437  0.63199  0.03585  1.0000
  H   H384      1.0  0.00437  0.45792  0.09164  1.0000
  H   H385      1.0  0.25456  0.64283  0.07459  1.0000
  C   C483      1.0  0.00979  0.62293  0.10155  1.0000
  C   C484      1.0  0.08537  0.58441  0.06475  1.0000
  C   C485      1.0  0.01208  0.56086  0.16177  1.0000
  C   C486      1.0  0.13594  0.60631  0.06781  1.0000
  C   C487      1.0  0.11772  0.61459  0.07616  1.0000
  C   C488      1.0  0.11280  0.61240  0.09660  1.0000
  C   C489      1.0  0.12591  0.60157  0.10881  1.0000
  C   C490      1.0  0.14405  0.59314  0.10040  1.0000
  C   C491      1.0  0.14918  0.59573  0.07999  1.0000
  H   H386      1.0  0.10737  0.62276  0.06681  1.0000
  H   H387      1.0  0.09880  0.61901  0.10285  1.0000
  H   H388      1.0  0.15409  0.58439  0.10966  1.0000
  H   H389      1.0  0.16321  0.58919  0.07367  1.0000
  H   H390      1.0  0.09777  0.58401  0.05356  1.0000
  C   C492      1.0  0.02243  0.49374  0.11210  1.0000
  P   P16       1.0  0.03390  0.51613  0.10556  1.0000
  H   H391      1.0  0.48256  0.56790  0.22076  1.0000
  C   C493      1.0  0.24963  0.39980  0.03284  1.0000
  H   H392      1.0  0.26729  0.44159  0.01032  1.0000
  H   H393      1.0  0.04929  0.52158  0.03355  1.0000
  C   C494      1.0  0.11550  0.59338  0.00401  1.0000
  H   H394      1.0  0.07516  0.56963  0.11327  1.0000
  C   C495      1.0  0.00395  0.65081  0.07747  1.0000
  C   C496      1.0  0.04275  0.51825  0.06498  1.0000
  C   C497      1.0  0.02258  0.63298  0.10975  1.0000
  C   C498      1.0  0.43438  0.56372  0.23740  1.0000
  H   H395      1.0  0.00014  0.62418  0.00712  1.0000
  C   C499      1.0  0.01850  0.48255  0.09762  1.0000
  H   H396      1.0  0.02856  0.62644  0.12295  1.0000
  P   P17       1.0  0.06290  0.60598  0.03663  1.0000
  C   C500      1.0  0.23484  0.39856  0.02099  1.0000
  C   C501      1.0  0.01534  0.48858  0.13174  1.0000
  C   C502      1.0  0.27143  0.62000  0.00329  1.0000
  H   H397      1.0  0.01409  0.51789  0.19204  1.0000
  S   S72       1.0  0.17825  0.59449  0.99861  1.0000
  P   P18       1.0  0.13787  0.63235  0.23311  1.0000
  H   H398      1.0  0.03297  0.62995  0.01381  1.0000
  H   H399      1.0  0.99949  0.46846  0.15207  1.0000
  C   C503      1.0  0.39351  0.52303  0.21778  1.0000
  C   C504      1.0  0.23161  0.41288  0.00528  1.0000
  H   H400      1.0  0.46703  0.59456  0.19841  1.0000
  H   H401      1.0  0.06429  0.57402  0.01171  1.0000
  C   C505      1.0  0.13291  0.61477  0.20001  1.0000
  C   C506      1.0  0.02711  0.65149  0.10127  1.0000
  C   C507      1.0  0.16118  0.65136  0.05511  1.0000
  H   H402      1.0  0.22018  0.63234  0.09194  1.0000
  C   C508      1.0  0.13426  0.63247  0.20764  1.0000
  C   C509      1.0  0.05444  0.58606  0.09486  1.0000
  H   H403      1.0  0.18835  0.65434  0.06636  1.0000
  H   H404      1.0  0.02698  0.52021  0.06432  1.0000
  H   H405      1.0  0.39084  0.52554  0.20249  1.0000
  C   C510      1.0  0.26124  0.41536  0.02896  1.0000
  H   H406      1.0  0.03585  0.55560  0.08607  1.0000
  C   C511      1.0  0.38753  0.50636  0.22937  1.0000
  H   H407      1.0  0.13522  0.65160  0.04069  1.0000
  C   C512      1.0  0.00108  0.59547  0.02325  1.0000
  C   C513      1.0  0.00789  0.46630  0.10281  1.0000
  C   C514      1.0  0.46667  0.57074  0.22155  1.0000
  C   C515      1.0  0.18020  0.58539  0.23391  1.0000
  C   C516      1.0  0.07570  0.51710  0.04806  1.0000
  H   H408      1.0  0.29035  0.59373  0.99766  1.0000
  C   C517      1.0  0.11207  0.57781  0.99420  1.0000
  H   H409      1.0  0.05880  0.48958  0.13077  1.0000
  H   H410      1.0  0.43077  0.60173  0.20112  1.0000
  H   H411      1.0  0.10346  0.61428  0.02398  1.0000
  C   C518      1.0  0.17047  0.65189  0.23681  1.0000
  C   C519      1.0  0.00499  0.47221  0.13688  1.0000
  H   H412      1.0  0.11326  0.65496  0.08638  1.0000
  C   C520      1.0  0.06974  0.50723  0.14970  1.0000
  H   H413      1.0  0.05871  0.55651  0.14996  1.0000
  H   H414      1.0  0.17945  0.63809  0.23544  1.0000
  C   C521      1.0  0.06987  0.52608  0.15505  1.0000
  H   H415      1.0  0.01736  0.49745  0.14312  1.0000
  C   C522      1.0  0.03098  0.58418  0.03832  1.0000
  C   C523      1.0  0.04766  0.53899  0.13083  1.0000
  H   H416      1.0  0.02322  0.48649  0.08233  1.0000
  H   H417      1.0  0.00591  0.56775  0.04073  1.0000
  C   C524      1.0  0.45794  0.58569  0.20895  1.0000
  C   C525      1.0  0.03879  0.60184  0.03106  1.0000
  H   H418      1.0  0.05909  0.63312  0.06741  1.0000
  H   H419      1.0  0.12874  0.60114  0.17453  1.0000
  C   C526      1.0  0.01812  0.54651  0.17659  1.0000
  C   C527      1.0  0.00633  0.56964  0.08740  1.0000
  C   C528      1.0  0.43748  0.58965  0.21042  1.0000
  H   H420      1.0  0.13005  0.59820  0.00251  1.0000
  C   C529      1.0  0.12999  0.61478  0.18035  1.0000
  H   H421      1.0  0.07830  0.52842  0.16667  1.0000
  C   C530      1.0  0.24949  0.50711  0.99877  1.0000
  H   H422      1.0  0.26283  0.61289  0.01572  1.0000
  C   C531      1.0  0.17948  0.61701  0.11951  1.0000
  C   C532      1.0  0.19762  0.61600  0.10803  1.0000
  H   H423      1.0  0.02093  0.46463  0.99833  1.0000
  C   C533      1.0  0.05043  0.51525  0.08318  1.0000
  H   H424      1.0  0.04258  0.58714  0.10668  1.0000
  C   C534      1.0  0.08174  0.59558  0.01920  1.0000
  H   H425      1.0  0.10263  0.56846  0.08667  1.0000
  H   H426      1.0  0.15944  0.63723  0.06343  1.0000
  C   C535      1.0  0.05869  0.50426  0.13481  1.0000
  H   H427      1.0  0.03889  0.55148  0.12417  1.0000
  C   C536      1.0  0.19658  0.65139  0.10540  1.0000
  C   C537      1.0  0.17810  0.65255  0.11658  1.0000
  H   H428      1.0  0.17729  0.65174  0.15659  1.0000
  H   H429      1.0  0.13376  0.60098  0.20928  1.0000
  C   C538      1.0  0.16969  0.63519  0.12364  1.0000
  S   S73       1.0  0.22535  0.60080  0.99879  1.0000
  C   C539      1.0  0.05890  0.54193  0.14557  1.0000
  H   H430      1.0  0.07812  0.49491  0.15717  1.0000
  H   H431      1.0  0.25211  0.38867  0.04501  1.0000
  H   H432      1.0  0.15539  0.63568  0.13207  1.0000
  H   H433      1.0  0.17280  0.60373  0.12498  1.0000
  H   H434      1.0  0.20500  0.60194  0.10437  1.0000
  H   H435      1.0  0.00662  0.60848  0.10819  1.0000
  C   C540      1.0  0.04756  0.52014  0.12524  1.0000
  C   C541      1.0  0.08347  0.51408  0.06608  1.0000
  H   H436      1.0  0.03930  0.57292  0.04717  1.0000
  H   H437      1.0  0.06905  0.63656  0.00414  1.0000
  H   H438      1.0  0.09927  0.51265  0.06651  1.0000
  C   C542      1.0  0.25805  0.42971  0.01325  1.0000
  H   H439      1.0  0.07735  0.51115  0.09730  1.0000
  H   H440      1.0  0.40975  0.65431  0.21876  1.0000
  C   C543      1.0  0.01214  0.58109  0.03454  1.0000
  C   C544      1.0  0.06694  0.59422  0.06083  1.0000
  H   H441      1.0  0.08548  0.51792  0.03454  1.0000
  C   C545      1.0  0.10036  0.60242  0.01627  1.0000
  H   H442      1.0  0.09849  0.62389  0.22579  1.0000
  C   C546      1.0  0.43379  0.65292  0.23637  1.0000
  H   H443      1.0  0.12564  0.63240  0.15307  1.0000
  C   C547      1.0  0.07274  0.57614  0.09858  1.0000
  C   C548      1.0  0.07844  0.57970  0.00954  1.0000
  C   C549      1.0  0.12822  0.63241  0.16822  1.0000
  C   C550      1.0  0.02058  0.55391  0.09097  1.0000
  C   C551      1.0  0.01516  0.53618  0.10104  1.0000
  C   C552      1.0  0.16884  0.60285  0.22825  1.0000
  H   H444      1.0  0.40756  0.54916  0.21648  1.0000
  C   C553      1.0  0.26704  0.64000  0.99763  1.0000
  H   H445      1.0  0.17266  0.61080  0.21407  1.0000
  C   C554      1.0  0.00934  0.52873  0.18045  1.0000
  H   H446      1.0  0.23288  0.49846  0.02614  1.0000
  C   C555      1.0  0.40302  0.53647  0.22583  1.0000
  H   H447      1.0  0.22014  0.41156  0.99626  1.0000
  S   S74       1.0  0.20882  0.54479  0.00094  1.0000
  H   H448      1.0  0.01046  0.58348  0.07998  1.0000
  H   H449      1.0  0.25107  0.52153  0.00269  1.0000
  C   C556      1.0  0.15261  0.60992  0.24076  1.0000
  C   C557      1.0  0.12916  0.65008  0.17577  1.0000
  H   H450      1.0  0.27274  0.41630  0.03810  1.0000
  S   S75       1.0  0.43817  0.62688  0.23851  1.0000
  C   C558      1.0  0.23914  0.49409  0.01197  1.0000
  C   C559      1.0  0.24808  0.65433  0.06454  1.0000
  C   C560      1.0  0.13928  0.65170  0.99718  1.0000
  H   H451      1.0  0.01852  0.35086  0.02401  1.0000
  C   C561      1.0  0.01214  0.36493  0.01763  1.0000
  C   C562      1.0  0.99728  0.55694  0.15081  1.0000
  H   H452      1.0  0.25524  0.64812  0.00608  1.0000
  C   C563      1.0  0.42575  0.57878  0.22459  1.0000
  H   H453      1.0  0.17781  0.65926  0.19045  1.0000
  C   C564      1.0  0.14761  0.65946  0.04207  1.0000
  C   C565      1.0  0.02074  0.37350  0.99977  1.0000
  H   H454      1.0  0.02646  0.42870  0.99802  1.0000
  H   H455      1.0  0.40996  0.58251  0.22591  1.0000
  C   C566      1.0  0.23632  0.47583  0.00663  1.0000
  H   H456      1.0  0.38022  0.49595  0.22308  1.0000
  C   C567      1.0  0.09759  0.62859  0.24030  1.0000
  C   C568      1.0  0.45499  0.55983  0.23572  1.0000
  H   H457      1.0  0.00315  0.32727  0.00361  1.0000
  H   H458      1.0  0.99658  0.65777  0.06508  1.0000
  C   C569      1.0  0.28702  0.60924  0.99318  1.0000
  C   C570      1.0  0.46896  0.63497  0.49188  1.0000
  C   C571      1.0  0.43356  0.53630  0.27433  1.0000
  C   C572      1.0  0.26032  0.59097  0.43136  1.0000
  Fe  Fe39      1.0  0.46277  0.59719  0.30238  1.0000
  S   S76       1.0  0.45411  0.58253  0.27803  1.0000
  S   S77       1.0  0.44739  0.60028  0.33279  1.0000
  H   H459      1.0  0.29676  0.65252  0.35370  1.0000
  Fe  Fe40      1.0  0.46003  0.61054  0.25885  1.0000
  H   H460      1.0  0.38645  0.49014  0.25804  1.0000
  H   H461      1.0  0.46707  0.55806  0.47110  1.0000
  S   S78       1.0  0.46656  0.62556  0.28376  1.0000
  Fe  Fe41      1.0  0.33496  0.57835  0.43355  1.0000
  S   S79       1.0  0.32957  0.61112  0.43422  1.0000
  S   S80       1.0  0.32695  0.56318  0.46423  1.0000
  Fe  Fe42      1.0  0.35134  0.58346  0.39010  1.0000
  S   S81       1.0  0.34720  0.61624  0.38800  1.0000
  S   S82       1.0  0.36416  0.57065  0.36220  1.0000
  Fe  Fe43      1.0  0.35923  0.61167  0.41700  1.0000
  S   S83       1.0  0.38235  0.62946  0.42328  1.0000
  Fe  Fe44      1.0  0.31799  0.61240  0.40519  1.0000
  S   S84       1.0  0.28956  0.63022  0.39777  1.0000
  S   S85       1.0  0.36563  0.57909  0.41815  1.0000
  S   S86       1.0  0.32104  0.57965  0.40537  1.0000
  C   C573      1.0  0.38270  0.62707  0.44866  1.0000
  H   H462      1.0  0.47409  0.63385  0.45024  1.0000
  H   H463      1.0  0.46138  0.56912  0.42624  1.0000
  H   H464      1.0  0.36453  0.60263  0.29913  1.0000
  H   H465      1.0  0.30622  0.61734  0.35032  1.0000
  C   C574      1.0  0.37184  0.61343  0.46053  1.0000
  C   C575      1.0  0.27785  0.48390  0.48350  1.0000
  C   C576      1.0  0.46191  0.62698  0.44652  1.0000
  C   C577      1.0  0.40662  0.53332  0.24561  1.0000
  H   H466      1.0  0.36423  0.60349  0.45405  1.0000
  C   C578      1.0  0.28468  0.63496  0.46981  1.0000
  C   C579      1.0  0.15935  0.58180  0.26462  1.0000
  H   H467      1.0  0.25709  0.60680  0.42991  1.0000
  C   C580      1.0  0.42368  0.59304  0.33991  1.0000
  C   C581      1.0  0.41468  0.58243  0.32817  1.0000
  C   C582      1.0  0.39638  0.57556  0.33498  1.0000
  C   C583      1.0  0.38679  0.57976  0.35334  1.0000
  C   C584      1.0  0.39545  0.59113  0.36465  1.0000
  C   C585      1.0  0.41384  0.59767  0.35800  1.0000
  H   H468      1.0  0.42204  0.57935  0.31403  1.0000
  H   H469      1.0  0.38974  0.56684  0.32614  1.0000
  H   H470      1.0  0.38818  0.59458  0.37876  1.0000
  H   H471      1.0  0.42046  0.60621  0.36703  1.0000
  C   C586      1.0  0.35070  0.63432  0.33613  1.0000
  C   C587      1.0  0.43657  0.62658  0.42514  1.0000
  C   C588      1.0  0.39697  0.64726  0.32092  1.0000
  C   C589      1.0  0.48904  0.43229  0.47264  1.0000
  H   H472      1.0  0.36163  0.60274  0.49010  1.0000
  H   H473      1.0  0.40314  0.51370  0.27244  1.0000
  H   H474      1.0  0.49384  0.46706  0.39317  1.0000
  H   H475      1.0  0.12484  0.64424  0.27225  1.0000
  H   H476      1.0  0.44228  0.53481  0.32206  1.0000
  H   H477      1.0  0.27504  0.48352  0.45301  1.0000
  C   C590      1.0  0.33200  0.52301  0.46086  1.0000
  C   C591      1.0  0.32921  0.53791  0.47326  1.0000
  H   H478      1.0  0.35800  0.56815  0.29897  1.0000
  H   H479      1.0  0.33376  0.52678  0.44516  1.0000
  C   C592      1.0  0.41125  0.64011  0.30665  1.0000
  H   H480      1.0  0.40049  0.64771  0.48408  1.0000
  C   C593      1.0  0.39124  0.59969  0.27953  1.0000
  C   C594      1.0  0.27837  0.63803  0.45109  1.0000
  C   C595      1.0  0.39227  0.63833  0.47760  1.0000
  H   H481      1.0  0.48788  0.63600  0.34278  1.0000
  C   C596      1.0  0.11416  0.63393  0.24751  1.0000
  H   H482      1.0  0.32308  0.62018  0.49185  1.0000
  H   H483      1.0  0.36564  0.62859  0.33183  1.0000
  C   C597      1.0  0.44290  0.65392  0.33966  1.0000
  H   H484      1.0  0.34079  0.60557  0.33928  1.0000
  C   C598      1.0  0.07742  0.63637  0.27012  1.0000
  H   H485      1.0  0.49230  0.65799  0.26471  1.0000
  C   C599      1.0  0.17546  0.57486  0.25208  1.0000
  C   C600      1.0  0.31178  0.64752  0.34854  1.0000
  H   H486      1.0  0.47490  0.44088  0.47512  1.0000
  H   H487      1.0  0.44631  0.64162  0.36932  1.0000
  H   H488      1.0  0.49425  0.62294  0.31096  1.0000
  C   C601      1.0  0.48692  0.58053  0.46827  1.0000
  C   C602      1.0  0.45226  0.63524  0.43030  1.0000
  H   H489      1.0  0.43514  0.58825  0.46074  1.0000
  H   H490      1.0  0.48147  0.42038  0.44747  1.0000
  H   H491      1.0  0.13547  0.60425  0.26890  1.0000
  H   H492      1.0  0.42880  0.63309  0.41280  1.0000
  C   C603      1.0  0.11222  0.64019  0.26633  1.0000
  P   P19       1.0  0.46863  0.59876  0.47817  1.0000
  H   H493      1.0  0.40209  0.64946  0.44802  1.0000
  H   H494      1.0  0.49227  0.53288  0.45833  1.0000
  C   C604      1.0  0.48195  0.56170  0.46668  1.0000
  C   C605      1.0  0.27634  0.49267  0.46435  1.0000
  C   C606      1.0  0.47918  0.61638  0.48989  1.0000
  C   C607      1.0  0.27851  0.58241  0.43687  1.0000
  H   H495      1.0  0.42126  0.62722  0.31030  1.0000
  H   H496      1.0  0.46735  0.50797  0.31188  1.0000
  C   C608      1.0  0.45595  0.58532  0.39850  1.0000
  C   C609      1.0  0.33652  0.62108  0.34024  1.0000
  H   H497      1.0  0.39622  0.63979  0.33568  1.0000
  C   C610      1.0  0.43148  0.54092  0.29375  1.0000
  H   H498      1.0  0.32220  0.64564  0.45832  1.0000
  C   C611      1.0  0.44714  0.52052  0.26894  1.0000
  C   C612      1.0  0.32968  0.49809  0.48928  1.0000
  C   C613      1.0  0.33209  0.50319  0.46887  1.0000
  C   C614      1.0  0.41264  0.64947  0.28759  1.0000
  C   C615      1.0  0.38393  0.56078  0.27933  1.0000
  H   H499      1.0  0.39425  0.61470  0.27973  1.0000
  C   C616      1.0  0.24650  0.57913  0.42740  1.0000
  H   H500      1.0  0.45478  0.60320  0.37088  1.0000
  C   C617      1.0  0.39335  0.63917  0.45717  1.0000
  C   C618      1.0  0.45561  0.61020  0.45793  1.0000
  C   C619      1.0  0.48755  0.58074  0.41135  1.0000
  H   H501      1.0  0.28934  0.59148  0.43991  1.0000
  H   H502      1.0  0.35104  0.65208  0.47356  1.0000
  C   C620      1.0  0.46395  0.59669  0.38209  1.0000
  H   H503      1.0  0.27808  0.46816  0.48681  1.0000
  C   C621      1.0  0.37080  0.57348  0.29022  1.0000
  H   H504      1.0  0.35070  0.34029  0.46683  1.0000
  C   C622      1.0  0.27709  0.51297  0.45981  1.0000
  H   H505      1.0  0.42367  0.64372  0.27663  1.0000
  P   P20       1.0  0.27607  0.52389  0.43473  1.0000
  C   C623      1.0  0.26935  0.55007  0.43400  1.0000
  C   C624      1.0  0.29977  0.51955  0.42063  1.0000
  C   C625      1.0  0.30568  0.53317  0.40487  1.0000
  C   C626      1.0  0.32423  0.53017  0.39430  1.0000
  C   C627      1.0  0.33689  0.51343  0.39917  1.0000
  C   C628      1.0  0.33092  0.49953  0.41443  1.0000
  C   C629      1.0  0.31239  0.50250  0.42506  1.0000
  C   C630      1.0  0.28308  0.56209  0.43796  1.0000
  H   H506      1.0  0.44053  0.58295  0.39990  1.0000
  C   C631      1.0  0.46773  0.57745  0.41323  1.0000
  H   H507      1.0  0.47041  0.49884  0.27795  1.0000
  C   C632      1.0  0.25093  0.55873  0.42877  1.0000
  C   C633      1.0  0.25790  0.51290  0.42416  1.0000
  C   C634      1.0  0.24041  0.50841  0.43557  1.0000
  C   C635      1.0  0.22626  0.49990  0.42748  1.0000
  C   C636      1.0  0.22943  0.49592  0.40792  1.0000
  C   C637      1.0  0.24673  0.50050  0.39643  1.0000
  C   C638      1.0  0.26093  0.50900  0.40448  1.0000
  C   C639      1.0  0.31708  0.62768  0.34650  1.0000
  H   H508      1.0  0.09242  0.64655  0.29193  1.0000
  C   C640      1.0  0.45757  0.51550  0.30159  1.0000
  H   H509      1.0  0.28051  0.53983  0.47194  1.0000
  H   H510      1.0  0.45685  0.64846  0.42183  1.0000
  H   H511      1.0  0.29611  0.54628  0.40087  1.0000
  H   H512      1.0  0.32897  0.54103  0.38254  1.0000
  H   H513      1.0  0.35141  0.51137  0.39121  1.0000
  H   H514      1.0  0.34081  0.48662  0.41834  1.0000
  H   H515      1.0  0.30826  0.49168  0.43700  1.0000
  H   H516      1.0  0.29746  0.55572  0.44174  1.0000
  H   H517      1.0  0.41746  0.59262  0.26078  1.0000
  H   H518      1.0  0.31969  0.65455  0.40230  1.0000
  C   C641      1.0  0.29029  0.65582  0.39434  1.0000
  H   H519      1.0  0.24007  0.54991  0.42546  1.0000
  H   H520      1.0  0.23772  0.51150  0.45074  1.0000
  C   C642      1.0  0.27930  0.52430  0.47484  1.0000
  H   H521      1.0  0.21848  0.48928  0.40167  1.0000
  H   H522      1.0  0.24918  0.49744  0.38126  1.0000
  H   H523      1.0  0.27420  0.51248  0.39532  1.0000
  H   H524      1.0  0.41830  0.60300  0.43217  1.0000
  C   C643      1.0  0.43059  0.60959  0.43612  1.0000
  P   P21       1.0  0.41901  0.55039  0.25634  1.0000
  H   H525      1.0  0.43602  0.64162  0.33635  1.0000
  H   H526      1.0  0.42086  0.55266  0.29842  1.0000
  C   C644      1.0  0.35433  0.35581  0.49116  1.0000
  C   C645      1.0  0.37448  0.59291  0.29037  1.0000
  C   C646      1.0  0.34555  0.65433  0.33830  1.0000
  H   H527      1.0  0.23243  0.58582  0.42305  1.0000
  C   C647      1.0  0.44872  0.65390  0.35832  1.0000
  H   H528      1.0  0.21284  0.49637  0.43639  1.0000
  Fe  Fe45      1.0  0.48663  0.57269  0.27178  1.0000
  H   H529      1.0  0.33403  0.49172  0.45928  1.0000
  C   C648      1.0  0.39104  0.50310  0.24905  1.0000
  C   C649      1.0  0.37051  0.61285  0.48094  1.0000
  C   C650      1.0  0.44009  0.60138  0.45241  1.0000
  H   H530      1.0  0.26168  0.65737  0.43087  1.0000
  C   C651      1.0  0.44354  0.53066  0.30728  1.0000
  C   C652      1.0  0.09389  0.64145  0.27755  1.0000
  H   H531      1.0  0.48937  0.60926  0.36753  1.0000
  H   H532      1.0  0.28316  0.62744  0.44068  1.0000
  H   H533      1.0  0.46233  0.54888  0.24561  1.0000
  H   H534      1.0  0.45515  0.63927  0.48570  1.0000
  C   C653      1.0  0.40082  0.56746  0.26837  1.0000
  H   H535      1.0  0.44891  0.51660  0.25407  1.0000
  C   C654      1.0  0.27925  0.64909  0.48308  1.0000
  C   C655      1.0  0.40054  0.51650  0.25715  1.0000
  C   C656      1.0  0.48376  0.59988  0.38012  1.0000
  C   C657      1.0  0.40440  0.58703  0.26868  1.0000
  H   H536      1.0  0.01622  0.65174  0.40494  1.0000
  C   C658      1.0  0.45924  0.51031  0.28248  1.0000
  C   C659      1.0  0.26628  0.65496  0.44552  1.0000
  C   C660      1.0  0.07930  0.62989  0.25154  1.0000
  S   S87       1.0  0.49171  0.59938  0.25026  1.0000
  S   S88       1.0  0.49466  0.58538  0.29773  1.0000
  H   H537      1.0  0.06649  0.62637  0.24549  1.0000
  H   H538      1.0  0.38107  0.54567  0.27988  1.0000
  H   H539      1.0  0.15562  0.57358  0.27867  1.0000
  C   C661      1.0  0.14794  0.59926  0.25901  1.0000
  H   H540      1.0  0.18422  0.56128  0.25642  1.0000
  H   H541      1.0  0.06314  0.63762  0.27863  1.0000
  H   H542      1.0  0.29412  0.62173  0.47352  1.0000
  C   C662      1.0  0.49276  0.42077  0.45705  1.0000
  C   C663      1.0  0.38019  0.62574  0.48944  1.0000
  H   H543      1.0  0.45685  0.65673  0.25338  1.0000
  C   C664      1.0  0.32722  0.66005  0.45580  1.0000
  C   C665      1.0  0.35771  0.33982  0.48013  1.0000
  H   H544      1.0  0.34479  0.36870  0.48640  1.0000
  H   H545      1.0  0.44853  0.34693  0.49175  1.0000
  C   C666      1.0  0.49590  0.59144  0.39449  1.0000
  H   H546      1.0  0.49604  0.63409  0.39456  1.0000
  C   C667      1.0  0.49618  0.54743  0.45938  1.0000
  H   H547      1.0  0.49632  0.57519  0.42312  1.0000
  H   H548      1.0  0.49222  0.65990  0.41649  1.0000
  H   H549      1.0  0.42755  0.61057  0.49280  1.0000
  Fe  Fe46      1.0  0.33191  0.46455  0.53116  1.0000
  S   S89       1.0  0.35708  0.47595  0.54222  1.0000
  H   H550      1.0  0.47975  0.63129  0.61601  1.0000
  Fe  Fe47      1.0  0.32019  0.44195  0.57173  1.0000
  S   S90       1.0  0.34477  0.45216  0.58491  1.0000
  S   S91       1.0  0.29963  0.42210  0.59089  1.0000
  Fe  Fe48      1.0  0.33568  0.48119  0.56855  1.0000
  S   S92       1.0  0.33256  0.50951  0.58179  1.0000
  Fe  Fe49      1.0  0.36321  0.44548  0.55710  1.0000
  S   S93       1.0  0.39449  0.43153  0.55842  1.0000
  S   S94       1.0  0.30991  0.47168  0.55684  1.0000
  S   S95       1.0  0.33931  0.43336  0.54445  1.0000
  H   H551      1.0  0.18286  0.62836  0.66217  1.0000
  S   S96       1.0  0.47419  0.34286  0.53150  1.0000
  H   H552      1.0  0.49012  0.48133  0.62858  1.0000
  H   H553      1.0  0.28911  0.62725  0.57696  1.0000
  S   S97       1.0  0.41619  0.34205  0.54535  1.0000
  Fe  Fe50      1.0  0.48439  0.34568  0.56036  1.0000
  H   H554      1.0  0.48169  0.41280  0.56702  1.0000
  S   S98       1.0  0.24900  0.40870  0.71792  1.0000
  H   H555      1.0  0.24605  0.64531  0.51207  1.0000
  S   S99       1.0  0.26649  0.36448  0.70822  1.0000
  Fe  Fe51      1.0  0.27819  0.39374  0.70694  1.0000
  S   S100      1.0  0.29966  0.40866  0.68390  1.0000
  Fe  Fe52      1.0  0.23809  0.37898  0.72209  1.0000
  S   S101      1.0  0.20656  0.37508  0.71863  1.0000
  C   C668      1.0  0.40168  0.35525  0.64240  1.0000
  C   C669      1.0  0.12233  0.58279  0.69914  1.0000
  H   H556      1.0  0.30853  0.60453  0.71943  1.0000
  Fe  Fe53      1.0  0.22597  0.62809  0.70210  1.0000
  H   H557      1.0  0.48446  0.39500  0.71866  1.0000
  S   S102      1.0  0.22913  0.59582  0.71158  1.0000
  Fe  Fe54      1.0  0.39200  0.54932  0.68069  1.0000
  S   S103      1.0  0.37818  0.54386  0.65462  1.0000
  S   S104      1.0  0.37416  0.57182  0.69913  1.0000
  Fe  Fe55      1.0  0.42967  0.52167  0.66970  1.0000
  S   S105      1.0  0.41809  0.51467  0.64271  1.0000
  C   C670      1.0  0.06903  0.32745  0.73999  1.0000
  Fe  Fe56      1.0  0.40779  0.54690  0.63775  1.0000
  S   S106      1.0  0.41048  0.56144  0.60640  1.0000
  Fe  Fe57      1.0  0.38976  0.51247  0.66195  1.0000
  S   S107      1.0  0.37151  0.48801  0.66041  1.0000
  S   S108      1.0  0.42138  0.55440  0.66341  1.0000
  S   S109      1.0  0.40162  0.51740  0.68957  1.0000
  C   C671      1.0  0.41306  0.58664  0.59992  1.0000
  C   C672      1.0  0.41377  0.59406  0.58007  1.0000
  C   C673      1.0  0.41609  0.61390  0.57415  1.0000
  C   C674      1.0  0.47183  0.41375  0.62101  1.0000
  C   C675      1.0  0.41748  0.61908  0.60790  1.0000
  C   C676      1.0  0.41451  0.59931  0.61389  1.0000
  H   H558      1.0  0.41242  0.58443  0.56922  1.0000
  H   H559      1.0  0.41666  0.61933  0.55879  1.0000
  H   H560      1.0  0.41353  0.59381  0.62925  1.0000
  H   H561      1.0  0.33613  0.59854  0.65839  1.0000
  C   C677      1.0  0.29413  0.59032  0.53461  1.0000
  H   H562      1.0  0.45541  0.63464  0.55448  1.0000
  H   H563      1.0  0.28290  0.52421  0.50539  1.0000
  C   C678      1.0  0.30644  0.57598  0.71090  1.0000
  C   C679      1.0  0.31657  0.59160  0.71379  1.0000
  C   C680      1.0  0.33727  0.59019  0.71002  1.0000
  C   C681      1.0  0.34803  0.57339  0.70288  1.0000
  C   C682      1.0  0.33780  0.55803  0.69945  1.0000
  C   C683      1.0  0.31719  0.55924  0.70370  1.0000
  C   C684      1.0  0.03589  0.33683  0.73147  1.0000
  H   H564      1.0  0.34584  0.54499  0.69404  1.0000
  H   H565      1.0  0.29460  0.64419  0.60494  1.0000
  H   H566      1.0  0.46605  0.51106  0.63199  1.0000
  H   H567      1.0  0.38268  0.33842  0.52768  1.0000
  C   C685      1.0  0.47544  0.46455  0.61156  1.0000
  C   C686      1.0  0.28449  0.53270  0.67802  1.0000
  H   H568      1.0  0.36423  0.32827  0.71019  1.0000
  C   C687      1.0  0.46883  0.62447  0.62636  1.0000
  H   H569      1.0  0.32578  0.50931  0.51737  1.0000
  C   C688      1.0  0.34206  0.50426  0.60434  1.0000
  C   C689      1.0  0.35612  0.51549  0.60880  1.0000
  C   C690      1.0  0.36553  0.51005  0.62574  1.0000
  C   C691      1.0  0.36036  0.49387  0.63870  1.0000
  C   C692      1.0  0.34605  0.48276  0.63442  1.0000
  C   C693      1.0  0.33696  0.48791  0.61714  1.0000
  H   H570      1.0  0.36041  0.52787  0.59870  1.0000
  H   H571      1.0  0.37729  0.51803  0.62829  1.0000
  H   H572      1.0  0.34201  0.47021  0.64436  1.0000
  H   H573      1.0  0.32597  0.47928  0.61372  1.0000
  C   C694      1.0  0.29874  0.41955  0.61692  1.0000
  C   C695      1.0  0.28504  0.40816  0.62833  1.0000
  C   C696      1.0  0.28468  0.40507  0.64895  1.0000
  C   C697      1.0  0.29810  0.41331  0.65832  1.0000
  C   C698      1.0  0.31135  0.42516  0.64700  1.0000
  C   C699      1.0  0.31170  0.42823  0.62647  1.0000
  H   H574      1.0  0.27481  0.40151  0.62114  1.0000
  H   H575      1.0  0.27420  0.39616  0.65756  1.0000
  H   H576      1.0  0.32159  0.43187  0.65410  1.0000
  H   H577      1.0  0.32214  0.43721  0.61809  1.0000
  C   C700      1.0  0.39991  0.40662  0.55477  1.0000
  C   C701      1.0  0.41942  0.39819  0.55477  1.0000
  C   C702      1.0  0.42444  0.37839  0.55193  1.0000
  C   C703      1.0  0.40990  0.36685  0.54910  1.0000
  C   C704      1.0  0.39029  0.37517  0.54931  1.0000
  C   C705      1.0  0.38529  0.39506  0.55211  1.0000
  H   H578      1.0  0.43072  0.40706  0.55677  1.0000
  H   H579      1.0  0.43961  0.37216  0.55171  1.0000
  H   H580      1.0  0.37891  0.36628  0.54747  1.0000
  H   H581      1.0  0.37015  0.40136  0.55238  1.0000
  H   H582      1.0  0.44631  0.47532  0.66247  1.0000
  H   H583      1.0  0.47853  0.46755  0.71425  1.0000
  H   H584      1.0  0.30643  0.36283  0.67943  1.0000
  C   C706      1.0  0.40588  0.33386  0.73489  1.0000
  C   C707      1.0  0.40704  0.41055  0.72475  1.0000
  H   H585      1.0  0.40223  0.41100  0.71036  1.0000
  H   H586      1.0  0.15081  0.54448  0.71379  1.0000
  C   C708      1.0  0.46240  0.55720  0.60836  1.0000
  C   C709      1.0  0.41150  0.48322  0.60041  1.0000
  C   C710      1.0  0.39519  0.47277  0.60176  1.0000
  C   C711      1.0  0.39777  0.45253  0.60127  1.0000
  C   C712      1.0  0.41668  0.44263  0.59929  1.0000
  C   C713      1.0  0.43326  0.45296  0.59776  1.0000
  C   C714      1.0  0.43049  0.47344  0.59804  1.0000
  P   P22       1.0  0.45731  0.44056  0.59095  1.0000
  C   C715      1.0  0.47706  0.45414  0.59508  1.0000
  C   C716      1.0  0.46047  0.41679  0.60511  1.0000
  C   C717      1.0  0.33496  0.49065  0.71799  1.0000
  H   H587      1.0  0.40519  0.59628  0.51984  1.0000
  C   C718      1.0  0.45441  0.38479  0.70121  1.0000
  C   C719      1.0  0.47831  0.36237  0.68380  1.0000
  C   C720      1.0  0.21457  0.51027  0.74140  1.0000
  C   C721      1.0  0.44508  0.44753  0.55323  1.0000
  H   H588      1.0  0.40933  0.49903  0.60050  1.0000
  H   H589      1.0  0.38050  0.48037  0.60247  1.0000
  H   H590      1.0  0.38503  0.44474  0.60136  1.0000
  H   H591      1.0  0.41824  0.42713  0.59775  1.0000
  H   H592      1.0  0.44281  0.48208  0.59567  1.0000
  H   H593      1.0  0.17536  0.62642  0.70085  1.0000
  H   H594      1.0  0.30074  0.58427  0.66836  1.0000
  C   C722      1.0  0.47677  0.59702  0.58405  1.0000
  H   H595      1.0  0.38314  0.34325  0.58218  1.0000
  H   H596      1.0  0.43442  0.45900  0.55864  1.0000
  C   C723      1.0  0.42264  0.44104  0.68735  1.0000
  C   C724      1.0  0.41403  0.45159  0.67147  1.0000
  C   C725      1.0  0.41596  0.44391  0.65348  1.0000
  C   C726      1.0  0.42654  0.42559  0.65138  1.0000
  H   H597      1.0  0.40583  0.46580  0.67310  1.0000
  H   H598      1.0  0.40915  0.45222  0.64126  1.0000
  H   H599      1.0  0.42795  0.41957  0.63745  1.0000
  H   H600      1.0  0.39806  0.35089  0.62890  1.0000
  C   C727      1.0  0.37575  0.33865  0.51441  1.0000
  H   H601      1.0  0.30956  0.54702  0.70158  1.0000
  C   C728      1.0  0.19829  0.47363  0.73677  1.0000
  H   H602      1.0  0.23116  0.34410  0.69972  1.0000
  H   H603      1.0  0.11347  0.62355  0.69809  1.0000
  S   S110      1.0  0.20694  0.63489  0.72965  1.0000
  C   C729      1.0  0.47212  0.48529  0.67088  1.0000
  H   H604      1.0  0.25673  0.54309  0.72341  1.0000
  H   H605      1.0  0.13716  0.34016  0.73841  1.0000
  C   C730      1.0  0.30344  0.63182  0.57785  1.0000
  C   C731      1.0  0.34061  0.64371  0.63326  1.0000
  C   C732      1.0  0.38707  0.35818  0.65802  1.0000
  H   H606      1.0  0.00836  0.43669  0.71944  1.0000
  H   H607      1.0  0.43246  0.35452  0.63238  1.0000
  H   H608      1.0  0.33409  0.58528  0.50090  1.0000
  C   C733      1.0  0.35459  0.49176  0.71049  1.0000
  C   C734      1.0  0.47971  0.45168  0.71529  1.0000
  C   C735      1.0  0.31882  0.33596  0.69465  1.0000
  H   H609      1.0  0.11416  0.56012  0.65248  1.0000
  C   C736      1.0  0.43271  0.59720  0.50144  1.0000
  C   C737      1.0  0.46737  0.61559  0.57817  1.0000
  C   C738      1.0  0.47105  0.45284  0.66098  1.0000
  H   H610      1.0  0.43344  0.45066  0.52536  1.0000
  H   H611      1.0  0.28514  0.61386  0.68263  1.0000
  H   H612      1.0  0.46276  0.62626  0.58846  1.0000
  H   H613      1.0  0.18300  0.52621  0.71971  1.0000
  H   H614      1.0  0.12477  0.62003  0.64952  1.0000
  S   S111      1.0  0.21999  0.63892  0.67093  1.0000
  C   C739      1.0  0.28735  0.60990  0.52916  1.0000
  C   C740      1.0  0.31875  0.62809  0.56314  1.0000
  C   C741      1.0  0.14503  0.62252  0.69832  1.0000
  H   H615      1.0  0.48945  0.56919  0.57423  1.0000
  C   C742      1.0  0.44530  0.36868  0.71103  1.0000
  H   H616      1.0  0.46214  0.46508  0.62166  1.0000
  C   C743      1.0  0.32825  0.36595  0.54859  1.0000
  C   C744      1.0  0.47078  0.41680  0.53884  1.0000
  H   H617      1.0  0.37615  0.45477  0.74027  1.0000
  C   C745      1.0  0.10563  0.56112  0.68340  1.0000
  C   C746      1.0  0.29215  0.33387  0.64693  1.0000
  P   P23       1.0  0.48187  0.59003  0.60920  1.0000
  H   H618      1.0  0.47838  0.39366  0.68009  1.0000
  H   H619      1.0  0.45292  0.56656  0.59888  1.0000
  H   H620      1.0  0.37195  0.65947  0.60375  1.0000
  C   C747      1.0  0.44453  0.44290  0.53416  1.0000
  H   H621      1.0  0.45007  0.58083  0.64046  1.0000
  C   C748      1.0  0.27041  0.62440  0.63690  1.0000
  H   H622      1.0  0.41631  0.56618  0.54042  1.0000
  H   H623      1.0  0.34502  0.60211  0.71282  1.0000
  C   C749      1.0  0.34047  0.64347  0.58015  1.0000
  C   C750      1.0  0.46765  0.60670  0.54528  1.0000
  C   C751      1.0  0.35488  0.64947  0.64369  1.0000
  S   S112      1.0  0.25435  0.63303  0.71248  1.0000
  C   C752      1.0  0.48931  0.55232  0.62860  1.0000
  C   C753      1.0  0.32759  0.51299  0.50164  1.0000
  C   C754      1.0  0.34349  0.34319  0.57326  1.0000
  C   C755      1.0  0.21674  0.33933  0.70402  1.0000
  C   C756      1.0  0.32127  0.59234  0.50904  1.0000
  C   C757      1.0  0.44546  0.56334  0.52496  1.0000
  C   C758      1.0  0.22789  0.54160  0.73905  1.0000
  H   H624      1.0  0.21680  0.42557  0.74163  1.0000
  C   C759      1.0  0.27125  0.45424  0.69588  1.0000
  C   C760      1.0  0.29058  0.45871  0.69108  1.0000
  C   C761      1.0  0.30060  0.46520  0.70510  1.0000
  P   P24       1.0  0.28892  0.64634  0.50666  1.0000
  C   C762      1.0  0.16002  0.63071  0.70559  1.0000
  H   H625      1.0  0.34977  0.32854  0.57797  1.0000
  C   C763      1.0  0.47146  0.42150  0.55787  1.0000
  H   H626      1.0  0.22648  0.55664  0.74251  1.0000
  H   H627      1.0  0.46338  0.61031  0.53060  1.0000
  H   H628      1.0  0.31625  0.56634  0.52863  1.0000
  C   C764      1.0  0.20237  0.43995  0.71695  1.0000
  H   H629      1.0  0.36112  0.36776  0.51666  1.0000
  C   C765      1.0  0.02170  0.45968  0.72943  1.0000
  H   H630      1.0  0.26381  0.44851  0.68519  1.0000
  H   H631      1.0  0.29799  0.45648  0.67663  1.0000
  H   H632      1.0  0.31567  0.46798  0.70099  1.0000
  H   H633      1.0  0.43394  0.63593  0.66367  1.0000
  C   C766      1.0  0.46896  0.34644  0.69334  1.0000
  H   H634      1.0  0.28618  0.58183  0.54651  1.0000
  C   C767      1.0  0.41837  0.62643  0.58798  1.0000
  C   C768      1.0  0.17112  0.63107  0.65274  1.0000
  H   H635      1.0  0.44610  0.53248  0.60865  1.0000
  C   C769      1.0  0.41127  0.36802  0.67644  1.0000
  C   C770      1.0  0.39184  0.36444  0.67523  1.0000
  P   P25       1.0  0.37337  0.36865  0.69559  1.0000
  C   C771      1.0  0.36546  0.39467  0.69531  1.0000
  C   C772      1.0  0.34826  0.40119  0.70687  1.0000
  C   C773      1.0  0.34157  0.42117  0.70609  1.0000
  C   C774      1.0  0.35198  0.43482  0.69376  1.0000
  C   C775      1.0  0.36895  0.42850  0.68207  1.0000
  C   C776      1.0  0.37573  0.40854  0.68282  1.0000
  C   C777      1.0  0.35235  0.35551  0.69458  1.0000
  C   C778      1.0  0.48515  0.53300  0.63432  1.0000
  C   C779      1.0  0.27995  0.49531  0.49832  1.0000
  C   C780      1.0  0.33588  0.36493  0.68580  1.0000
  C   C781      1.0  0.47743  0.58836  0.55084  1.0000
  H   H636      1.0  0.41500  0.37351  0.68935  1.0000
  H   H637      1.0  0.32791  0.42597  0.71453  1.0000
  H   H638      1.0  0.34677  0.45029  0.69286  1.0000
  H   H639      1.0  0.37652  0.43917  0.67210  1.0000
  H   H640      1.0  0.38874  0.40411  0.67332  1.0000
  S   S113      1.0  0.42345  0.65091  0.58050  1.0000
  C   C782      1.0  0.46971  0.52578  0.62699  1.0000
  H   H641      1.0  0.33559  0.37999  0.67931  1.0000
  C   C783      1.0  0.20969  0.43919  0.73504  1.0000
  C   C784      1.0  0.15185  0.53312  0.72598  1.0000
  C   C785      1.0  0.46168  0.47157  0.66447  1.0000
  S   S114      1.0  0.46057  0.50864  0.67668  1.0000
  H   H642      1.0  0.27406  0.61623  0.53705  1.0000
  H   H643      1.0  0.36243  0.60824  0.67527  1.0000
  C   C786      1.0  0.46631  0.60462  0.62621  1.0000
  C   C787      1.0  0.33726  0.63389  0.56431  1.0000
  C   C788      1.0  0.39789  0.34195  0.71770  1.0000
  H   H644      1.0  0.44105  0.36629  0.66251  1.0000
  C   C789      1.0  0.32991  0.47673  0.73380  1.0000
  C   C790      1.0  0.44078  0.60735  0.65360  1.0000
  H   H645      1.0  0.12493  0.58828  0.71251  1.0000
  H   H646      1.0  0.31334  0.51657  0.73815  1.0000
  H   H647      1.0  0.47175  0.36437  0.63163  1.0000
  C   C791      1.0  0.24695  0.51444  0.72418  1.0000
  C   C792      1.0  0.47627  0.64814  0.50229  1.0000
  H   H648      1.0  0.37413  0.64096  0.66636  1.0000
  H   H649      1.0  0.40185  0.33452  0.70460  1.0000
  C   C793      1.0  0.42596  0.36426  0.66116  1.0000
  C   C794      1.0  0.42629  0.57228  0.52852  1.0000
  C   C795      1.0  0.48289  0.41083  0.71737  1.0000
  S   S115      1.0  0.28861  0.38808  0.73706  1.0000
  H   H650      1.0  0.02591  0.34201  0.72052  1.0000
  H   H651      1.0  0.24709  0.45238  0.71859  1.0000
  H   H652      1.0  0.35502  0.64744  0.58082  1.0000
  C   C796      1.0  0.49101  0.44759  0.66356  1.0000
  H   H653      1.0  0.26504  0.63942  0.66292  1.0000
  H   H654      1.0  0.45620  0.42332  0.51257  1.0000
  C   C797      1.0  0.49221  0.48022  0.67312  1.0000
  C   C798      1.0  0.36291  0.63660  0.65856  1.0000
  C   C799      1.0  0.19316  0.45759  0.70861  1.0000
  C   C800      1.0  0.19104  0.47439  0.71851  1.0000
  H   H655      1.0  0.29945  0.50515  0.68875  1.0000
  H   H656      1.0  0.27269  0.56018  0.66405  1.0000
  H   H657      1.0  0.36765  0.37974  0.73599  1.0000
  C   C801      1.0  0.29127  0.46747  0.72407  1.0000
  C   C802      1.0  0.00577  0.44963  0.72720  1.0000
  H   H658      1.0  0.17190  0.35467  0.72647  1.0000
  H   H659      1.0  0.45884  0.65115  0.63949  1.0000
  H   H660      1.0  0.44525  0.33719  0.71422  1.0000
  H   H661      1.0  0.35831  0.50263  0.69835  1.0000
  C   C803      1.0  0.47804  0.56452  0.61541  1.0000
  H   H662      1.0  0.48502  0.39273  0.64247  1.0000
  C   C804      1.0  0.35629  0.61816  0.66363  1.0000
  H   H663      1.0  0.32926  0.64088  0.51913  1.0000
  H   H664      1.0  0.29043  0.53060  0.57807  1.0000
  C   C805      1.0  0.46562  0.42184  0.71152  1.0000
  C   C806      1.0  0.27237  0.62662  0.65638  1.0000
  H   H665      1.0  0.43254  0.37074  0.72168  1.0000
  H   H666      1.0  0.44407  0.40131  0.66494  1.0000
  C   C807      1.0  0.15529  0.64470  0.71895  1.0000
  H   H667      1.0  0.18759  0.45819  0.69452  1.0000
  H   H668      1.0  0.18372  0.48787  0.71192  1.0000
  C   C808      1.0  0.05613  0.33389  0.72586  1.0000
  P   P26       1.0  0.44535  0.40965  0.70596  1.0000
  H   H669      1.0  0.23373  0.48756  0.72757  1.0000
  C   C809      1.0  0.10874  0.56912  0.70026  1.0000
  H   H670      1.0  0.27206  0.53191  0.68912  1.0000
  H   H671      1.0  0.22028  0.65702  0.53735  1.0000
  C   C810      1.0  0.33690  0.34719  0.55467  1.0000
  H   H672      1.0  0.32254  0.62063  0.63111  1.0000
  Fe  Fe58      1.0  0.23566  0.63797  0.74099  1.0000
  C   C811      1.0  0.38430  0.35886  0.71773  1.0000
  C   C812      1.0  0.37706  0.40141  0.60975  1.0000
  C   C813      1.0  0.36930  0.40886  0.62733  1.0000
  C   C814      1.0  0.35525  0.39920  0.63990  1.0000
  C   C815      1.0  0.34871  0.38227  0.63481  1.0000
  C   C816      1.0  0.35634  0.37479  0.61713  1.0000
  C   C817      1.0  0.37073  0.38438  0.60476  1.0000
  P   P27       1.0  0.34876  0.35265  0.61027  1.0000
  C   C818      1.0  0.32681  0.34514  0.62494  1.0000
  H   H673      1.0  0.37219  0.35545  0.65670  1.0000
  C   C819      1.0  0.45842  0.53785  0.61394  1.0000
  C   C820      1.0  0.13564  0.65050  0.72521  1.0000
  C   C821      1.0  0.12065  0.64271  0.71773  1.0000
  C   C822      1.0  0.32625  0.38071  0.56105  1.0000
  C   C823      1.0  0.33292  0.37678  0.57957  1.0000
  C   C824      1.0  0.29355  0.35353  0.63997  1.0000
  C   C825      1.0  0.31072  0.35913  0.62888  1.0000
  S   S116      1.0  0.37566  0.62740  0.51460  1.0000
  C   C826      1.0  0.45269  0.40073  0.59941  1.0000
  H   H674      1.0  0.38773  0.40895  0.59973  1.0000
  H   H675      1.0  0.37393  0.42224  0.63110  1.0000
  H   H676      1.0  0.34907  0.40506  0.65343  1.0000
  H   H677      1.0  0.33776  0.37515  0.64471  1.0000
  H   H678      1.0  0.37689  0.37883  0.59110  1.0000
  H   H679      1.0  0.26037  0.50832  0.71628  1.0000
  Fe  Fe59      1.0  0.25656  0.60098  0.72392  1.0000
  H   H680      1.0  0.31923  0.39520  0.55659  1.0000
  H   H681      1.0  0.33085  0.38838  0.58912  1.0000
  H   H682      1.0  0.28123  0.36442  0.64302  1.0000
  H   H683      1.0  0.31139  0.37440  0.62327  1.0000
  C   C827      1.0  0.29775  0.62101  0.51382  1.0000
  C   C828      1.0  0.34366  0.58651  0.58761  1.0000
  C   C829      1.0  0.35998  0.58528  0.59801  1.0000
  C   C830      1.0  0.35832  0.57911  0.61806  1.0000
  C   C831      1.0  0.34039  0.57381  0.62774  1.0000
  C   C832      1.0  0.32392  0.57498  0.61739  1.0000
  C   C833      1.0  0.32557  0.58181  0.59732  1.0000
  P   P28       1.0  0.30025  0.57020  0.63007  1.0000
  C   C834      1.0  0.30114  0.55025  0.64941  1.0000
  S   S117      1.0  0.45682  0.33760  0.57873  1.0000
  H   H684      1.0  0.47319  0.56436  0.50731  1.0000
  C   C835      1.0  0.47569  0.39495  0.63067  1.0000
  H   H685      1.0  0.46279  0.44234  0.65618  1.0000
  C   C836      1.0  0.28500  0.54885  0.66382  1.0000
  H   H686      1.0  0.09511  0.55048  0.68432  1.0000
  C   C837      1.0  0.30001  0.51775  0.67789  1.0000
  C   C838      1.0  0.31616  0.51904  0.66367  1.0000
  C   C839      1.0  0.31665  0.53511  0.64927  1.0000
  C   C840      1.0  0.28565  0.56190  0.61335  1.0000
  C   C841      1.0  0.26527  0.56722  0.61428  1.0000
  C   C842      1.0  0.25412  0.55988  0.60171  1.0000
  C   C843      1.0  0.26318  0.54688  0.58848  1.0000
  C   C844      1.0  0.28336  0.54112  0.58789  1.0000
  C   C845      1.0  0.29453  0.54848  0.60036  1.0000
  H   H687      1.0  0.34510  0.59112  0.57201  1.0000
  H   H688      1.0  0.37394  0.58905  0.59049  1.0000
  H   H689      1.0  0.37107  0.57835  0.62602  1.0000
  H   H690      1.0  0.33940  0.56891  0.64328  1.0000
  H   H691      1.0  0.31298  0.58340  0.58908  1.0000
  C   C846      1.0  0.44309  0.62718  0.65336  1.0000
  H   H692      1.0  0.33961  0.39078  0.71605  1.0000
  H   H693      1.0  0.42983  0.60069  0.66409  1.0000
  C   C847      1.0  0.27926  0.60752  0.62865  1.0000
  H   H694      1.0  0.20390  0.42683  0.70942  1.0000
  C   C848      1.0  0.45186  0.58801  0.49745  1.0000
  H   H695      1.0  0.32822  0.50745  0.66364  1.0000
  H   H696      1.0  0.32894  0.53546  0.63793  1.0000
  H   H697      1.0  0.25792  0.57669  0.62491  1.0000
  H   H698      1.0  0.23840  0.56399  0.60246  1.0000
  H   H699      1.0  0.25454  0.54094  0.57895  1.0000
  H   H700      1.0  0.31646  0.62048  0.55094  1.0000
  H   H701      1.0  0.31008  0.54340  0.60005  1.0000
  C   C849      1.0  0.11629  0.56664  0.66547  1.0000
  C   C850      1.0  0.42115  0.35775  0.64418  1.0000
  H   H702      1.0  0.27771  0.60602  0.61351  1.0000
  C   C851      1.0  0.34169  0.35802  0.58577  1.0000
  C   C852      1.0  0.13249  0.58909  0.68104  1.0000
  C   C853      1.0  0.12986  0.58040  0.66432  1.0000
  P   P29       1.0  0.15111  0.60560  0.68002  1.0000
  H   H703      1.0  0.45035  0.55037  0.53429  1.0000
  C   C854      1.0  0.17325  0.58982  0.68450  1.0000
  C   C855      1.0  0.17522  0.58058  0.70343  1.0000
  C   C856      1.0  0.19172  0.56748  0.70718  1.0000
  C   C857      1.0  0.20631  0.56327  0.69196  1.0000
  C   C858      1.0  0.20436  0.57222  0.67294  1.0000
  C   C859      1.0  0.18779  0.58534  0.66915  1.0000
  H   H704      1.0  0.26176  0.63570  0.62838  1.0000
  C   C860      1.0  0.27183  0.46287  0.72874  1.0000
  C   C861      1.0  0.36941  0.47877  0.71845  1.0000
  H   H705      1.0  0.47823  0.42567  0.62577  1.0000
  H   H706      1.0  0.42044  0.44714  0.70126  1.0000
  C   C862      1.0  0.23556  0.65862  0.53844  1.0000
  C   C863      1.0  0.24493  0.53396  0.72823  1.0000
  H   H707      1.0  0.32290  0.36904  0.53431  1.0000
  C   C864      1.0  0.34159  0.61260  0.65387  1.0000
  C   C865      1.0  0.28969  0.59256  0.64007  1.0000
  H   H708      1.0  0.32374  0.50056  0.71122  1.0000
  H   H709      1.0  0.32508  0.54414  0.50335  1.0000
  H   H710      1.0  0.16393  0.58339  0.71530  1.0000
  H   H711      1.0  0.19323  0.56093  0.72202  1.0000
  H   H712      1.0  0.21928  0.55336  0.69500  1.0000
  H   H713      1.0  0.21577  0.56910  0.66118  1.0000
  H   H714      1.0  0.18639  0.59186  0.65429  1.0000
  C   C866      1.0  0.31922  0.35520  0.68583  1.0000
  H   H715      1.0  0.33830  0.33573  0.54505  1.0000
  C   C867      1.0  0.31107  0.58156  0.52454  1.0000
  H   H716      1.0  0.34925  0.63082  0.55301  1.0000
  C   C868      1.0  0.42713  0.40949  0.72709  1.0000
  C   C869      1.0  0.46303  0.62042  0.55881  1.0000
  C   C870      1.0  0.47097  0.38145  0.68758  1.0000
  C   C871      1.0  0.31481  0.61204  0.50381  1.0000
  H   H717      1.0  0.44409  0.40251  0.58709  1.0000
  C   C872      1.0  0.45841  0.43668  0.56536  1.0000
  H   H718      1.0  0.03644  0.45434  0.72373  1.0000
  C   C873      1.0  0.36461  0.46476  0.73406  1.0000
  C   C874      1.0  0.20206  0.35157  0.71371  1.0000
  C   C875      1.0  0.32507  0.64780  0.59476  1.0000
  C   C876      1.0  0.37872  0.36734  0.73528  1.0000
  C   C877      1.0  0.33392  0.62519  0.63854  1.0000
  H   H719      1.0  0.45123  0.45146  0.70643  1.0000
  C   C878      1.0  0.45729  0.42746  0.52700  1.0000
  C   C879      1.0  0.18332  0.34524  0.71903  1.0000
  Fe  Fe60      1.0  0.21233  0.60289  0.74023  1.0000
  C   C880      1.0  0.17009  0.52291  0.72956  1.0000
  C   C881      1.0  0.45827  0.57123  0.50956  1.0000
  C   C882      1.0  0.45246  0.34961  0.70691  1.0000
  C   C883      1.0  0.45712  0.63574  0.63975  1.0000
  C   C884      1.0  0.45670  0.38196  0.60898  1.0000
  H   H720      1.0  0.27881  0.32959  0.65553  1.0000
  C   C885      1.0  0.45233  0.59610  0.64010  1.0000
  C   C886      1.0  0.30660  0.64152  0.59367  1.0000
  C   C887      1.0  0.46825  0.37902  0.62457  1.0000
  H   H721      1.0  0.45128  0.36964  0.60385  1.0000
  C   C888      1.0  0.32580  0.65597  0.51337  1.0000
  H   H722      1.0  0.48027  0.40442  0.53357  1.0000
  C   C889      1.0  0.35194  0.33602  0.70313  1.0000
  H   H723      1.0  0.16670  0.42333  0.73091  1.0000
  H   H724      1.0  0.10071  0.56471  0.71429  1.0000
  C   C890      1.0  0.28352  0.61219  0.66752  1.0000
  C   C891      1.0  0.43391  0.42292  0.68525  1.0000
  C   C892      1.0  0.43560  0.41518  0.66714  1.0000
  H   H725      1.0  0.41908  0.62871  0.61870  1.0000
  S   S118      1.0  0.28054  0.57618  0.71660  1.0000
  C   C893      1.0  0.12531  0.62901  0.70409  1.0000
  H   H726      1.0  0.37741  0.41263  0.73902  1.0000
  C   C894      1.0  0.46414  0.44238  0.71076  1.0000
  C   C895      1.0  0.29224  0.59529  0.65939  1.0000
  S   S119      1.0  0.42313  0.64797  0.52295  1.0000
  C   C896      1.0  0.26188  0.45638  0.71468  1.0000
  H   H727      1.0  0.13842  0.58410  0.65045  1.0000
  Fe  Fe61      1.0  0.44776  0.33220  0.55003  1.0000
  C   C897      1.0  0.23184  0.50264  0.73073  1.0000
  C   C898      1.0  0.48206  0.58355  0.57010  1.0000
  Fe  Fe62      1.0  0.39080  0.65237  0.52094  1.0000
  H   H728      1.0  0.38460  0.47963  0.71245  1.0000
  C   C899      1.0  0.13855  0.62630  0.64561  1.0000
  H   H729      1.0  0.49136  0.36002  0.67359  1.0000
  C   C900      1.0  0.36342  0.35524  0.50826  1.0000
  H   H730      1.0  0.28197  0.48838  0.51298  1.0000
  C   C901      1.0  0.41998  0.58924  0.51685  1.0000
  C   C902      1.0  0.25018  0.65214  0.52406  1.0000
  H   H731      1.0  0.16687  0.65100  0.72450  1.0000
  C   C903      1.0  0.15401  0.62153  0.65743  1.0000
  C   C904      1.0  0.38472  0.33382  0.59573  1.0000
  Fe  Fe63      1.0  0.27490  0.35984  0.73901  1.0000
  H   H732      1.0  0.41449  0.33951  0.50082  1.0000
  C   C905      1.0  0.36997  0.33457  0.61163  1.0000
  S   S120      1.0  0.32811  0.47321  0.49887  1.0000
  H   H733      1.0  0.47448  0.33162  0.69031  1.0000
  C   C906      1.0  0.32714  0.53276  0.49365  1.0000
  C   C907      1.0  0.26995  0.65457  0.52520  1.0000
  C   C908      1.0  0.39290  0.41133  0.74102  1.0000
  C   C909      1.0  0.49384  0.64295  0.51071  1.0000
  C   C910      1.0  0.15786  0.64886  0.62405  1.0000
  H   H734      1.0  0.06186  0.33658  0.71058  1.0000
  C   C911      1.0  0.14058  0.63976  0.62885  1.0000
  H   H735      1.0  0.12086  0.53707  0.73591  1.0000
  C   C912      1.0  0.49131  0.47373  0.61559  1.0000
  H   H736      1.0  0.10540  0.64732  0.72245  1.0000
  C   C913      1.0  0.13495  0.52887  0.73831  1.0000
  C   C914      1.0  0.44537  0.33181  0.49453  1.0000
  H   H737      1.0  0.12862  0.64343  0.61976  1.0000
  C   C915      1.0  0.01860  0.47665  0.73903  1.0000
  H   H738      1.0  0.48115  0.57777  0.54033  1.0000
  C   C916      1.0  0.49492  0.45283  0.58292  1.0000
  H   H739      1.0  0.49338  0.52377  0.64502  1.0000
  H   H740      1.0  0.30567  0.32863  0.69522  1.0000
  H   H741      1.0  0.18631  0.65197  0.63274  1.0000
  C   C917      1.0  0.17308  0.64458  0.63607  1.0000
  H   H742      1.0  0.03091  0.48431  0.74114  1.0000
  H   H743      1.0  0.31078  0.66011  0.65601  1.0000
  C   C918      1.0  0.34495  0.46370  0.74172  1.0000
  C   C919      1.0  0.42599  0.32749  0.49972  1.0000
  C   C920      1.0  0.28054  0.51550  0.49401  1.0000
  H   H744      1.0  0.15934  0.65949  0.61123  1.0000
  P   P30       1.0  0.30431  0.47469  0.74286  1.0000
  C   C921      1.0  0.21125  0.59431  0.89693  1.0000
  Fe  Fe64      1.0  0.19475  0.48577  0.87132  1.0000
  S   S121      1.0  0.22685  0.48116  0.87485  1.0000
  S   S122      1.0  0.18440  0.50982  0.84894  1.0000
  Fe  Fe65      1.0  0.18452  0.45392  0.90356  1.0000
  S   S123      1.0  0.21612  0.44700  0.90996  1.0000
  S   S124      1.0  0.15744  0.44098  0.91958  1.0000
  Fe  Fe66      1.0  0.21702  0.48001  0.90737  1.0000
  S   S125      1.0  0.23196  0.50035  0.92382  1.0000
  Fe  Fe67      1.0  0.22309  0.44911  0.87686  1.0000
  S   S126      1.0  0.24298  0.42605  0.86043  1.0000
  S   S127      1.0  0.18511  0.48641  0.90331  1.0000
  S   S128      1.0  0.19150  0.45392  0.87108  1.0000
  H   H745      1.0  0.14235  0.35534  0.84718  1.0000
  S   S129      1.0  0.25021  0.42660  0.76718  1.0000
  H   H746      1.0  0.21376  0.50920  0.78133  1.0000
  H   H747      1.0  0.04178  0.46956  0.78369  1.0000
  S   S130      1.0  0.07040  0.63954  0.92037  1.0000
  S   S131      1.0  0.12286  0.61557  0.92810  1.0000
  Fe  Fe68      1.0  0.05194  0.52085  0.79387  1.0000
  S   S132      1.0  0.06587  0.51099  0.82160  1.0000
  S   S133      1.0  0.02230  0.50881  0.79161  1.0000
  Fe  Fe69      1.0  0.08472  0.54923  0.77996  1.0000
  S   S134      1.0  0.09966  0.54046  0.80713  1.0000
  S   S135      1.0  0.09994  0.57202  0.75834  1.0000
  Fe  Fe70      1.0  0.09442  0.51022  0.80231  1.0000
  S   S136      1.0  0.11828  0.48527  0.80433  1.0000
  Fe  Fe71      1.0  0.06936  0.54269  0.82316  1.0000
  S   S137      1.0  0.06321  0.55467  0.85277  1.0000
  S   S138      1.0  0.08076  0.51843  0.77425  1.0000
  S   S139      1.0  0.05410  0.55314  0.79634  1.0000
  C   C922      1.0  0.30061  0.63688  0.87395  1.0000
  H   H748      1.0  0.03712  0.39824  0.92696  1.0000
  S   S140      1.0  0.19135  0.58195  0.75759  1.0000
  C   C923      1.0  0.16189  0.41091  0.89603  1.0000
  H   H749      1.0  0.12330  0.51130  0.76401  1.0000
  C   C924      1.0  0.01261  0.39075  0.91425  1.0000
  S   S141      1.0  0.24000  0.60621  0.75352  1.0000
  S   S142      1.0  0.04210  0.38403  0.86337  1.0000
  H   H750      1.0  0.21981  0.59717  0.94391  1.0000
  P   P31       1.0  0.00234  0.60731  0.94095  1.0000
  H   H751      1.0  0.02027  0.63518  0.95947  1.0000
  Fe  Fe72      1.0  0.10206  0.35436  0.89239  1.0000
  C   C925      1.0  0.29866  0.42749  0.79590  1.0000
  C   C926      1.0  0.29854  0.61857  0.97762  1.0000
  C   C927      1.0  0.12506  0.57541  0.75949  1.0000
  C   C928      1.0  0.13783  0.56096  0.76879  1.0000
  C   C929      1.0  0.15794  0.56334  0.76826  1.0000
  C   C930      1.0  0.16560  0.58035  0.75868  1.0000
  H   H752      1.0  0.16566  0.38658  0.87867  1.0000
  C   C931      1.0  0.03540  0.34343  0.80082  1.0000
  H   H753      1.0  0.13232  0.54768  0.77600  1.0000
  H   H754      1.0  0.16764  0.55176  0.77517  1.0000
  H   H755      1.0  0.38777  0.41091  0.77245  1.0000
  H   H756      1.0  0.06136  0.43063  0.74933  1.0000
  C   C932      1.0  0.05849  0.62016  0.86101  1.0000
  C   C933      1.0  0.05787  0.61449  0.84223  1.0000
  C   C934      1.0  0.05921  0.59446  0.83934  1.0000
  C   C935      1.0  0.06101  0.58005  0.85528  1.0000
  C   C936      1.0  0.06110  0.58585  0.87401  1.0000
  C   C937      1.0  0.05978  0.60577  0.87688  1.0000
  H   H757      1.0  0.05897  0.59021  0.82481  1.0000
  H   H758      1.0  0.06231  0.57479  0.88635  1.0000
  H   H759      1.0  0.05953  0.61013  0.89140  1.0000
  S   S143      1.0  0.09166  0.35138  0.86350  1.0000
  C   C938      1.0  0.16466  0.64682  0.94106  1.0000
  C   C939      1.0  0.14833  0.64169  0.93329  1.0000
  C   C940      1.0  0.14447  0.62209  0.93521  1.0000
  H   H760      1.0  0.30377  0.64575  0.96039  1.0000
  H   H761      1.0  0.01069  0.48588  0.96893  1.0000
  C   C941      1.0  0.29935  0.51528  0.74673  1.0000
  C   C942      1.0  0.07003  0.42363  0.91257  1.0000
  Fe  Fe73      1.0  0.10283  0.64160  0.91737  1.0000
  C   C943      1.0  0.22310  0.51419  0.94398  1.0000
  C   C944      1.0  0.23173  0.53125  0.94596  1.0000
  C   C945      1.0  0.19602  0.40888  0.78087  1.0000
  S   S144      1.0  0.13170  0.36623  0.88818  1.0000
  C   C946      1.0  0.05427  0.36168  0.81830  1.0000
  C   C947      1.0  0.01726  0.48996  0.85082  1.0000
  H   H762      1.0  0.24293  0.53622  0.93474  1.0000
  C   C948      1.0  0.00619  0.38904  0.84980  1.0000
  H   H763      1.0  0.05123  0.51632  0.87745  1.0000
  C   C949      1.0  0.16555  0.50328  0.83699  1.0000
  C   C950      1.0  0.15630  0.48650  0.84398  1.0000
  C   C951      1.0  0.14203  0.48074  0.83369  1.0000
  C   C952      1.0  0.13651  0.49219  0.81678  1.0000
  C   C953      1.0  0.14547  0.50919  0.80994  1.0000
  C   C954      1.0  0.16028  0.51450  0.81983  1.0000
  H   H764      1.0  0.16002  0.47801  0.85738  1.0000
  H   H765      1.0  0.13500  0.46767  0.83910  1.0000
  H   H766      1.0  0.14129  0.51803  0.79684  1.0000
  H   H767      1.0  0.16785  0.52714  0.81409  1.0000
  C   C955      1.0  0.24764  0.42566  0.79319  1.0000
  C   C956      1.0  0.24145  0.44308  0.80183  1.0000
  C   C957      1.0  0.23963  0.44326  0.82236  1.0000
  C   C958      1.0  0.24407  0.42602  0.83454  1.0000
  C   C959      1.0  0.25032  0.40856  0.82589  1.0000
  C   C960      1.0  0.25196  0.40833  0.80533  1.0000
  H   H768      1.0  0.23819  0.45658  0.79261  1.0000
  H   H769      1.0  0.23528  0.45684  0.82878  1.0000
  H   H770      1.0  0.25388  0.39516  0.83517  1.0000
  H   H771      1.0  0.25677  0.39484  0.79888  1.0000
  C   C961      1.0  0.12535  0.39773  0.91046  1.0000
  C   C962      1.0  0.13139  0.41423  0.91733  1.0000
  C   C963      1.0  0.14974  0.42080  0.91019  1.0000
  H   H772      1.0  0.11140  0.39253  0.91621  1.0000
  H   H773      1.0  0.12196  0.42180  0.92832  1.0000
  C   C964      1.0  0.02627  0.46839  0.78765  1.0000
  C   C965      1.0  0.01385  0.48500  0.79276  1.0000
  H   H774      1.0  0.20599  0.58448  0.88812  1.0000
  H   H775      1.0  0.26732  0.48279  0.76773  1.0000
  H   H776      1.0  0.04552  0.36672  0.95634  1.0000
  C   C966      1.0  0.18586  0.47108  0.78459  1.0000
  C   C967      1.0  0.01150  0.39623  0.94844  1.0000
  C   C968      1.0  0.01828  0.37774  0.86264  1.0000
  H   H777      1.0  0.05663  0.62557  0.82986  1.0000
  H   H778      1.0  0.10549  0.37800  0.95534  1.0000
  C   C969      1.0  0.10250  0.50394  0.87006  1.0000
  C   C970      1.0  0.11249  0.48659  0.87808  1.0000
  C   C971      1.0  0.12891  0.48733  0.88793  1.0000
  C   C972      1.0  0.13564  0.50537  0.88934  1.0000
  C   C973      1.0  0.12592  0.52283  0.88109  1.0000
  C   C974      1.0  0.10901  0.52200  0.87181  1.0000
  P   P32       1.0  0.13450  0.54626  0.88288  1.0000
  C   C975      1.0  0.11389  0.56198  0.89264  1.0000
  C   C976      1.0  0.15271  0.54430  0.90015  1.0000
  C   C977      1.0  0.14800  0.55145  0.91859  1.0000
  C   C978      1.0  0.16240  0.55070  0.93135  1.0000
  C   C979      1.0  0.18163  0.54298  0.92586  1.0000
  C   C980      1.0  0.18651  0.53585  0.90764  1.0000
  C   C981      1.0  0.17211  0.53648  0.89486  1.0000
  C   C982      1.0  0.11393  0.58235  0.88924  1.0000
  C   C983      1.0  0.09966  0.59455  0.89937  1.0000
  C   C984      1.0  0.08577  0.58652  0.91353  1.0000
  C   C985      1.0  0.08548  0.56623  0.91685  1.0000
  C   C986      1.0  0.09943  0.55397  0.90637  1.0000
  C   C987      1.0  0.14478  0.55685  0.85908  1.0000
  C   C988      1.0  0.13732  0.55367  0.84182  1.0000
  C   C989      1.0  0.14561  0.56152  0.82354  1.0000
  C   C990      1.0  0.16160  0.57241  0.82218  1.0000
  C   C991      1.0  0.16914  0.57572  0.83922  1.0000
  C   C992      1.0  0.16059  0.56828  0.85760  1.0000
  H   H779      1.0  0.08988  0.50346  0.86223  1.0000
  H   H780      1.0  0.10771  0.47255  0.87646  1.0000
  H   H781      1.0  0.13675  0.47387  0.89409  1.0000
  H   H782      1.0  0.14839  0.50565  0.89686  1.0000
  H   H783      1.0  0.10087  0.53532  0.86582  1.0000
  H   H784      1.0  0.13335  0.55785  0.92325  1.0000
  H   H785      1.0  0.19269  0.54252  0.93578  1.0000
  H   H786      1.0  0.20143  0.52957  0.90350  1.0000
  H   H787      1.0  0.17613  0.53095  0.88078  1.0000
  H   H788      1.0  0.12534  0.58882  0.87930  1.0000
  H   H789      1.0  0.09977  0.61028  0.89669  1.0000
  H   H790      1.0  0.27079  0.35634  0.81532  1.0000
  H   H791      1.0  0.07453  0.56000  0.92755  1.0000
  H   H792      1.0  0.09944  0.53825  0.90960  1.0000
  H   H793      1.0  0.12533  0.54490  0.84219  1.0000
  H   H794      1.0  0.13985  0.55876  0.81035  1.0000
  H   H795      1.0  0.16824  0.57806  0.80790  1.0000
  H   H796      1.0  0.18172  0.58395  0.83815  1.0000
  H   H797      1.0  0.16655  0.57123  0.87059  1.0000
  C   C993      1.0  0.19339  0.39477  0.76878  1.0000
  H   H798      1.0  0.20759  0.57491  0.92368  1.0000
  H   H799      1.0  0.20728  0.37897  0.82155  1.0000
  H   H800      1.0  0.14877  0.39617  0.74685  1.0000
  H   H801      1.0  0.03370  0.36577  0.99264  1.0000
  C   C994      1.0  0.18889  0.64984  0.79259  1.0000
  C   C995      1.0  0.08990  0.38278  0.95801  1.0000
  C   C996      1.0  0.05777  0.42961  0.81079  1.0000
  C   C997      1.0  0.16680  0.62018  0.87628  1.0000
  H   H802      1.0  0.15870  0.55619  0.94552  1.0000
  C   C998      1.0  0.13776  0.38765  0.89657  1.0000
  H   H803      1.0  0.14317  0.40043  0.84310  1.0000
  C   C999      1.0  0.06311  0.42546  0.87885  1.0000
  H   H804      1.0  0.42323  0.40813  0.77691  1.0000
  C   C1000     1.0  0.15282  0.34444  0.84043  1.0000
  C   C1001     1.0  0.13430  0.35535  0.79102  1.0000
  C   C1002     1.0  0.19550  0.37486  0.77572  1.0000
  H   H805      1.0  0.06651  0.42011  0.86465  1.0000
  C   C1003     1.0  0.17399  0.61260  0.95133  1.0000
  C   C1004     1.0  0.28978  0.65228  0.86366  1.0000
  H   H806      1.0  0.05168  0.44349  0.93041  1.0000
  H   H807      1.0  0.11533  0.62077  0.85717  1.0000
  C   C1005     1.0  0.21720  0.61234  0.88827  1.0000
  H   H808      1.0  0.05505  0.48023  0.87941  1.0000
  H   H809      1.0  0.23361  0.55440  0.96405  1.0000
  H   H810      1.0  0.13564  0.62716  0.79530  1.0000
  H   H811      1.0  0.24986  0.51288  0.77979  1.0000
  C   C1006     1.0  0.20868  0.50799  0.95868  1.0000
  C   C1007     1.0  0.14094  0.33612  0.78732  1.0000
  C   C1008     1.0  0.04964  0.44770  0.83926  1.0000
  H   H812      1.0  0.08597  0.40560  0.89136  1.0000
  H   H813      1.0  0.20348  0.41400  0.80909  1.0000
  C   C1009     1.0  0.26361  0.51356  0.77044  1.0000
  C   C1010     1.0  0.30289  0.45596  0.76352  1.0000
  C   C1011     1.0  0.25863  0.34776  0.82040  1.0000
  C   C1012     1.0  0.13948  0.44672  0.76733  1.0000
  H   H814      1.0  0.21643  0.61620  0.87273  1.0000
  H   H815      1.0  0.05549  0.37011  0.76935  1.0000
  H   H816      1.0  0.15479  0.59234  0.94501  1.0000
  C   C1013     1.0  0.17718  0.63227  0.95058  1.0000
  C   C1014     1.0  0.20640  0.49654  0.78734  1.0000
  C   C1015     1.0  0.25943  0.33442  0.83723  1.0000
  H   H817      1.0  0.00981  0.35997  0.78927  1.0000
  H   H818      1.0  0.06637  0.36211  0.82687  1.0000
  H   H819      1.0  0.01128  0.40166  0.84076  1.0000
  C   C1016     1.0  0.07176  0.44231  0.80318  1.0000
  Fe  Fe74      1.0  0.06744  0.33423  0.91566  1.0000
  C   C1017     1.0  0.30135  0.44663  0.79870  1.0000
  C   C1018     1.0  0.29860  0.42240  0.77695  1.0000
  C   C1019     1.0  0.21220  0.58884  0.91695  1.0000
  S   S145      1.0  0.07234  0.36577  0.90617  1.0000
  H   H820      1.0  0.09920  0.59199  0.85240  1.0000
  C   C1020     1.0  0.05163  0.34436  0.81096  1.0000
  C   C1021     1.0  0.15595  0.39437  0.88934  1.0000
  H   H821      1.0  0.20232  0.47155  0.99214  1.0000
  H   H822      1.0  0.30116  0.45059  0.81344  1.0000
  C   C1022     1.0  0.13629  0.51442  0.75420  1.0000
  C   C1023     1.0  0.20094  0.40309  0.79988  1.0000
  H   H823      1.0  0.29617  0.41671  0.80844  1.0000
  H   H824      1.0  0.38227  0.36563  0.76604  1.0000
  H   H825      1.0  0.09441  0.41096  0.96589  1.0000
  H   H826      1.0  0.02017  0.35333  0.88510  1.0000
  C   C1024     1.0  0.06735  0.41659  0.75614  1.0000
  C   C1025     1.0  0.02980  0.33089  0.95821  1.0000
  C   C1026     1.0  0.39873  0.41041  0.75981  1.0000
  C   C1027     1.0  0.40053  0.34263  0.75220  1.0000
  C   C1028     1.0  0.20388  0.51797  0.97564  1.0000
  C   C1029     1.0  0.02515  0.60544  0.95180  1.0000
  H   H827      1.0  0.13866  0.65293  0.92607  1.0000
  C   C1030     1.0  0.07504  0.45730  0.81374  1.0000
  C   C1031     1.0  0.05618  0.40069  0.75889  1.0000
  C   C1032     1.0  0.15758  0.60752  0.94377  1.0000
  C   C1033     1.0  0.13031  0.39892  0.83597  1.0000
  C   C1034     1.0  0.22414  0.62505  0.89965  1.0000
  Fe  Fe75      1.0  0.19761  0.61861  0.99056  1.0000
  C   C1035     1.0  0.27355  0.49652  0.76339  1.0000
  S   S146      1.0  0.24573  0.37256  0.75294  1.0000
  C   C1036     1.0  0.06428  0.45984  0.83183  1.0000
  H   H828      1.0  0.03065  0.63050  0.91641  1.0000
  C   C1037     1.0  0.32212  0.33689  0.75813  1.0000
  C   C1038     1.0  0.11209  0.39797  0.84713  1.0000
  H   H829      1.0  0.02083  0.38984  0.89998  1.0000
  C   C1039     1.0  0.03013  0.62176  0.95963  1.0000
  H   H830      1.0  0.05513  0.41813  0.80240  1.0000
  H   H831      1.0  0.04152  0.40238  0.75425  1.0000
  C   C1040     1.0  0.01612  0.63811  0.91528  1.0000
  C   C1041     1.0  0.21442  0.44781  0.97491  1.0000
  H   H832      1.0  0.11356  0.63002  0.96826  1.0000
  H   H833      1.0  0.08411  0.39227  0.81148  1.0000
  H   H834      1.0  0.15605  0.61185  0.85101  1.0000
  H   H835      1.0  0.26352  0.54475  0.77061  1.0000
  H   H836      1.0  0.08571  0.46720  0.80773  1.0000
  C   C1042     1.0  0.19806  0.47349  0.81544  1.0000
  C   C1043     1.0  0.01125  0.36167  0.87458  1.0000
  C   C1044     1.0  0.28538  0.42272  0.94511  1.0000
  C   C1045     1.0  0.02227  0.36031  0.79734  1.0000
  C   C1046     1.0  0.17161  0.50866  0.74578  1.0000
  C   C1047     1.0  0.22637  0.54170  0.96255  1.0000
  H   H837      1.0  0.17609  0.41572  0.89055  1.0000
  C   C1048     1.0  0.21917  0.60134  0.92833  1.0000
  P   P33       1.0  0.02338  0.40295  0.96820  1.0000
  Fe  Fe76      1.0  0.06170  0.36003  0.87827  1.0000
  H   H838      1.0  0.23972  0.46074  0.93945  1.0000
  C   C1049     1.0  0.20321  0.38320  0.80684  1.0000
  H   H839      1.0  0.22123  0.42428  0.95622  1.0000
  H   H840      1.0  0.17185  0.60530  0.88168  1.0000
  H   H841      1.0  0.17132  0.36556  0.82569  1.0000
  H   H842      1.0  0.29126  0.42821  0.91365  1.0000
  C   C1050     1.0  0.18707  0.46428  0.80431  1.0000
  C   C1051     1.0  0.11809  0.60373  0.80537  1.0000
  H   H843      1.0  0.26211  0.45269  0.91026  1.0000
  C   C1052     1.0  0.28154  0.43180  0.92656  1.0000
  H   H844      1.0  0.29815  0.41209  0.94658  1.0000
  C   C1053     1.0  0.07414  0.41712  0.89403  1.0000
  C   C1054     1.0  0.03106  0.47869  0.86212  1.0000
  C   C1055     1.0  0.01120  0.44290  0.86273  1.0000
  S   S147      1.0  0.28621  0.32868  0.74903  1.0000
  S   S148      1.0  0.10467  0.65321  0.88571  1.0000
  H   H845      1.0  0.20177  0.49510  0.95725  1.0000
  C   C1056     1.0  0.26511  0.44554  0.92462  1.0000
  H   H846      1.0  0.06731  0.47142  0.83988  1.0000
  C   C1057     1.0  0.19936  0.46123  0.98258  1.0000
  C   C1058     1.0  0.29153  0.49718  0.75137  1.0000
  C   C1059     1.0  0.17563  0.64604  0.80927  1.0000
  C   C1060     1.0  0.12776  0.61975  0.80797  1.0000
  C   C1061     1.0  0.27135  0.53148  0.76540  1.0000
  C   C1062     1.0  0.15765  0.62393  0.85902  1.0000
  C   C1063     1.0  0.16909  0.63560  0.88685  1.0000
  C   C1064     1.0  0.25241  0.45006  0.94118  1.0000
  H   H847      1.0  0.30000  0.43236  0.74630  1.0000
  C   C1065     1.0  0.17602  0.44917  0.96461  1.0000
  C   C1066     1.0  0.04808  0.62104  0.96734  1.0000
  H   H848      1.0  0.00536  0.51897  0.84009  1.0000
  H   H849      1.0  0.07997  0.44078  0.78906  1.0000
  H   H850      1.0  0.26215  0.64470  0.77873  1.0000
  C   C1067     1.0  0.01239  0.39158  0.99124  1.0000
  C   C1068     1.0  0.06349  0.40754  0.96722  1.0000
  C   C1069     1.0  0.25601  0.44091  0.95983  1.0000
  H   H851      1.0  0.34981  0.34201  0.76724  1.0000
  C   C1070     1.0  0.04796  0.44059  0.88202  1.0000
  H   H852      1.0  0.16134  0.44996  0.96019  1.0000
  C   C1071     1.0  0.30368  0.46078  0.78258  1.0000
  C   C1072     1.0  0.27801  0.64935  0.98149  1.0000
  C   C1073     1.0  0.21276  0.53483  0.97782  1.0000
  H   H853      1.0  0.17730  0.46372  0.77619  1.0000
  C   C1074     1.0  0.13191  0.41300  0.76898  1.0000
  H   H854      1.0  0.18405  0.60125  0.95793  1.0000
  H   H855      1.0  0.11851  0.59899  0.79093  1.0000
  H   H856      1.0  0.29515  0.54629  0.74958  1.0000
  H   H857      1.0  0.02823  0.43798  0.78225  1.0000
  C   C1075     1.0  0.15021  0.64309  0.85243  1.0000
  H   H858      1.0  0.00592  0.47101  0.93913  1.0000
  C   C1076     1.0  0.28918  0.53233  0.75352  1.0000
  H   H859      1.0  0.34163  0.45267  0.75376  1.0000
  H   H860      1.0  0.27777  0.65421  0.80641  1.0000
  P   P34       1.0  0.19507  0.49501  0.74999  1.0000
  H   H861      1.0  0.02648  0.53575  0.85789  1.0000
  C   C1077     1.0  0.04338  0.48836  0.87170  1.0000
  H   H862      1.0  0.19365  0.36423  0.76594  1.0000
  C   C1078     1.0  0.20056  0.36892  0.79478  1.0000
  C   C1079     1.0  0.03784  0.58794  0.95290  1.0000
  S   S149      1.0  0.19586  0.63875  0.96279  1.0000
  H   H863      1.0  0.10014  0.58145  0.81935  1.0000
  C   C1080     1.0  0.04099  0.37831  0.81506  1.0000
  C   C1081     1.0  0.01682  0.56954  0.89874  1.0000
  H   H864      1.0  0.02953  0.56519  0.88876  1.0000
  H   H865      1.0  0.01455  0.39058  0.80241  1.0000
  C   C1082     1.0  0.04686  0.43214  0.82892  1.0000
  C   C1083     1.0  0.07608  0.37034  0.95548  1.0000
  C   C1084     1.0  0.10723  0.59973  0.84004  1.0000
  C   C1085     1.0  0.22752  0.32766  0.77179  1.0000
  C   C1086     1.0  0.15299  0.44387  0.75090  1.0000
  H   H866      1.0  0.12281  0.60423  0.74359  1.0000
  H   H867      1.0  0.29600  0.40767  0.77484  1.0000
  H   H868      1.0  0.44829  0.40739  0.74826  1.0000
  H   H869      1.0  0.31638  0.63427  0.87029  1.0000
  H   H870      1.0  0.16885  0.47272  0.98286  1.0000
  C   C1087     1.0  0.10775  0.59379  0.82138  1.0000
  H   H871      1.0  0.21559  0.49705  0.81603  1.0000
  H   H872      1.0  0.11850  0.43397  0.78902  1.0000
  H   H873      1.0  0.03618  0.42214  0.83476  1.0000
  H   H874      1.0  0.27221  0.33270  0.84526  1.0000
  C   C1088     1.0  0.00137  0.58888  0.92472  1.0000
  H   H875      1.0  0.19879  0.46845  0.83078  1.0000
  H   H876      1.0  0.07514  0.59610  0.92171  1.0000
  C   C1089     1.0  0.11528  0.39549  0.80664  1.0000
  C   C1090     1.0  0.22510  0.61934  0.91977  1.0000
  P   P35       1.0  0.20445  0.34321  0.80361  1.0000
  C   C1091     1.0  0.20993  0.43481  0.96234  1.0000
  C   C1092     1.0  0.12693  0.62609  0.82667  1.0000
  C   C1093     1.0  0.10410  0.65756  0.97991  1.0000
  H   H877      1.0  0.12389  0.57096  0.98465  1.0000
  H   H878      1.0  0.23053  0.62873  0.92892  1.0000
  C   C1094     1.0  0.00148  0.44476  0.84573  1.0000
  H   H879      1.0  0.08813  0.36640  0.78124  1.0000
  C   C1095     1.0  0.01310  0.47012  0.96874  1.0000
  C   C1096     1.0  0.02743  0.51987  0.85946  1.0000
  C   C1097     1.0  0.11701  0.64070  0.97727  1.0000
  C   C1098     1.0  0.25842  0.65918  0.78346  1.0000
  C   C1099     1.0  0.05599  0.37652  0.95860  1.0000
  H   H880      1.0  0.24240  0.63608  0.84869  1.0000
  H   H881      1.0  0.24162  0.36081  0.79729  1.0000
  H   H882      1.0  0.26361  0.61845  0.90496  1.0000
  C   C1100     1.0  0.27271  0.42730  0.96173  1.0000
  P   P36       1.0  0.03474  0.45232  0.86190  1.0000
  H   H883      1.0  0.03159  0.58953  0.91181  1.0000
  C   C1101     1.0  0.20763  0.48964  0.80703  1.0000
  C   C1102     1.0  0.05582  0.58727  0.96066  1.0000
  C   C1103     1.0  0.01548  0.51043  0.84951  1.0000
  C   C1104     1.0  0.11657  0.61593  0.84269  1.0000
  C   C1105     1.0  0.29105  0.62481  0.88888  1.0000
  H   H884      1.0  0.19460  0.42428  0.77544  1.0000
  C   C1106     1.0  0.08257  0.38049  0.77415  1.0000
  C   C1107     1.0  0.09551  0.39570  0.83814  1.0000
  H   H885      1.0  0.13281  0.35886  0.80598  1.0000
  P   P37       1.0  0.13816  0.64760  0.83015  1.0000
  Fe  Fe77      1.0  0.25841  0.40131  0.74826  1.0000
  C   C1108     1.0  0.30071  0.43654  0.76078  1.0000
  C   C1109     1.0  0.23047  0.64780  0.84849  1.0000
  C   C1110     1.0  0.04139  0.50885  0.87053  1.0000
  C   C1111     1.0  0.16939  0.35014  0.82829  1.0000
  C   C1112     1.0  0.01849  0.45046  0.78680  1.0000
  C   C1113     1.0  0.05471  0.43841  0.91603  1.0000
  C   C1114     1.0  0.24201  0.35027  0.81021  1.0000
  H   H886      1.0  0.03397  0.57493  0.94767  1.0000
  C   C1115     1.0  0.01887  0.45815  0.98529  1.0000
  C   C1116     1.0  0.25697  0.50191  0.98020  1.0000
  H   H887      1.0  0.01772  0.34338  0.93164  1.0000
  H   H888      1.0  0.06585  0.57396  0.96109  1.0000
  C   C1117     1.0  0.18027  0.46196  0.97735  1.0000
  H   H889      1.0  0.04276  0.39147  0.82128  1.0000
  C   C1118     1.0  0.34149  0.33133  0.76278  1.0000
  H   H890      1.0  0.17604  0.63265  0.90033  1.0000
  P   P38       1.0  0.11773  0.39358  0.78062  1.0000
  C   C1119     1.0  0.09382  0.39646  0.77166  1.0000
  C   C1120     1.0  0.01469  0.33982  0.94730  1.0000
  C   C1121     1.0  0.15449  0.50436  0.75794  1.0000
  C   C1122     1.0  0.01041  0.46173  0.95196  1.0000
  C   C1123     1.0  0.12895  0.43138  0.77632  1.0000
  C   C1124     1.0  0.15273  0.65853  0.86309  1.0000
  H   H891      1.0  0.09689  0.32759  0.79072  1.0000
  H   H892      1.0  0.05203  0.63394  0.97279  1.0000
  H   H893      1.0  0.00814  0.45139  0.83191  1.0000
  C   C1125     1.0  0.01914  0.42925  0.96834  1.0000
  H   H894      1.0  0.07879  0.41719  0.92418  1.0000
  C   C1126     1.0  0.04949  0.39514  0.96453  1.0000
  C   C1127     1.0  0.04359  0.44678  0.90085  1.0000
  C   C1128     1.0  0.16207  0.65475  0.88026  1.0000
  C   C1129     1.0  0.22340  0.65513  0.83063  1.0000
  H   H895      1.0  0.08090  0.35586  0.95097  1.0000
  C   C1130     1.0  0.26942  0.65555  0.86819  1.0000
  H   H896      1.0  0.00916  0.43258  0.89371  1.0000
  H   H897      1.0  0.19965  0.53601  0.75409  1.0000
  C   C1131     1.0  0.01794  0.58317  0.91192  1.0000
  C   C1132     1.0  0.14577  0.41019  0.75265  1.0000
  H   H898      1.0  0.25927  0.48051  0.95994  1.0000
  H   H899      1.0  0.14496  0.62510  0.98326  1.0000
  H   H900      1.0  0.29944  0.61283  0.89684  1.0000
  H   H901      1.0  0.19020  0.39911  0.75381  1.0000
  P   P39       1.0  0.23933  0.44713  0.98097  1.0000
  C   C1133     1.0  0.09710  0.39432  0.81800  1.0000
  P   P40       1.0  0.23323  0.64776  0.88846  1.0000
  H   H902      1.0  0.30561  0.47558  0.78506  1.0000
  H   H903      1.0  0.15500  0.49352  0.77055  1.0000
  C   C1134     1.0  0.08362  0.40136  0.96393  1.0000
  C   C1135     1.0  0.25962  0.64330  0.88288  1.0000
  H   H904      1.0  0.01284  0.33553  0.75525  1.0000
  H   H905      1.0  0.17928  0.45207  0.81111  1.0000
  C   C1136     1.0  0.27065  0.62803  0.89340  1.0000
  C   C1137     1.0  0.20902  0.32892  0.78288  1.0000
  H   H906      1.0  0.09060  0.65996  0.97293  1.0000
  H   H907      1.0  0.21469  0.45513  0.75829  1.0000
  C   C1138     1.0  0.22601  0.33943  0.81676  1.0000
  C   C1139     1.0  0.13195  0.39765  0.81578  1.0000
  C   C1140     1.0  0.19568  0.48718  0.77586  1.0000
  S   S150      1.0  0.05712  0.64524  0.86453  1.0000
  C   C1141     1.0  0.41871  0.40885  0.76233  1.0000
  C   C1142     1.0  0.15572  0.65335  0.80926  1.0000
  H   H908      1.0  0.27597  0.42009  0.97592  1.0000
  C   C1143     1.0  0.14237  0.33079  0.76829  1.0000
  H   H909      1.0  0.23960  0.33436  0.77589  1.0000
  C   C1144     1.0  0.12882  0.36941  0.77566  1.0000
  C   C1145     1.0  0.15267  0.59527  0.75021  1.0000
  H   H910      1.0  0.09100  0.55872  0.98951  1.0000
  H   H911      1.0  0.09474  0.42683  0.75962  1.0000
  C   C1146     1.0  0.13465  0.63787  0.98579  1.0000
  H   H912      1.0  0.03183  0.45829  0.90367  1.0000
  C   C1147     1.0  0.25392  0.48379  0.97467  1.0000
  H   H913      1.0  0.15827  0.60862  0.74326  1.0000
  H   H914      1.0  0.08147  0.39451  0.84686  1.0000
  C   C1148     1.0  0.02185  0.39541  0.92971  1.0000
  H   H915      1.0  0.07530  0.60377  0.97279  1.0000
  H   H916      1.0  0.01127  0.43521  0.93856  1.0000
  H   H917      1.0  0.00836  0.48314  0.84230  1.0000
  C   C1149     1.0  0.12980  0.36378  0.75667  1.0000
  C   C1150     1.0  0.02502  0.37770  0.80455  1.0000
  C   C1151     1.0  0.19081  0.43552  0.95724  1.0000
  H   H918      1.0  0.18092  0.63724  0.82200  1.0000
  H   H919      1.0  0.13706  0.46082  0.77314  1.0000
  C   C1152     1.0  0.02194  0.43780  0.98509  1.0000
  C   C1153     1.0  0.08624  0.41441  0.76219  1.0000
  H   H920      1.0  0.22992  0.64914  0.81726  1.0000
  C   C1154     1.0  0.24359  0.47057  0.98787  1.0000
  H   H921      1.0  0.31094  0.61031  0.97011  1.0000
  H   H922      1.0  0.11095  0.39865  0.86282  1.0000
  C   C1155     1.0  0.13259  0.59272  0.75042  1.0000
  C   C1156     1.0  0.06395  0.38257  0.76756  1.0000
  H   H923      1.0  0.26445  0.51226  0.96975  1.0000
  C   C1157     1.0  0.01342  0.44137  0.95172  1.0000
  H   H924      1.0  0.14622  0.39828  0.80732  1.0000
  H   H925      1.0  0.19349  0.51236  0.98735  1.0000
  H   H926      1.0  0.31555  0.35181  0.75904  1.0000
  H   H927      1.0  0.18749  0.42577  0.94717  1.0000
  H   H928      1.0  0.05904  0.42197  0.97175  1.0000
  H   H929      1.0  0.20426  0.64406  0.79246  1.0000
  C   C1158     1.0  0.29426  0.63862  0.97199  1.0000
  C   C1159     1.0  0.99951  0.63040  0.92575  1.0000
  C   C1160     1.0  0.18316  0.33601  0.81980  1.0000
  C   C1161     1.0  0.06109  0.60395  0.96749  1.0000
  C   C1162     1.0  0.38697  0.35935  0.75240  1.0000
  H   H930      1.0  0.26450  0.46353  0.74343  1.0000
  H   H931      1.0  0.99842  0.33370  0.81870  1.0000
  H   H932      1.0  0.06217  0.33170  0.81334  1.0000
  H   H933      1.0  0.09442  0.65061  0.83670  1.0000
  Fe  Fe78      1.0  0.07186  0.65398  0.88942  1.0000
  C   C1163     1.0  0.22266  0.65602  0.86579  1.0000
  H   H934      1.0  0.20165  0.65521  0.92004  1.0000
  C   C1164     1.0  0.02852  0.33290  0.75115  1.0000
  C   C1165     1.0  0.43289  0.40843  0.74603  1.0000
  C   C1166     1.0  0.00207  0.43428  0.88040  1.0000
  C   C1167     1.0  0.20816  0.45603  0.74465  1.0000
  C   C1168     1.0  0.13670  0.34458  0.75300  1.0000
  H   H935      1.0  0.27488  0.65510  0.93976  1.0000
  H   H936      1.0  0.16100  0.45582  0.74388  1.0000
  C   C1169     1.0  0.21272  0.52984  0.74559  1.0000
  H   H937      1.0  0.40613  0.33585  0.76569  1.0000
  C   C1170     1.0  0.00624  0.33076  0.98795  1.0000
  S   S151      1.0  0.05528  0.32902  0.88809  1.0000
  H   H938      1.0  0.23630  0.65777  0.97531  1.0000
  C   C1171     1.0  0.99911  0.56189  0.89792  1.0000
  H   H939      1.0  0.00198  0.38143  0.75884  1.0000
  H   H940      1.0  0.99721  0.49699  0.75344  1.0000
  C   C1172     1.0  0.01408  0.65569  0.90303  1.0000
  H   H941      1.0  0.99745  0.41703  0.75039  1.0000
  C   C1173     1.0  0.15614  0.42563  0.74359  1.0000
  H   H942      1.0  0.99826  0.55161  0.88746  1.0000
  C   C1174     1.0  0.99826  0.44856  0.79150  1.0000
  C   C1175     1.0  0.99955  0.48379  0.74602  1.0000
  H   H943      1.0  0.12479  0.37408  0.74475  1.0000
  H   H944      1.0  0.43940  0.72115  0.08499  1.0000
  Fe  Fe79      1.0  0.15405  0.77451  0.22601  1.0000
  S   S152      1.0  0.12265  0.77648  0.21970  1.0000
  S   S153      1.0  0.17774  0.78734  0.20456  1.0000
  C   C1176     1.0  0.31050  0.81658  0.00958  1.0000
  C   C1177     1.0  0.32581  0.89103  0.14073  1.0000
  H   H945      1.0  0.15403  0.71854  0.17481  1.0000
  H   H946      1.0  0.34668  0.96117  0.06172  1.0000
  P   P41       1.0  0.32337  0.83496  0.99418  1.0000
  H   H947      1.0  0.49187  0.80191  0.20785  1.0000
  Fe  Fe80      1.0  0.25798  0.72925  0.07674  1.0000
  S   S154      1.0  0.23785  0.75483  0.08733  1.0000
  C   C1178     1.0  0.28149  0.68886  0.00945  1.0000
  Fe  Fe81      1.0  0.28752  0.73430  0.10540  1.0000
  S   S155      1.0  0.26901  0.75946  0.11864  1.0000
  S   S156      1.0  0.31571  0.72016  0.11707  1.0000
  Fe  Fe82      1.0  0.24387  0.74179  0.11755  1.0000
  S   S157      1.0  0.21945  0.73336  0.14064  1.0000
  Fe  Fe83      1.0  0.26480  0.77048  0.08722  1.0000
  S   S158      1.0  0.26290  0.80266  0.07443  1.0000
  S   S159      1.0  0.26272  0.71556  0.10703  1.0000
  S   S160      1.0  0.28466  0.74604  0.07391  1.0000
  Fe  Fe84      1.0  0.33622  0.93020  0.02810  1.0000
  S   S161      1.0  0.36785  0.93289  0.03092  1.0000
  Fe  Fe85      1.0  0.33560  0.89106  0.05603  1.0000
  S   S162      1.0  0.36766  0.89107  0.05958  1.0000
  S   S163      1.0  0.32323  0.86571  0.07656  1.0000
  Fe  Fe86      1.0  0.36072  0.92301  0.06299  1.0000
  S   S164      1.0  0.36849  0.93565  0.08957  1.0000
  C   C1179     1.0  0.16523  0.68104  0.14606  1.0000
  S   S165      1.0  0.32839  0.92293  0.06076  1.0000
  S   S166      1.0  0.31731  0.95172  0.00831  1.0000
  C   C1180     1.0  0.11126  0.69929  0.02607  1.0000
  C   C1181     1.0  0.44567  0.86815  0.02100  1.0000
  Fe  Fe87      1.0  0.46768  0.93008  0.14061  1.0000
  S   S167      1.0  0.45877  0.94315  0.16911  1.0000
  S   S168      1.0  0.45583  0.93354  0.11095  1.0000
  C   C1182     1.0  0.10056  0.67411  0.10797  1.0000
  H   H948      1.0  0.15434  0.71173  0.14053  1.0000
  Fe  Fe88      1.0  0.46530  0.91210  0.18331  1.0000
  S   S169      1.0  0.44374  0.89596  0.20542  1.0000
  H   H949      1.0  0.13749  0.72919  0.01302  1.0000
  S   S170      1.0  0.47225  0.89938  0.15489  1.0000
  Fe  Fe89      1.0  0.38062  0.76549  0.18490  1.0000
  S   S171      1.0  0.37698  0.79461  0.19679  1.0000
  S   S172      1.0  0.37047  0.76961  0.15449  1.0000
  Fe  Fe90      1.0  0.40136  0.74506  0.21987  1.0000
  C   C1183     1.0  0.38590  0.83527  0.01152  1.0000
  H   H950      1.0  0.06493  0.72576  0.05379  1.0000
  Fe  Fe91      1.0  0.36815  0.77778  0.22566  1.0000
  Fe  Fe92      1.0  0.40781  0.78795  0.20435  1.0000
  S   S173      1.0  0.43202  0.80782  0.19407  1.0000
  S   S174      1.0  0.36964  0.74884  0.21340  1.0000
  S   S175      1.0  0.41236  0.75972  0.19049  1.0000
  C   C1184     1.0  0.44009  0.87156  0.20207  1.0000
  C   C1185     1.0  0.42320  0.86325  0.21132  1.0000
  C   C1186     1.0  0.42022  0.84381  0.20899  1.0000
  C   C1187     1.0  0.43440  0.83238  0.19774  1.0000
  C   C1188     1.0  0.45128  0.84065  0.18871  1.0000
  C   C1189     1.0  0.45406  0.86011  0.19073  1.0000
  H   H951      1.0  0.41234  0.87194  0.22022  1.0000
  H   H952      1.0  0.40698  0.83778  0.21576  1.0000
  H   H953      1.0  0.46218  0.83205  0.17975  1.0000
  H   H954      1.0  0.46722  0.86613  0.18372  1.0000
  C   C1190     1.0  0.39278  0.93332  0.09598  1.0000
  C   C1191     1.0  0.40887  0.92795  0.08266  1.0000
  C   C1192     1.0  0.42810  0.92763  0.08770  1.0000
  C   C1193     1.0  0.43140  0.93236  0.10617  1.0000
  C   C1194     1.0  0.41530  0.93723  0.11970  1.0000
  C   C1195     1.0  0.39604  0.93778  0.11457  1.0000
  H   H955      1.0  0.40652  0.92461  0.06828  1.0000
  H   H956      1.0  0.44051  0.92397  0.07713  1.0000
  H   H957      1.0  0.41769  0.94105  0.13390  1.0000
  H   H958      1.0  0.38364  0.94198  0.12493  1.0000
  C   C1196     1.0  0.33011  0.73428  0.12810  1.0000
  C   C1197     1.0  0.32933  0.75461  0.12348  1.0000
  C   C1198     1.0  0.34145  0.76536  0.13210  1.0000
  C   C1199     1.0  0.35390  0.75597  0.14585  1.0000
  C   C1200     1.0  0.35445  0.73571  0.15069  1.0000
  C   C1201     1.0  0.34282  0.72487  0.14157  1.0000
  H   H959      1.0  0.31971  0.76196  0.11298  1.0000
  H   H960      1.0  0.34124  0.78098  0.12800  1.0000
  H   H961      1.0  0.36427  0.72831  0.16098  1.0000
  H   H962      1.0  0.34354  0.70913  0.14509  1.0000
  C   C1202     1.0  0.28092  0.81925  0.07391  1.0000
  C   C1203     1.0  0.29610  0.81555  0.08604  1.0000
  C   C1204     1.0  0.30922  0.82971  0.08621  1.0000
  C   C1205     1.0  0.30766  0.84755  0.07398  1.0000
  C   C1206     1.0  0.29302  0.85087  0.06123  1.0000
  C   C1207     1.0  0.27960  0.83689  0.06137  1.0000
  H   H963      1.0  0.29749  0.80198  0.09558  1.0000
  H   H964      1.0  0.32061  0.82681  0.09598  1.0000
  H   H965      1.0  0.29155  0.86454  0.05183  1.0000
  H   H966      1.0  0.26799  0.83986  0.05186  1.0000
  C   C1208     1.0  0.36784  0.86849  0.18751  1.0000
  C   C1209     1.0  0.41416  0.68334  0.22506  1.0000
  H   H967      1.0  0.40218  0.69067  0.21727  1.0000
  C   C1210     1.0  0.18973  0.77217  0.18710  1.0000
  C   C1211     1.0  0.20394  0.77947  0.17271  1.0000
  C   C1212     1.0  0.21345  0.76769  0.15841  1.0000
  C   C1213     1.0  0.20856  0.74863  0.15842  1.0000
  C   C1214     1.0  0.19435  0.74139  0.17279  1.0000
  C   C1215     1.0  0.18494  0.75311  0.18707  1.0000
  H   H968      1.0  0.20744  0.79428  0.17257  1.0000
  H   H969      1.0  0.22443  0.77336  0.14735  1.0000
  H   H970      1.0  0.19065  0.72661  0.17287  1.0000
  H   H971      1.0  0.17383  0.74743  0.19788  1.0000
  C   C1216     1.0  0.10602  0.69382  0.04610  1.0000
  C   C1217     1.0  0.33265  0.74707  0.04541  1.0000
  C   C1218     1.0  0.46937  0.88359  0.99688  1.0000
  S   S176      1.0  0.34054  0.89810  0.02330  1.0000
  C   C1219     1.0  0.49363  0.81740  0.13157  1.0000
  C   C1220     1.0  0.25122  0.76141  0.18408  1.0000
  H   H972      1.0  0.35981  0.80434  0.04844  1.0000
  H   H973      1.0  0.32859  0.81437  0.03352  1.0000
  C   C1221     1.0  0.25121  0.72698  0.19566  1.0000
  H   H974      1.0  0.41238  0.93041  0.19512  1.0000
  C   C1222     1.0  0.47046  0.78791  0.03244  1.0000
  C   C1223     1.0  0.17571  0.69519  0.10518  1.0000
  H   H975      1.0  0.31960  0.75064  0.23578  1.0000
  H   H976      1.0  0.19880  0.69637  0.12368  1.0000
  C   C1224     1.0  0.13938  0.67550  0.11608  1.0000
  H   H977      1.0  0.43233  0.86099  0.02441  1.0000
  H   H978      1.0  0.11297  0.74000  0.16565  1.0000
  H   H979      1.0  0.37686  0.76103  0.10446  1.0000
  C   C1225     1.0  0.25062  0.67408  0.06610  1.0000
  C   C1226     1.0  0.38607  0.80045  0.08779  1.0000
  C   C1227     1.0  0.23211  0.68410  0.03845  1.0000
  H   H980      1.0  0.33396  0.88694  0.17006  1.0000
  H   H981      1.0  0.33882  0.85418  0.02366  1.0000
  H   H982      1.0  0.99695  0.66616  0.01183  1.0000
  C   C1228     1.0  0.40076  0.87482  0.15596  1.0000
  C   C1229     1.0  0.42504  0.79699  0.01890  1.0000
  C   C1230     1.0  0.36127  0.86009  0.22269  1.0000
  C   C1231     1.0  0.46212  0.74787  0.17543  1.0000
  C   C1232     1.0  0.46423  0.76780  0.17061  1.0000
  C   C1233     1.0  0.17956  0.66830  0.23946  1.0000
  H   H983      1.0  0.32203  0.89560  0.10986  1.0000
  H   H984      1.0  0.07159  0.67234  0.23703  1.0000
  H   H985      1.0  0.44926  0.74192  0.17201  1.0000
  H   H986      1.0  0.45283  0.77743  0.16369  1.0000
  C   C1234     1.0  0.35169  0.84422  0.21946  1.0000
  S   S177      1.0  0.11526  0.72398  0.21160  1.0000
  H   H987      1.0  0.36163  0.84630  0.08867  1.0000
  C   C1235     1.0  0.45873  0.77747  0.04699  1.0000
  C   C1236     1.0  0.45330  0.78459  0.06523  1.0000
  C   C1237     1.0  0.46006  0.80199  0.06914  1.0000
  C   C1238     1.0  0.47119  0.81270  0.05420  1.0000
  P   P42       1.0  0.45487  0.81107  0.09286  1.0000
  C   C1239     1.0  0.44112  0.79499  0.11023  1.0000
  C   C1240     1.0  0.47731  0.81120  0.10395  1.0000
  C   C1241     1.0  0.47649  0.81788  0.12246  1.0000
  H   H988      1.0  0.35756  0.89512  0.09933  1.0000
  C   C1242     1.0  0.47332  0.88091  0.03164  1.0000
  C   C1243     1.0  0.33243  0.89330  0.12076  1.0000
  H   H989      1.0  0.48873  0.71864  0.24207  1.0000
  C   C1244     1.0  0.42398  0.80227  0.12132  1.0000
  C   C1245     1.0  0.41386  0.78966  0.13521  1.0000
  C   C1246     1.0  0.42084  0.76982  0.13817  1.0000
  C   C1247     1.0  0.43835  0.76267  0.12780  1.0000
  C   C1248     1.0  0.44861  0.77527  0.11404  1.0000
  C   C1249     1.0  0.44086  0.83477  0.08875  1.0000
  C   C1250     1.0  0.42418  0.83642  0.07855  1.0000
  C   C1251     1.0  0.41320  0.85461  0.07488  1.0000
  C   C1252     1.0  0.41887  0.87133  0.08126  1.0000
  C   C1253     1.0  0.43567  0.86988  0.09105  1.0000
  C   C1254     1.0  0.44660  0.85167  0.09485  1.0000
  C   C1255     1.0  0.45608  0.77560  0.22669  1.0000
  H   H990      1.0  0.44391  0.77645  0.07607  1.0000
  C   C1256     1.0  0.45642  0.87126  0.03603  1.0000
  H   H991      1.0  0.46258  0.82345  0.12981  1.0000
  C   C1257     1.0  0.36929  0.87223  0.20679  1.0000
  H   H992      1.0  0.49302  0.82334  0.14547  1.0000
  C   C1258     1.0  0.14466  0.72442  0.99932  1.0000
  H   H993      1.0  0.31019  0.89163  0.14538  1.0000
  H   H994      1.0  0.41853  0.81765  0.11950  1.0000
  H   H995      1.0  0.40060  0.79525  0.14376  1.0000
  H   H996      1.0  0.41272  0.75998  0.14860  1.0000
  H   H997      1.0  0.44401  0.74740  0.13049  1.0000
  H   H998      1.0  0.46239  0.76966  0.10633  1.0000
  H   H999      1.0  0.41982  0.82366  0.07324  1.0000
  H   H1000     1.0  0.40048  0.85584  0.06680  1.0000
  H   H1001     1.0  0.41054  0.88548  0.07822  1.0000
  H   H1002     1.0  0.44051  0.88296  0.09534  1.0000
  H   H1003     1.0  0.45977  0.85103  0.10204  1.0000
  C   C1259     1.0  0.16859  0.70239  0.08720  1.0000
  H   H1004     1.0  0.37246  0.85537  0.03192  1.0000
  C   C1260     1.0  0.40977  0.93953  0.99918  1.0000
  C   C1261     1.0  0.30004  0.83244  0.19653  1.0000
  C   C1262     1.0  0.29492  0.81367  0.19492  1.0000
  C   C1263     1.0  0.28784  0.80220  0.21187  1.0000
  P   P43       1.0  0.29692  0.80447  0.17129  1.0000
  C   C1264     1.0  0.30400  0.77825  0.17448  1.0000
  C   C1265     1.0  0.27372  0.80961  0.16094  1.0000
  C   C1266     1.0  0.25633  0.81522  0.17267  1.0000
  C   C1267     1.0  0.23839  0.81870  0.16463  1.0000
  C   C1268     1.0  0.23765  0.81653  0.14488  1.0000
  C   C1269     1.0  0.25490  0.81112  0.13307  1.0000
  C   C1270     1.0  0.27287  0.80772  0.14104  1.0000
  C   C1271     1.0  0.31689  0.77014  0.18836  1.0000
  C   C1272     1.0  0.32140  0.74981  0.19162  1.0000
  C   C1273     1.0  0.31310  0.73742  0.18116  1.0000
  C   C1274     1.0  0.30058  0.74534  0.16714  1.0000
  C   C1275     1.0  0.29616  0.76563  0.16370  1.0000
  C   C1276     1.0  0.31590  0.81641  0.15562  1.0000
  C   C1277     1.0  0.33576  0.81049  0.15788  1.0000
  C   C1278     1.0  0.35051  0.82041  0.14666  1.0000
  C   C1279     1.0  0.34552  0.83657  0.13333  1.0000
  C   C1280     1.0  0.32580  0.84255  0.13095  1.0000
  C   C1281     1.0  0.31102  0.83267  0.14215  1.0000
  H   H1005     1.0  0.38976  0.95982  0.18548  1.0000
  C   C1282     1.0  0.43250  0.88074  0.13820  1.0000
  C   C1283     1.0  0.29317  0.69652  0.02122  1.0000
  H   H1006     1.0  0.30517  0.84175  0.18365  1.0000
  H   H1007     1.0  0.28346  0.78787  0.21095  1.0000
  H   H1008     1.0  0.25648  0.81682  0.18803  1.0000
  H   H1009     1.0  0.22500  0.82293  0.17377  1.0000
  H   H1010     1.0  0.22370  0.81897  0.13875  1.0000
  H   H1011     1.0  0.25438  0.80951  0.11771  1.0000
  H   H1012     1.0  0.28611  0.80344  0.13169  1.0000
  H   H1013     1.0  0.32349  0.77945  0.19671  1.0000
  H   H1014     1.0  0.33154  0.74361  0.20205  1.0000
  H   H1015     1.0  0.31690  0.72170  0.18340  1.0000
  H   H1016     1.0  0.29471  0.73573  0.15850  1.0000
  H   H1017     1.0  0.28665  0.77124  0.15258  1.0000
  H   H1018     1.0  0.33995  0.79824  0.16835  1.0000
  H   H1019     1.0  0.36581  0.81551  0.14840  1.0000
  H   H1020     1.0  0.35688  0.84451  0.12486  1.0000
  H   H1021     1.0  0.32193  0.85479  0.12025  1.0000
  H   H1022     1.0  0.29585  0.83792  0.14029  1.0000
  H   H1023     1.0  0.22600  0.69556  0.02819  1.0000
  H   H1024     1.0  0.45178  0.86617  0.05110  1.0000
  H   H1025     1.0  0.48896  0.83812  0.20359  1.0000
  C   C1284     1.0  0.05332  0.74480  0.22206  1.0000
  H   H1026     1.0  0.48325  0.88898  0.09524  1.0000
  C   C1285     1.0  0.15031  0.67730  0.03058  1.0000
  C   C1286     1.0  0.08031  0.67190  0.20606  1.0000
  C   C1287     1.0  0.03319  0.74640  0.22840  1.0000
  H   H1027     1.0  0.09113  0.67600  0.17554  1.0000
  C   C1288     1.0  0.17989  0.67905  0.04593  1.0000
  C   C1289     1.0  0.16643  0.68719  0.03283  1.0000
  C   C1290     1.0  0.42510  0.69425  0.23474  1.0000
  C   C1291     1.0  0.08280  0.72382  0.02609  1.0000
  H   H1028     1.0  0.17306  0.72153  0.06037  1.0000
  C   C1292     1.0  0.45239  0.75673  0.23463  1.0000
  H   H1029     1.0  0.45377  0.76396  0.04400  1.0000
  C   C1293     1.0  0.13896  0.67166  0.23787  1.0000
  C   C1294     1.0  0.29896  0.83921  0.21496  1.0000
  C   C1295     1.0  0.31050  0.85907  0.99675  1.0000
  C   C1296     1.0  0.28998  0.78822  0.03321  1.0000
  C   C1297     1.0  0.08943  0.70341  0.05604  1.0000
  C   C1298     1.0  0.36997  0.84608  0.02110  1.0000
  C   C1299     1.0  0.10133  0.69712  0.19174  1.0000
  H   H1030     1.0  0.02101  0.95412  0.22245  1.0000
  H   H1031     1.0  0.13750  0.74957  0.18517  1.0000
  H   H1032     1.0  0.37487  0.97935  0.06431  1.0000
  S   S178      1.0  0.15590  0.74265  0.23715  1.0000
  H   H1033     1.0  0.19240  0.68659  0.04750  1.0000
  H   H1034     1.0  0.16884  0.70106  0.02441  1.0000
  C   C1300     1.0  0.24994  0.76594  0.20339  1.0000
  C   C1301     1.0  0.35969  0.76698  0.03695  1.0000
  C   C1302     1.0  0.49342  0.74311  0.18886  1.0000
  C   C1303     1.0  0.33859  0.74191  0.06414  1.0000
  H   H1035     1.0  0.10978  0.70382  0.17903  1.0000
  C   C1304     1.0  0.10109  0.70428  0.21003  1.0000
  C   C1305     1.0  0.06541  0.66381  0.01673  1.0000
  C   C1306     1.0  0.22937  0.66440  0.03703  1.0000
  C   C1307     1.0  0.35512  0.74918  0.06930  1.0000
  C   C1308     1.0  0.14805  0.68799  0.24061  1.0000
  H   H1036     1.0  0.40147  0.74807  0.02990  1.0000
  C   C1309     1.0  0.09939  0.71426  0.01611  1.0000
  C   C1310     1.0  0.31640  0.80908  0.02800  1.0000
  C   C1311     1.0  0.17253  0.67060  0.17953  1.0000
  C   C1312     1.0  0.39051  0.75244  0.09993  1.0000
  H   H1037     1.0  0.11459  0.68213  0.05415  1.0000
  C   C1313     1.0  0.19725  0.82037  0.10786  1.0000
  C   C1314     1.0  0.20630  0.80131  0.10645  1.0000
  C   C1315     1.0  0.19749  0.78544  0.11682  1.0000
  C   C1316     1.0  0.17973  0.78855  0.12872  1.0000
  C   C1317     1.0  0.17041  0.80763  0.13005  1.0000
  C   C1318     1.0  0.17937  0.82354  0.11959  1.0000
  P   P44       1.0  0.14685  0.81188  0.14442  1.0000
  C   C1319     1.0  0.13101  0.82873  0.12965  1.0000
  C   C1320     1.0  0.13612  0.78902  0.15060  1.0000
  C   C1321     1.0  0.12244  0.78349  0.13932  1.0000
  C   C1322     1.0  0.11418  0.76580  0.14468  1.0000
  C   C1323     1.0  0.11957  0.75354  0.16121  1.0000
  C   C1324     1.0  0.13334  0.75890  0.17227  1.0000
  C   C1325     1.0  0.14155  0.77652  0.16702  1.0000
  C   C1326     1.0  0.13225  0.82773  0.10934  1.0000
  C   C1327     1.0  0.12006  0.84069  0.09777  1.0000
  C   C1328     1.0  0.10652  0.85472  0.10638  1.0000
  C   C1329     1.0  0.10515  0.85578  0.12657  1.0000
  C   C1330     1.0  0.11733  0.84285  0.13819  1.0000
  C   C1331     1.0  0.14920  0.82167  0.16708  1.0000
  C   C1332     1.0  0.16609  0.83021  0.16963  1.0000
  C   C1333     1.0  0.16760  0.83767  0.18729  1.0000
  C   C1334     1.0  0.15235  0.83653  0.20255  1.0000
  C   C1335     1.0  0.13554  0.82798  0.20017  1.0000
  C   C1336     1.0  0.13396  0.82057  0.18254  1.0000
  H   H1038     1.0  0.20411  0.83265  0.09976  1.0000
  H   H1039     1.0  0.22017  0.79884  0.09734  1.0000
  H   H1040     1.0  0.20452  0.77063  0.11588  1.0000
  H   H1041     1.0  0.17346  0.77595  0.13681  1.0000
  H   H1042     1.0  0.17245  0.83839  0.12041  1.0000
  H   H1043     1.0  0.11799  0.79277  0.12654  1.0000
  H   H1044     1.0  0.10344  0.76165  0.13613  1.0000
  H   H1045     1.0  0.15199  0.78050  0.17593  1.0000
  H   H1046     1.0  0.14259  0.81686  0.10244  1.0000
  C   C1337     1.0  0.17743  0.66103  0.05688  1.0000
  H   H1047     1.0  0.09707  0.86476  0.09741  1.0000
  H   H1048     1.0  0.09464  0.86666  0.13326  1.0000
  H   H1049     1.0  0.11598  0.84400  0.15377  1.0000
  H   H1050     1.0  0.17825  0.83086  0.15823  1.0000
  H   H1051     1.0  0.18077  0.84395  0.18933  1.0000
  H   H1052     1.0  0.15365  0.84198  0.21636  1.0000
  H   H1053     1.0  0.12385  0.82680  0.21213  1.0000
  H   H1054     1.0  0.12090  0.81380  0.18106  1.0000
  C   C1338     1.0  0.42050  0.76527  0.00975  1.0000
  C   C1339     1.0  0.37864  0.79481  0.07149  1.0000
  C   C1340     1.0  0.48096  0.77541  0.17485  1.0000
  C   C1341     1.0  0.29148  0.89679  0.00135  1.0000
  H   H1055     1.0  0.34902  0.83654  0.05971  1.0000
  C   C1342     1.0  0.24987  0.73144  0.21503  1.0000
  C   C1343     1.0  0.29258  0.82739  0.23183  1.0000
  C   C1344     1.0  0.17847  0.71610  0.07430  1.0000
  H   H1056     1.0  0.38537  0.82314  0.10680  1.0000
  C   C1345     1.0  0.41259  0.79355  0.03620  1.0000
  C   C1346     1.0  0.35860  0.85224  0.18444  1.0000
  C   C1347     1.0  0.24895  0.75100  0.21905  1.0000
  C   C1348     1.0  0.39936  0.73897  0.11384  1.0000
  H   H1057     1.0  0.42364  0.71711  0.11926  1.0000
  C   C1349     1.0  0.35253  0.89278  0.11474  1.0000
  H   H1058     1.0  0.05758  0.66882  0.06552  1.0000
  C   C1350     1.0  0.10425  0.68516  0.12253  1.0000
  H   H1059     1.0  0.12586  0.69438  0.13807  1.0000
  C   C1351     1.0  0.40392  0.77591  0.04037  1.0000
  C   C1352     1.0  0.38285  0.82383  0.99705  1.0000
  H   H1060     1.0  0.45409  0.80580  0.23132  1.0000
  H   H1061     1.0  0.36101  0.95640  0.16812  1.0000
  H   H1062     1.0  0.47482  0.78248  0.01829  1.0000
  P   P45       1.0  0.37695  0.88463  0.16669  1.0000
  C   C1353     1.0  0.36644  0.83191  0.08399  1.0000
  H   H1063     1.0  0.28701  0.75213  0.22388  1.0000
  H   H1064     1.0  0.21622  0.71992  0.10064  1.0000
  H   H1065     1.0  0.34336  0.82770  0.19790  1.0000
  C   C1354     1.0  0.09086  0.68123  0.18971  1.0000
  H   H1066     1.0  0.03177  0.66745  0.99832  1.0000
  C   C1355     1.0  0.25178  0.74196  0.18021  1.0000
  H   H1067     1.0  0.28173  0.77763  0.04252  1.0000
  C   C1356     1.0  0.37977  0.81888  0.09414  1.0000
  C   C1357     1.0  0.34317  0.75964  0.03184  1.0000
  C   C1358     1.0  0.15914  0.70001  0.15135  1.0000
  C   C1359     1.0  0.39911  0.75466  0.08040  1.0000
  H   H1068     1.0  0.19532  0.66706  0.24005  1.0000
  H   H1069     1.0  0.36740  0.77700  0.02630  1.0000
  Fe  Fe93      1.0  0.37180  0.90073  0.02749  1.0000
  C   C1360     1.0  0.17219  0.66640  0.16026  1.0000
  C   C1361     1.0  0.39618  0.91051  0.18350  1.0000
  C   C1362     1.0  0.35048  0.84023  0.20034  1.0000
  C   C1363     1.0  0.35929  0.82645  0.06763  1.0000
  H   H1070     1.0  0.24941  0.78111  0.20604  1.0000
  C   C1364     1.0  0.40803  0.76175  0.02703  1.0000
  H   H1071     1.0  0.25156  0.71193  0.19257  1.0000
  H   H1072     1.0  0.43177  0.81057  0.01570  1.0000
  C   C1365     1.0  0.38002  0.90840  0.17362  1.0000
  H   H1073     1.0  0.31974  0.74152  0.04152  1.0000
  C   C1366     1.0  0.39961  0.92896  0.18783  1.0000
  H   H1074     1.0  0.40648  0.89795  0.18740  1.0000
  H   H1075     1.0  0.39252  0.73731  0.12883  1.0000
  H   H1076     1.0  0.33030  0.73234  0.07481  1.0000
  H   H1077     1.0  0.41229  0.93561  0.01441  1.0000
  C   C1367     1.0  0.43908  0.86090  0.14169  1.0000
  H   H1078     1.0  0.28439  0.91139  0.00342  1.0000
  C   C1368     1.0  0.42576  0.72994  0.08916  1.0000
  H   H1079     1.0  0.42396  0.74466  0.06031  1.0000
  H   H1080     1.0  0.46091  0.77845  0.21126  1.0000
  H   H1081     1.0  0.39161  0.96638  0.00452  1.0000
  C   C1369     1.0  0.36533  0.80804  0.06137  1.0000
  H   H1082     1.0  0.40980  0.80473  0.04618  1.0000
  H   H1083     1.0  0.13931  0.70199  0.24195  1.0000
  C   C1370     1.0  0.30625  0.79479  0.03968  1.0000
  C   C1371     1.0  0.41690  0.74335  0.07516  1.0000
  C   C1372     1.0  0.41692  0.72765  0.10846  1.0000
  Fe  Fe94      1.0  0.49133  0.94607  0.16973  1.0000
  H   H1084     1.0  0.31061  0.78917  0.05403  1.0000
  H   H1085     1.0  0.35913  0.74504  0.08398  1.0000
  P   P46       1.0  0.38715  0.77159  0.06229  1.0000
  C   C1373     1.0  0.39816  0.95684  0.99359  1.0000
  P   P47       1.0  0.13312  0.68744  0.01325  1.0000
  H   H1086     1.0  0.16576  0.69259  0.19971  1.0000
  H   H1087     1.0  0.45444  0.74486  0.22539  1.0000
  H   H1088     1.0  0.43142  0.83238  0.15430  1.0000
  C   C1374     1.0  0.47849  0.97876  0.11622  1.0000
  Fe  Fe95      1.0  0.12384  0.74468  0.23230  1.0000
  C   C1375     1.0  0.33340  0.98339  0.04139  1.0000
  H   H1089     1.0  0.39683  0.79083  0.09553  1.0000
  H   H1090     1.0  0.47504  0.72008  0.18822  1.0000
  C   C1376     1.0  0.36605  0.76155  0.05564  1.0000
  H   H1091     1.0  0.33835  0.76393  0.01743  1.0000
  H   H1092     1.0  0.39793  0.84449  0.16728  1.0000
  H   H1093     1.0  0.20377  0.73246  0.06885  1.0000
  C   C1377     1.0  0.42628  0.84779  0.15150  1.0000
  C   C1378     1.0  0.40722  0.85474  0.15885  1.0000
  H   H1094     1.0  0.38156  0.89034  0.12337  1.0000
  C   C1379     1.0  0.34782  0.83453  0.00127  1.0000
  S   S179      1.0  0.39889  0.77303  0.23432  1.0000
  C   C1380     1.0  0.28377  0.79595  0.01512  1.0000
  S   S180      1.0  0.24696  0.71417  0.05286  1.0000
  C   C1381     1.0  0.24280  0.68912  0.05290  1.0000
  C   C1382     1.0  0.19569  0.72235  0.07907  1.0000
  H   H1095     1.0  0.45421  0.85588  0.13700  1.0000
  H   H1096     1.0  0.44231  0.89092  0.13036  1.0000
  C   C1383     1.0  0.07985  0.67924  0.22431  1.0000
  C   C1384     1.0  0.47652  0.80556  0.03605  1.0000
  H   H1097     1.0  0.48586  0.81351  0.02494  1.0000
  C   C1385     1.0  0.34776  0.97545  0.05355  1.0000
  C   C1386     1.0  0.00596  0.94996  0.19813  1.0000
  C   C1387     1.0  0.49122  0.98637  0.12693  1.0000
  H   H1098     1.0  0.25145  0.77298  0.17204  1.0000
  C   C1388     1.0  0.37070  0.94354  0.17262  1.0000
  H   H1099     1.0  0.10290  0.71852  0.00058  1.0000
  H   H1100     1.0  0.48239  0.79082  0.17067  1.0000
  C   C1389     1.0  0.20278  0.71527  0.09696  1.0000
  C   C1390     1.0  0.06593  0.75451  0.23096  1.0000
  H   H1101     1.0  0.15567  0.69722  0.08294  1.0000
  H   H1102     1.0  0.01919  0.94981  0.18790  1.0000
  H   H1103     1.0  0.08147  0.75360  0.22575  1.0000
  H   H1104     1.0  0.26711  0.68501  0.01564  1.0000
  C   C1391     1.0  0.35098  0.84561  0.01613  1.0000
  H   H1105     1.0  0.46320  0.97801  0.12192  1.0000
  H   H1106     1.0  0.26800  0.88204  0.01792  1.0000
  H   H1107     1.0  0.12324  0.67327  0.23713  1.0000
  C   C1392     1.0  0.41342  0.88765  0.14519  1.0000
  C   C1393     1.0  0.35963  0.88759  0.14862  1.0000
  H   H1108     1.0  0.13220  0.66408  0.20104  1.0000
  C   C1394     1.0  0.33934  0.88826  0.15463  1.0000
  H   H1109     1.0  0.37651  0.88449  0.20964  1.0000
  C   C1395     1.0  0.09002  0.69540  0.22627  1.0000
  H   H1110     1.0  0.12110  0.83984  0.08211  1.0000
  H   H1111     1.0  0.09203  0.69280  0.13096  1.0000
  H   H1112     1.0  0.22117  0.66088  0.02575  1.0000
  C   C1396     1.0  0.36723  0.92507  0.16826  1.0000
  C   C1397     1.0  0.28691  0.80895  0.23025  1.0000
  H   H1113     1.0  0.40873  0.90314  0.14259  1.0000
  H   H1114     1.0  0.25902  0.67759  0.07723  1.0000
  H   H1115     1.0  0.08537  0.69900  0.07146  1.0000
  H   H1116     1.0  0.40069  0.83640  0.01478  1.0000
  H   H1117     1.0  0.34537  0.83482  0.23174  1.0000
  C   C1398     1.0  0.12627  0.66861  0.00014  1.0000
  H   H1118     1.0  0.08555  0.67316  0.10519  1.0000
  C   C1399     1.0  0.36362  0.98581  0.05504  1.0000
  C   C1400     1.0  0.47668  0.73555  0.18460  1.0000
  H   H1119     1.0  0.35488  0.92402  0.16027  1.0000
  C   C1401     1.0  0.36612  0.89006  0.12853  1.0000
  H   H1120     1.0  0.35757  0.84896  0.16971  1.0000
  H   H1121     1.0  0.47387  0.83558  0.99988  1.0000
  H   H1122     1.0  0.07364  0.73527  0.01829  1.0000
  H   H1123     1.0  0.06030  0.68879  0.03309  1.0000
  S   S181      1.0  0.39654  0.88638  0.00824  1.0000
  H   H1124     1.0  0.47628  0.82633  0.05677  1.0000
  H   H1125     1.0  0.05917  0.73620  0.21011  1.0000
  C   C1402     1.0  0.42899  0.78287  0.00569  1.0000
  C   C1403     1.0  0.38690  0.94549  0.18236  1.0000
  C   C1404     1.0  0.07789  0.71848  0.04608  1.0000
  C   C1405     1.0  0.00692  0.95244  0.21778  1.0000
  H   H1126     1.0  0.24936  0.71963  0.22682  1.0000
  H   H1127     1.0  0.28758  0.69877  0.03625  1.0000
  C   C1406     1.0  0.12356  0.68590  0.12658  1.0000
  H   H1128     1.0  0.28445  0.84891  0.01393  1.0000
  C   C1407     1.0  0.19281  0.70186  0.11002  1.0000
  C   C1408     1.0  0.28230  0.88026  0.00952  1.0000
  H   H1129     1.0  0.25246  0.73851  0.16521  1.0000
  P   P48       1.0  0.16456  0.67597  0.12109  1.0000
  C   C1409     1.0  0.13546  0.66448  0.10145  1.0000
  C   C1410     1.0  0.47980  0.88704  0.01217  1.0000
  H   H1130     1.0  0.47583  0.96515  0.09038  1.0000
  H   H1131     1.0  0.30336  0.85351  0.21619  1.0000
  H   H1132     1.0  0.41276  0.80966  0.24177  1.0000
  C   C1411     1.0  0.16835  0.68633  0.24144  1.0000
  H   H1133     1.0  0.36250  0.86300  0.23753  1.0000
  S   S182      1.0  0.41977  0.71989  0.23596  1.0000
  C   C1412     1.0  0.15907  0.70400  0.17071  1.0000
  C   C1413     1.0  0.16576  0.68933  0.18478  1.0000
  C   C1414     1.0  0.00077  0.66871  0.99615  1.0000
  H   H1134     1.0  0.32136  0.97509  0.03988  1.0000
  C   C1415     1.0  0.06203  0.67298  0.03392  1.0000
  H   H1135     1.0  0.02083  0.67499  0.07866  1.0000
  C   C1416     1.0  0.48564  0.97143  0.09845  1.0000
  C   C1417     1.0  0.29173  0.86145  0.00720  1.0000
  H   H1136     1.0  0.02337  0.73920  0.22118  1.0000
  C   C1418     1.0  0.29393  0.81015  0.00336  1.0000
  H   H1137     1.0  0.48166  0.88330  0.04333  1.0000
  C   C1419     1.0  0.31203  0.70109  0.01372  1.0000
  H   H1138     1.0  0.32110  0.70689  0.02293  1.0000
  C   C1420     1.0  0.45228  0.79113  0.23829  1.0000
  H   H1139     1.0  0.06619  0.67256  0.00260  1.0000
  H   H1140     1.0  0.20352  0.66441  0.09956  1.0000
  H   H1141     1.0  0.27087  0.79113  0.01039  1.0000
  C   C1421     1.0  0.11616  0.66381  0.09742  1.0000
  C   C1422     1.0  0.06031  0.66174  0.05212  1.0000
  H   H1142     1.0  0.48582  0.99160  0.14098  1.0000
  H   H1143     1.0  0.19504  0.81064  0.22813  1.0000
  H   H1144     1.0  0.46543  0.92418  0.99537  1.0000
  H   H1145     1.0  0.42350  0.75445  0.99934  1.0000
  H   H1146     1.0  0.21247  0.77771  0.22606  1.0000
  C   C1423     1.0  0.45207  0.87431  0.00149  1.0000
  C   C1424     1.0  0.31924  0.69785  0.99445  1.0000
  H   H1147     1.0  0.12726  0.66377  0.16647  1.0000
  S   S183      1.0  0.49365  0.85467  0.07527  1.0000
  S   S184      1.0  0.33994  0.79102  0.24144  1.0000
  H   H1148     1.0  0.47999  0.87149  0.23513  1.0000
  C   C1425     1.0  0.20780  0.80619  0.23603  1.0000
  C   C1426     1.0  0.21764  0.78736  0.23509  1.0000
  S   S185      1.0  0.04496  0.66276  0.11066  1.0000
  C   C1427     1.0  0.28785  0.75286  0.23930  1.0000
  H   H1149     1.0  0.49315  0.89421  0.00911  1.0000
  H   H1150     1.0  0.00449  0.85751  0.24263  1.0000
  C   C1428     1.0  0.14459  0.70498  0.99529  1.0000
  C   C1429     1.0  0.49577  0.88058  0.10143  1.0000
  C   C1430     1.0  0.41848  0.66272  0.22594  1.0000
  C   C1431     1.0  0.49538  0.80282  0.09530  1.0000
  H   H1151     1.0  0.08953  0.70076  0.24042  1.0000
  H   H1152     1.0  0.37700  0.81677  0.24127  1.0000
  C   C1432     1.0  0.01764  0.66053  0.08515  1.0000
  C   C1433     1.0  0.49550  0.76317  0.18438  1.0000
  C   C1434     1.0  0.47231  0.85955  0.24286  1.0000
  H   H1153     1.0  0.21901  0.72571  0.99297  1.0000
  H   H1154     1.0  0.04450  0.83771  0.32511  1.0000
  S   S186      1.0  0.15915  0.74053  0.29463  1.0000
  Fe  Fe96      1.0  0.21372  0.91379  0.43786  1.0000
  S   S187      1.0  0.18363  0.90420  0.44640  1.0000
  S   S188      1.0  0.23458  0.89850  0.41461  1.0000
  Fe  Fe97      1.0  0.20535  0.94799  0.46450  1.0000
  S   S189      1.0  0.17485  0.94025  0.47452  1.0000
  H   H1155     1.0  0.03554  0.70916  0.39217  1.0000
  Fe  Fe98      1.0  0.18905  0.90930  0.47677  1.0000
  C   C1435     1.0  0.99667  0.78012  0.30250  1.0000
  Fe  Fe99      1.0  0.17251  0.93609  0.44312  1.0000
  S   S190      1.0  0.14463  0.94869  0.42948  1.0000
  S   S191      1.0  0.21991  0.91690  0.46864  1.0000
  S   S192      1.0  0.20226  0.94588  0.43258  1.0000
  Fe  Fe100     1.0  0.05340  0.91257  0.33635  1.0000
  S   S193      1.0  0.05282  0.92679  0.30548  1.0000
  S   S194      1.0  0.02608  0.90105  0.35154  1.0000
  Fe  Fe101     1.0  0.09489  0.92125  0.33975  1.0000
  S   S195      1.0  0.09726  0.93660  0.30919  1.0000
  S   S196      1.0  0.12210  0.91327  0.35563  1.0000
  Fe  Fe102     1.0  0.06635  0.95059  0.31701  1.0000
  S   S197      1.0  0.05705  0.98354  0.31277  1.0000
  Fe  Fe103     1.0  0.08349  0.91112  0.30095  1.0000
  H   H1156     1.0  0.05177  0.86973  0.33383  1.0000
  S   S198      1.0  0.06524  0.93698  0.34829  1.0000
  S   S199      1.0  0.08269  0.89521  0.33114  1.0000
  Fe  Fe104     1.0  0.25294  0.77110  0.34047  1.0000
  S   S200      1.0  0.26424  0.79942  0.34489  1.0000
  S   S201      1.0  0.23535  0.77553  0.31407  1.0000
  Fe  Fe105     1.0  0.27545  0.74769  0.37299  1.0000
  S   S202      1.0  0.28738  0.77473  0.37958  1.0000
  S   S203      1.0  0.29028  0.72226  0.39181  1.0000
  Fe  Fe106     1.0  0.25720  0.79047  0.37710  1.0000
  S   S204      1.0  0.24002  0.80784  0.40110  1.0000
  Fe  Fe107     1.0  0.29333  0.78112  0.34699  1.0000
  S   S205      1.0  0.32433  0.78640  0.33408  1.0000
  S   S206      1.0  0.24452  0.76284  0.37275  1.0000
  S   S207      1.0  0.28275  0.75354  0.34037  1.0000
  H   H1157     1.0  0.02429  0.74156  0.33084  1.0000
  C   C1436     1.0  0.02923  0.85938  0.38548  1.0000
  H   H1158     1.0  0.25097  0.68200  0.45438  1.0000
  H   H1159     1.0  0.26114  0.69825  0.38238  1.0000
  S   S208      1.0  0.44161  0.68188  0.47615  1.0000
  C   C1437     1.0  0.38356  0.81858  0.25432  1.0000
  C   C1438     1.0  0.36271  0.66878  0.37487  1.0000
  C   C1439     1.0  0.32876  0.78764  0.30836  1.0000
  C   C1440     1.0  0.31347  0.79366  0.29671  1.0000
  C   C1441     1.0  0.31728  0.79500  0.27622  1.0000
  P   P49       1.0  0.24661  0.75673  0.24413  1.0000
  C   C1442     1.0  0.35143  0.78308  0.27888  1.0000
  C   C1443     1.0  0.34780  0.78250  0.29942  1.0000
  H   H1160     1.0  0.29876  0.79758  0.30351  1.0000
  H   H1161     1.0  0.00907  0.87340  0.46415  1.0000
  H   H1162     1.0  0.36607  0.77889  0.27207  1.0000
  H   H1163     1.0  0.35967  0.77788  0.30840  1.0000
  C   C1444     1.0  0.16204  0.85485  0.46741  1.0000
  C   C1445     1.0  0.17417  0.86479  0.47667  1.0000
  H   H1164     1.0  0.19974  0.70071  0.28847  1.0000
  C   C1446     1.0  0.01314  0.84382  0.33185  1.0000
  H   H1165     1.0  0.16754  0.84884  0.45384  1.0000
  H   H1166     1.0  0.18894  0.86668  0.47005  1.0000
  C   C1447     1.0  0.23610  0.87320  0.41117  1.0000
  C   C1448     1.0  0.24561  0.86675  0.39352  1.0000
  C   C1449     1.0  0.24718  0.84680  0.39024  1.0000
  C   C1450     1.0  0.23932  0.83303  0.40467  1.0000
  C   C1451     1.0  0.23010  0.83945  0.42244  1.0000
  C   C1452     1.0  0.22843  0.85939  0.42567  1.0000
  H   H1167     1.0  0.25176  0.87727  0.38229  1.0000
  H   H1168     1.0  0.25436  0.84209  0.37655  1.0000
  H   H1169     1.0  0.22403  0.82896  0.43373  1.0000
  H   H1170     1.0  0.22123  0.86408  0.43937  1.0000
  C   C1453     1.0  0.13797  0.93846  0.40937  1.0000
  C   C1454     1.0  0.12086  0.94642  0.40085  1.0000
  C   C1455     1.0  0.11539  0.93860  0.38463  1.0000
  C   C1456     1.0  0.12742  0.92319  0.37652  1.0000
  C   C1457     1.0  0.14460  0.91546  0.38492  1.0000
  C   C1458     1.0  0.14964  0.92276  0.40155  1.0000
  H   H1171     1.0  0.11190  0.95871  0.40678  1.0000
  H   H1172     1.0  0.10218  0.94472  0.37814  1.0000
  H   H1173     1.0  0.15397  0.90367  0.37856  1.0000
  H   H1174     1.0  0.16268  0.91647  0.40820  1.0000
  C   C1459     1.0  0.18002  0.75051  0.30058  1.0000
  C   C1460     1.0  0.18997  0.74172  0.31658  1.0000
  C   C1461     1.0  0.20687  0.74922  0.32118  1.0000
  C   C1462     1.0  0.21381  0.76568  0.30987  1.0000
  C   C1463     1.0  0.20375  0.77446  0.29404  1.0000
  C   C1464     1.0  0.18707  0.76690  0.28935  1.0000
  H   H1175     1.0  0.18472  0.72894  0.32529  1.0000
  H   H1176     1.0  0.21457  0.74222  0.33333  1.0000
  H   H1177     1.0  0.20885  0.78724  0.28531  1.0000
  H   H1178     1.0  0.17981  0.77373  0.27690  1.0000
  C   C1465     1.0  0.07967  0.86126  0.27962  1.0000
  C   C1466     1.0  0.07809  0.84186  0.27610  1.0000
  H   H1179     1.0  0.06766  0.86938  0.28781  1.0000
  H   H1180     1.0  0.06480  0.83523  0.28165  1.0000
  C   C1467     1.0  0.44637  0.66952  0.32524  1.0000
  H   H1181     1.0  0.09031  0.87318  0.47181  1.0000
  H   H1182     1.0  0.32161  0.67592  0.34730  1.0000
  H   H1183     1.0  0.38361  0.74390  0.30195  1.0000
  H   H1184     1.0  0.01641  0.87002  0.38684  1.0000
  H   H1185     1.0  0.15242  0.95136  0.34549  1.0000
  C   C1468     1.0  0.12921  0.82429  0.41692  1.0000
  C   C1469     1.0  0.02611  0.74839  0.42282  1.0000
  H   H1186     1.0  0.01035  0.77425  0.39176  1.0000
  H   H1187     1.0  0.01763  0.73934  0.28158  1.0000
  C   C1470     1.0  0.16497  0.80625  0.34634  1.0000
  C   C1471     1.0  0.47874  0.69509  0.47490  1.0000
  C   C1472     1.0  0.46470  0.68892  0.46461  1.0000
  C   C1473     1.0  0.46892  0.68833  0.44422  1.0000
  H   H1188     1.0  0.20116  0.91714  0.39821  1.0000
  H   H1189     1.0  0.34788  0.66491  0.37551  1.0000
  H   H1190     1.0  0.02125  0.96563  0.31060  1.0000
  H   H1191     1.0  0.00949  0.80435  0.40231  1.0000
  C   C1474     1.0  0.02145  0.87966  0.34238  1.0000
  C   C1475     1.0  0.03674  0.86648  0.33482  1.0000
  C   C1476     1.0  0.03261  0.84838  0.32980  1.0000
  C   C1477     1.0  0.21813  0.82689  0.32262  1.0000
  H   H1192     1.0  0.26097  0.66196  0.38562  1.0000
  H   H1193     1.0  0.14738  0.85530  0.36199  1.0000
  S   S209      1.0  0.09902  0.89490  0.27556  1.0000
  H   H1194     1.0  0.04942  0.88010  0.38807  1.0000
  C   C1478     1.0  0.00124  0.81011  0.26183  1.0000
  C   C1479     1.0  0.32883  0.71606  0.30698  1.0000
  C   C1480     1.0  0.10131  0.84243  0.32088  1.0000
  H   H1195     1.0  0.26357  0.84213  0.31000  1.0000
  H   H1196     1.0  0.02918  0.77661  0.33034  1.0000
  H   H1197     1.0  0.08041  0.82118  0.41689  1.0000
  H   H1198     1.0  0.20922  0.81629  0.31880  1.0000
  C   C1481     1.0  0.47839  0.67818  0.28490  1.0000
  C   C1482     1.0  0.01503  0.73785  0.36192  1.0000
  C   C1483     1.0  0.10930  0.82418  0.42382  1.0000
  C   C1484     1.0  0.46332  0.80230  0.32448  1.0000
  C   C1485     1.0  0.45135  0.79002  0.33682  1.0000
  C   C1486     1.0  0.40790  0.73931  0.31963  1.0000
  H   H1199     1.0  0.46070  0.74827  0.30727  1.0000
  H   H1200     1.0  0.29220  0.83243  0.24614  1.0000
  C   C1487     1.0  0.45955  0.80780  0.30502  1.0000
  C   C1488     1.0  0.47207  0.69786  0.28747  1.0000
  H   H1201     1.0  0.02259  0.79269  0.36079  1.0000
  C   C1489     1.0  0.01044  0.98901  0.25765  1.0000
  H   H1202     1.0  0.99874  0.88153  0.30185  1.0000
  C   C1490     1.0  0.42683  0.72990  0.32169  1.0000
  H   H1203     1.0  0.11889  0.95479  0.33626  1.0000
  H   H1204     1.0  0.04278  0.67312  0.39381  1.0000
  C   C1491     1.0  0.17673  0.98851  0.38408  1.0000
  C   C1492     1.0  0.13600  0.86881  0.33553  1.0000
  H   H1205     1.0  0.37108  0.83144  0.30052  1.0000
  C   C1493     1.0  0.43544  0.78339  0.32978  1.0000
  H   H1206     1.0  0.06917  0.80885  0.31583  1.0000
  H   H1207     1.0  0.41598  0.68205  0.37404  1.0000
  H   H1208     1.0  0.47642  0.66664  0.29675  1.0000
  H   H1209     1.0  0.44908  0.69268  0.25227  1.0000
  C   C1494     1.0  0.20097  0.72450  0.26541  1.0000
  C   C1495     1.0  0.46157  0.68511  0.34824  1.0000
  C   C1496     1.0  0.01775  0.98136  0.30887  1.0000
  C   C1497     1.0  0.41243  0.81540  0.27192  1.0000
  C   C1498     1.0  0.27390  0.66823  0.38837  1.0000
  H   H1210     1.0  0.45434  0.78576  0.35189  1.0000
  C   C1499     1.0  0.00797  0.74087  0.42344  1.0000
  C   C1500     1.0  0.38512  0.67300  0.29680  1.0000
  H   H1211     1.0  0.46900  0.81738  0.29584  1.0000
  H   H1212     1.0  0.01279  0.94360  0.35319  1.0000
  C   C1501     1.0  0.03850  0.76616  0.25374  1.0000
  C   C1502     1.0  0.38029  0.82668  0.28773  1.0000
  C   C1503     1.0  0.45626  0.68499  0.32925  1.0000
  C   C1504     1.0  0.01021  0.80348  0.41791  1.0000
  C   C1505     1.0  0.11057  0.83991  0.25832  1.0000
  C   C1506     1.0  0.04837  0.77928  0.28998  1.0000
  C   C1507     1.0  0.99670  0.73744  0.44160  1.0000
  H   H1213     1.0  0.05890  0.74881  0.28731  1.0000
  C   C1508     1.0  0.12695  0.91734  0.47995  1.0000
  C   C1509     1.0  0.48784  0.67320  0.26683  1.0000
  C   C1510     1.0  0.18924  0.99171  0.34140  1.0000
  C   C1511     1.0  0.24004  0.72460  0.27232  1.0000
  H   H1214     1.0  0.48970  0.69379  0.41851  1.0000
  C   C1512     1.0  0.20891  0.71094  0.27976  1.0000
  C   C1513     1.0  0.13078  0.87703  0.42368  1.0000
  C   C1514     1.0  0.13042  0.87310  0.40438  1.0000
  C   C1515     1.0  0.11303  0.87730  0.39551  1.0000
  C   C1516     1.0  0.09588  0.88503  0.40607  1.0000
  C   C1517     1.0  0.09587  0.88822  0.42577  1.0000
  C   C1518     1.0  0.11361  0.88463  0.43435  1.0000
  P   P50       1.0  0.07308  0.89713  0.43923  1.0000
  C   C1519     1.0  0.05547  0.87934  0.44241  1.0000
  C   C1520     1.0  0.05925  0.86191  0.43345  1.0000
  C   C1521     1.0  0.04477  0.84909  0.43505  1.0000
  C   C1522     1.0  0.02664  0.85331  0.44593  1.0000
  H   H1215     1.0  0.05049  0.81322  0.25866  1.0000
  C   C1523     1.0  0.03731  0.88336  0.45357  1.0000
  C   C1524     1.0  0.06358  0.91853  0.42420  1.0000
  C   C1525     1.0  0.04764  0.91775  0.41346  1.0000
  C   C1526     1.0  0.04159  0.93370  0.40034  1.0000
  C   C1527     1.0  0.05136  0.95055  0.39784  1.0000
  H   H1216     1.0  0.14432  0.87404  0.43052  1.0000
  H   H1217     1.0  0.14367  0.86714  0.39620  1.0000
  H   H1218     1.0  0.11296  0.87500  0.38030  1.0000
  H   H1219     1.0  0.08260  0.88850  0.39886  1.0000
  H   H1220     1.0  0.11446  0.88750  0.44921  1.0000
  H   H1221     1.0  0.07329  0.85805  0.42535  1.0000
  H   H1222     1.0  0.04767  0.83573  0.42802  1.0000
  C   C1528     1.0  0.45179  0.82857  0.26171  1.0000
  H   H1223     1.0  0.99835  0.79545  0.30280  1.0000
  H   H1224     1.0  0.09641  0.98489  0.34146  1.0000
  H   H1225     1.0  0.04017  0.90469  0.41468  1.0000
  H   H1226     1.0  0.02966  0.93275  0.39171  1.0000
  H   H1227     1.0  0.04692  0.96267  0.38729  1.0000
  H   H1228     1.0  0.46887  0.69693  0.35200  1.0000
  C   C1529     1.0  0.44152  0.76872  0.26610  1.0000
  S   S210      1.0  0.00774  0.82010  0.32946  1.0000
  H   H1229     1.0  0.00781  0.91097  0.31452  1.0000
  H   H1230     1.0  0.23465  0.70040  0.29429  1.0000
  C   C1530     1.0  0.26033  0.66883  0.45875  1.0000
  H   H1231     1.0  0.25257  0.79029  0.26535  1.0000
  Fe  Fe108     1.0  0.11520  0.78421  0.25063  1.0000
  C   C1531     1.0  0.17119  0.80300  0.46589  1.0000
  H   H1232     1.0  0.40692  0.82393  0.30147  1.0000
  H   H1233     1.0  0.25955  0.75772  0.28283  1.0000
  C   C1532     1.0  0.13954  0.87270  0.31519  1.0000
  C   C1533     1.0  0.18894  0.94342  0.38218  1.0000
  C   C1534     1.0  0.18597  0.95332  0.36368  1.0000
  P   P51       1.0  0.02912  0.77971  0.27432  1.0000
  H   H1234     1.0  0.04107  0.80929  0.29688  1.0000
  C   C1535     1.0  0.00023  0.93049  0.28924  1.0000
  H   H1235     1.0  0.33244  0.75580  0.36766  1.0000
  C   C1536     1.0  0.11202  0.85944  0.26155  1.0000
  C   C1537     1.0  0.44514  0.78782  0.25820  1.0000
  C   C1538     1.0  0.37406  0.67260  0.35684  1.0000
  H   H1236     1.0  0.21722  0.97596  0.34802  1.0000
  S   S211      1.0  0.21510  0.97580  0.47378  1.0000
  C   C1539     1.0  0.02792  0.67959  0.39776  1.0000
  H   H1237     1.0  0.07988  0.75096  0.41471  1.0000
  H   H1238     1.0  0.48636  0.76882  0.31182  1.0000
  H   H1239     1.0  0.08657  0.74847  0.30696  1.0000
  H   H1240     1.0  0.39984  0.72187  0.27757  1.0000
  C   C1540     1.0  0.06670  0.79565  0.30989  1.0000
  H   H1241     1.0  0.31607  0.70513  0.43187  1.0000
  C   C1541     1.0  0.34370  0.66358  0.46416  1.0000
  C   C1542     1.0  0.02376  0.69998  0.39676  1.0000
  C   C1543     1.0  0.23190  0.73890  0.25842  1.0000
  H   H1242     1.0  0.43275  0.70480  0.28143  1.0000
  H   H1243     1.0  0.09956  0.95751  0.46050  1.0000
  H   H1244     1.0  0.15638  0.80385  0.46178  1.0000
  C   C1544     1.0  0.18597  0.84561  0.37432  1.0000
  C   C1545     1.0  0.18217  0.81145  0.35256  1.0000
  C   C1546     1.0  0.19621  0.79659  0.35944  1.0000
  C   C1547     1.0  0.19282  0.77691  0.36060  1.0000
  C   C1548     1.0  0.17564  0.77189  0.35456  1.0000
  C   C1549     1.0  0.21232  0.73849  0.25486  1.0000
  C   C1550     1.0  0.18789  0.83254  0.39137  1.0000
  C   C1551     1.0  0.18679  0.83963  0.40962  1.0000
  C   C1552     1.0  0.18461  0.85978  0.41095  1.0000
  C   C1553     1.0  0.18321  0.87286  0.39406  1.0000
  C   C1554     1.0  0.18356  0.86588  0.37584  1.0000
  H   H1245     1.0  0.20988  0.80019  0.36375  1.0000
  H   H1246     1.0  0.20372  0.76548  0.36576  1.0000
  H   H1247     1.0  0.17331  0.75660  0.35503  1.0000
  C   C1555     1.0  0.33305  0.73261  0.31482  1.0000
  H   H1248     1.0  0.19036  0.81689  0.39078  1.0000
  H   H1249     1.0  0.18844  0.82952  0.42271  1.0000
  H   H1250     1.0  0.18453  0.86530  0.42499  1.0000
  H   H1251     1.0  0.18185  0.88843  0.39520  1.0000
  H   H1252     1.0  0.18224  0.87631  0.36293  1.0000
  C   C1556     1.0  0.21425  0.81917  0.24724  1.0000
  C   C1557     1.0  0.43151  0.78899  0.31038  1.0000
  C   C1558     1.0  0.07122  0.78178  0.36520  1.0000
  C   C1559     1.0  0.06689  0.92207  0.49089  1.0000
  S   S212      1.0  0.07138  0.83854  0.48081  1.0000
  C   C1560     1.0  0.00950  0.76872  0.28993  1.0000
  C   C1561     1.0  0.23398  0.78122  0.24553  1.0000
  H   H1253     1.0  0.41869  0.68746  0.43741  1.0000
  C   C1562     1.0  0.38987  0.67410  0.39212  1.0000
  C   C1563     1.0  0.22638  0.84050  0.48519  1.0000
  C   C1564     1.0  0.07131  0.75081  0.38571  1.0000
  C   C1565     1.0  0.35696  0.71241  0.33359  1.0000
  C   C1566     1.0  0.99879  0.98964  0.30476  1.0000
  C   C1567     1.0  0.05853  0.76540  0.24654  1.0000
  H   H1254     1.0  0.44135  0.73885  0.26011  1.0000
  C   C1568     1.0  0.99984  0.94751  0.36310  1.0000
  H   H1255     1.0  0.42639  0.85047  0.26270  1.0000
  C   C1569     1.0  0.25208  0.79709  0.46305  1.0000
  C   C1570     1.0  0.25689  0.77856  0.45626  1.0000
  C   C1571     1.0  0.27068  0.77612  0.43989  1.0000
  C   C1572     1.0  0.27980  0.79214  0.43028  1.0000
  C   C1573     1.0  0.27505  0.81062  0.43689  1.0000
  C   C1574     1.0  0.26125  0.81313  0.45320  1.0000
  C   C1575     1.0  0.07956  0.77856  0.31273  1.0000
  H   H1256     1.0  0.36198  0.66597  0.40632  1.0000
  C   C1576     1.0  0.37062  0.66953  0.39242  1.0000
  C   C1577     1.0  0.08394  0.88701  0.47688  1.0000
  Fe  Fe109     1.0  0.14587  0.75331  0.26661  1.0000
  C   C1578     1.0  0.05097  0.79595  0.29877  1.0000
  C   C1579     1.0  0.40059  0.82219  0.28827  1.0000
  P   P52       1.0  0.17509  0.97852  0.36136  1.0000
  C   C1580     1.0  0.30698  0.66398  0.39775  1.0000
  C   C1581     1.0  0.48579  0.70738  0.25401  1.0000
  H   H1257     1.0  0.25524  0.72382  0.27496  1.0000
  H   H1258     1.0  0.35024  0.74373  0.33412  1.0000
  H   H1259     1.0  0.24967  0.76609  0.46337  1.0000
  H   H1260     1.0  0.27393  0.76195  0.43430  1.0000
  H   H1261     1.0  0.29012  0.79039  0.41734  1.0000
  H   H1262     1.0  0.28158  0.82317  0.42897  1.0000
  H   H1263     1.0  0.25752  0.82770  0.45767  1.0000
  C   C1582     1.0  0.04790  0.86508  0.38607  1.0000
  C   C1583     1.0  0.34524  0.73186  0.41908  1.0000
  C   C1584     1.0  0.34158  0.75233  0.41537  1.0000
  P   P53       1.0  0.35064  0.72054  0.44304  1.0000
  C   C1585     1.0  0.34135  0.69691  0.44823  1.0000
  C   C1586     1.0  0.37697  0.71920  0.44299  1.0000
  C   C1587     1.0  0.38912  0.70203  0.43891  1.0000
  C   C1588     1.0  0.40943  0.70102  0.43957  1.0000
  C   C1589     1.0  0.41779  0.71731  0.44369  1.0000
  C   C1590     1.0  0.40590  0.73469  0.44698  1.0000
  C   C1591     1.0  0.38557  0.73570  0.44649  1.0000
  C   C1592     1.0  0.35066  0.68198  0.46062  1.0000
  C   C1593     1.0  0.48871  0.75310  0.31523  1.0000
  H   H1264     1.0  0.41245  0.74725  0.45025  1.0000
  C   C1594     1.0  0.33793  0.73456  0.46203  1.0000
  C   C1595     1.0  0.31880  0.74369  0.46021  1.0000
  S   S213      1.0  0.09959  0.79681  0.48000  1.0000
  H   H1265     1.0  0.06851  0.77315  0.25297  1.0000
  C   C1596     1.0  0.02574  0.75726  0.24402  1.0000
  C   C1597     1.0  0.19316  0.80791  0.48929  1.0000
  C   C1598     1.0  0.18732  0.79645  0.45316  1.0000
  H   H1266     1.0  0.34192  0.76164  0.42683  1.0000
  H   H1267     1.0  0.38298  0.68928  0.43557  1.0000
  H   H1268     1.0  0.08609  0.78544  0.40985  1.0000
  H   H1269     1.0  0.43348  0.71638  0.44464  1.0000
  C   C1599     1.0  0.24036  0.79444  0.25678  1.0000
  H   H1270     1.0  0.37656  0.74926  0.44915  1.0000
  H   H1271     1.0  0.36325  0.68444  0.46764  1.0000
  C   C1600     1.0  0.14974  0.97990  0.35633  1.0000
  H   H1272     1.0  0.31162  0.74264  0.44730  1.0000
  S   S214      1.0  0.14648  0.78515  0.25577  1.0000
  C   C1601     1.0  0.20640  0.79559  0.45846  1.0000
  C   C1602     1.0  0.47618  0.71242  0.27199  1.0000
  H   H1273     1.0  0.01314  0.80153  0.47398  1.0000
  C   C1603     1.0  0.11120  0.98355  0.34574  1.0000
  C   C1604     1.0  0.20210  0.92469  0.34860  1.0000
  C   C1605     1.0  0.20547  0.91517  0.36710  1.0000
  C   C1606     1.0  0.19876  0.92452  0.38384  1.0000
  P   P54       1.0  0.23395  0.80011  0.48398  1.0000
  H   H1274     1.0  0.20714  0.91739  0.33562  1.0000
  H   H1275     1.0  0.21328  0.90058  0.36860  1.0000
  P   P55       1.0  0.36394  0.67150  0.33415  1.0000
  C   C1607     1.0  0.06722  0.95145  0.40846  1.0000
  C   C1608     1.0  0.07345  0.93542  0.42146  1.0000
  H   H1276     1.0  0.10435  0.82588  0.43907  1.0000
  H   H1277     1.0  0.12656  0.79774  0.31547  1.0000
  H   H1278     1.0  0.07894  0.85631  0.38360  1.0000
  C   C1609     1.0  0.06455  0.85161  0.38336  1.0000
  H   H1279     1.0  0.33497  0.68491  0.30649  1.0000
  C   C1610     1.0  0.47412  0.74137  0.31288  1.0000
  H   H1280     1.0  0.07514  0.96429  0.40618  1.0000
  S   S215      1.0  0.09060  0.80684  0.26098  1.0000
  C   C1611     1.0  0.09352  0.83105  0.26547  1.0000
  P   P56       1.0  0.18696  0.83681  0.35053  1.0000
  H   H1281     1.0  0.12513  0.86626  0.25573  1.0000
  C   C1612     1.0  0.14284  0.85263  0.47570  1.0000
  C   C1613     1.0  0.06800  0.76200  0.36797  1.0000
  H   H1282     1.0  0.04195  0.80100  0.41544  1.0000
  C   C1614     1.0  0.01208  0.96849  0.25832  1.0000
  C   C1615     1.0  0.09664  0.87020  0.27229  1.0000
  C   C1616     1.0  0.15051  0.85827  0.34626  1.0000
  H   H1283     1.0  0.33371  0.77667  0.39408  1.0000
  C   C1617     1.0  0.29050  0.69690  0.39049  1.0000
  H   H1284     1.0  0.08628  0.93596  0.42899  1.0000
  C   C1618     1.0  0.04682  0.96726  0.26236  1.0000
  C   C1619     1.0  0.07574  0.90206  0.46383  1.0000
  C   C1620     1.0  0.09571  0.82166  0.41114  1.0000
  C   C1621     1.0  0.16885  0.85167  0.33670  1.0000
  C   C1622     1.0  0.02116  0.80429  0.26414  1.0000
  C   C1623     1.0  0.00453  0.70844  0.40176  1.0000
  H   H1285     1.0  0.30541  0.79985  0.26734  1.0000
  H   H1286     1.0  0.18372  0.95017  0.39545  1.0000
  C   C1624     1.0  0.38354  0.66357  0.31603  1.0000
  C   C1625     1.0  0.33711  0.76092  0.39682  1.0000
  C   C1626     1.0  0.03502  0.81760  0.25770  1.0000
  C   C1627     1.0  0.44504  0.75334  0.25429  1.0000
  H   H1287     1.0  0.14883  0.78245  0.34209  1.0000
  H   H1288     1.0  0.39616  0.67392  0.40578  1.0000
  H   H1289     1.0  0.31982  0.69059  0.39904  1.0000
  H   H1290     1.0  0.01556  0.84319  0.44730  1.0000
  C   C1628     1.0  0.30799  0.75250  0.26581  1.0000
  H   H1291     1.0  0.47567  0.69599  0.49050  1.0000
  H   H1292     1.0  0.43408  0.73191  0.33427  1.0000
  H   H1293     1.0  0.03989  0.84702  0.24565  1.0000
  C   C1629     1.0  0.06261  0.83239  0.37977  1.0000
  C   C1630     1.0  0.21125  0.83872  0.33772  1.0000
  C   C1631     1.0  0.02718  0.84032  0.38190  1.0000
  C   C1632     1.0  0.00204  0.87540  0.34349  1.0000
  P   P57       1.0  0.46040  0.70525  0.31065  1.0000
  C   C1633     1.0  0.11376  0.82771  0.31216  1.0000
  C   C1634     1.0  0.48687  0.69383  0.43424  1.0000
  C   C1635     1.0  0.34652  0.73544  0.47930  1.0000
  H   H1294     1.0  0.06019  0.93131  0.46150  1.0000
  H   H1295     1.0  0.13975  0.82622  0.42679  1.0000
  H   H1296     1.0  0.20648  0.83368  0.24807  1.0000
  C   C1636     1.0  0.39972  0.66601  0.28269  1.0000
  C   C1637     1.0  0.12391  0.96664  0.34261  1.0000
  H   H1297     1.0  0.22085  0.87182  0.48551  1.0000
  C   C1638     1.0  0.02860  0.80185  0.42540  1.0000
  C   C1639     1.0  0.06717  0.91966  0.47101  1.0000
  C   C1640     1.0  0.10783  0.80535  0.34147  1.0000
  C   C1641     1.0  0.11697  0.80915  0.32240  1.0000
  C   C1642     1.0  0.09196  0.83865  0.33981  1.0000
  C   C1643     1.0  0.07648  0.76164  0.30487  1.0000
  H   H1298     1.0  0.11078  0.79100  0.34939  1.0000
  H   H1299     1.0  0.14442  0.97276  0.49034  1.0000
  C   C1644     1.0  0.44051  0.68442  0.24485  1.0000
  C   C1645     1.0  0.10766  0.94803  0.47108  1.0000
  C   C1646     1.0  0.39823  0.73657  0.30365  1.0000
  H   H1300     1.0  0.21896  0.86074  0.35458  1.0000
  P   P58       1.0  0.43844  0.80826  0.27266  1.0000
  C   C1647     1.0  0.30638  0.75176  0.24597  1.0000
  H   H1301     1.0  0.08241  0.85035  0.34615  1.0000
  H   H1302     1.0  0.12088  0.83071  0.29742  1.0000
  C   C1648     1.0  0.10194  0.81924  0.39141  1.0000
  C   C1649     1.0  0.09516  0.82007  0.35030  1.0000
  C   C1650     1.0  0.40110  0.67841  0.37423  1.0000
  P   P59       1.0  0.99958  0.73466  0.40138  1.0000
  H   H1303     1.0  0.47557  0.80756  0.33003  1.0000
  H   H1304     1.0  0.32239  0.75180  0.27085  1.0000
  C   C1651     1.0  0.02297  0.87036  0.45534  1.0000
  H   H1305     1.0  0.19013  0.95104  0.33243  1.0000
  H   H1306     1.0  0.44458  0.87741  0.24621  1.0000
  C   C1652     1.0  0.33657  0.74918  0.38182  1.0000
  H   H1307     1.0  0.41884  0.78404  0.30532  1.0000
  C   C1653     1.0  0.47206  0.82538  0.25574  1.0000
  C   C1654     1.0  0.40384  0.81421  0.25478  1.0000
  C   C1655     1.0  0.00745  0.74867  0.29050  1.0000
  H   H1308     1.0  0.16015  0.86870  0.28970  1.0000
  C   C1656     1.0  0.04381  0.82686  0.37898  1.0000
  C   C1657     1.0  0.22351  0.85180  0.34269  1.0000
  C   C1658     1.0  0.23684  0.82829  0.31254  1.0000
  H   H1309     1.0  0.24229  0.81853  0.30149  1.0000
  C   C1659     1.0  0.19244  0.94373  0.34687  1.0000
  H   H1310     1.0  0.36090  0.72780  0.48152  1.0000
  C   C1660     1.0  0.34101  0.72888  0.38520  1.0000
  C   C1661     1.0  0.03243  0.75325  0.43993  1.0000
  C   C1662     1.0  0.33855  0.69764  0.31254  1.0000
  Fe  Fe110     1.0  0.06706  0.80684  0.48051  1.0000
  C   C1663     1.0  0.34571  0.72029  0.40364  1.0000
  C   C1664     1.0  0.27403  0.68875  0.38635  1.0000
  C   C1665     1.0  0.30703  0.68442  0.39589  1.0000
  C   C1666     1.0  0.06086  0.76194  0.29364  1.0000
  P   P60       1.0  0.08429  0.81545  0.37533  1.0000
  H   H1311     1.0  0.36770  0.71137  0.34397  1.0000
  H   H1312     1.0  0.15414  0.81727  0.34037  1.0000
  C   C1667     1.0  0.24222  0.85315  0.33257  1.0000
  C   C1668     1.0  0.02991  0.80125  0.44566  1.0000
  H   H1313     1.0  0.12202  0.87418  0.34300  1.0000
  C   C1669     1.0  0.33618  0.78956  0.26723  1.0000
  H   H1314     1.0  0.21700  0.84041  0.47370  1.0000
  C   C1670     1.0  0.15756  0.86581  0.30551  1.0000
  H   H1315     1.0  0.45815  0.68378  0.43604  1.0000
  C   C1671     1.0  0.37176  0.82473  0.27081  1.0000
  C   C1672     1.0  0.13551  0.82194  0.39730  1.0000
  C   C1673     1.0  0.12196  0.81949  0.38455  1.0000
  S   S216      1.0  0.11379  0.75254  0.26303  1.0000
  H   H1316     1.0  0.03423  0.89656  0.46092  1.0000
  C   C1674     1.0  0.43625  0.71782  0.30766  1.0000
  H   H1317     1.0  0.09894  0.85687  0.31297  1.0000
  H   H1318     1.0  0.15091  0.82190  0.39200  1.0000
  C   C1675     1.0  0.16180  0.78652  0.34731  1.0000
  H   H1319     1.0  0.06875  0.73550  0.38789  1.0000
  C   C1676     1.0  0.07763  0.75948  0.40078  1.0000
  H   H1320     1.0  0.34917  0.70456  0.40599  1.0000
  C   C1677     1.0  0.24886  0.84147  0.31745  1.0000
  C   C1678     1.0  0.01131  0.74694  0.37932  1.0000
  H   H1321     1.0  0.01270  0.83619  0.38082  1.0000
  H   H1322     1.0  0.11435  0.92454  0.45267  1.0000
  C   C1679     1.0  0.02468  0.76814  0.34400  1.0000
  H   H1323     1.0  0.29407  0.76134  0.47354  1.0000
  C   C1680     1.0  0.32411  0.69359  0.44072  1.0000
  H   H1324     1.0  0.06285  0.75538  0.35637  1.0000
  H   H1325     1.0  0.09206  0.77843  0.32084  1.0000
  C   C1681     1.0  0.20946  0.80124  0.47664  1.0000
  H   H1326     1.0  0.01105  0.97281  0.37118  1.0000
  H   H1327     1.0  0.12726  0.81768  0.36947  1.0000
  H   H1328     1.0  0.21862  0.79074  0.44818  1.0000
  C   C1682     1.0  0.31718  0.67515  0.44440  1.0000
  C   C1683     1.0  0.11595  0.92941  0.46666  1.0000
  S   S217      1.0  0.12782  0.84104  0.46316  1.0000
  H   H1329     1.0  0.04190  0.81229  0.37595  1.0000
  H   H1330     1.0  0.06819  0.79040  0.35155  1.0000
  H   H1331     1.0  0.29226  0.75578  0.29433  1.0000
  C   C1684     1.0  0.49155  0.68772  0.25141  1.0000
  C   C1685     1.0  0.07848  0.79036  0.37989  1.0000
  H   H1332     1.0  0.43525  0.76565  0.28105  1.0000
  H   H1333     1.0  0.18591  0.84991  0.30835  1.0000
  C   C1686     1.0  0.17216  0.85526  0.31618  1.0000
  C   C1687     1.0  0.02104  0.77722  0.36124  1.0000
  H   H1334     1.0  0.30411  0.67253  0.43825  1.0000
  H   H1335     1.0  0.25175  0.86296  0.33679  1.0000
  H   H1336     1.0  0.31780  0.71747  0.29682  1.0000
  C   C1688     1.0  0.08117  0.77918  0.39792  1.0000
  H   H1337     1.0  0.40218  0.68099  0.34288  1.0000
  C   C1689     1.0  0.01298  0.66754  0.40408  1.0000
  C   C1690     1.0  0.47733  0.72089  0.31699  1.0000
  H   H1338     1.0  0.47220  0.72772  0.27395  1.0000
  C   C1691     1.0  0.22848  0.71091  0.28313  1.0000
  H   H1339     1.0  0.18572  0.72467  0.26304  1.0000
  C   C1692     1.0  0.35250  0.69562  0.32610  1.0000
  C   C1693     1.0  0.29107  0.75472  0.27900  1.0000
  C   C1694     1.0  0.22869  0.85838  0.49170  1.0000
  H   H1340     1.0  0.12253  0.83181  0.25008  1.0000
  H   H1341     1.0  0.42600  0.77409  0.33945  1.0000
  C   C1695     1.0  0.27254  0.75598  0.27239  1.0000
  H   H1342     1.0  0.32525  0.74683  0.31086  1.0000
  H   H1343     1.0  0.40063  0.74862  0.33047  1.0000
  C   C1696     1.0  0.44358  0.80119  0.29779  1.0000
  C   C1697     1.0  0.34717  0.73081  0.32801  1.0000
  S   S218      1.0  0.05372  0.79771  0.45421  1.0000
  H   H1344     1.0  0.12830  0.88106  0.30693  1.0000
  H   H1345     1.0  0.04614  0.75965  0.43933  1.0000
  H   H1346     1.0  0.37513  0.68567  0.29255  1.0000
  C   C1698     1.0  0.02184  0.74841  0.34434  1.0000
  Fe  Fe111     1.0  0.10319  0.82806  0.48232  1.0000
  H   H1347     1.0  0.03530  0.75078  0.40917  1.0000
  C   C1699     1.0  0.11030  0.95458  0.48888  1.0000
  C   C1700     1.0  0.99697  0.89571  0.29331  1.0000
  C   C1701     1.0  0.14306  0.96476  0.34790  1.0000
  C   C1702     1.0  0.30873  0.75419  0.47513  1.0000
  C   C1703     1.0  0.40733  0.72415  0.28993  1.0000
  C   C1704     1.0  0.39325  0.67769  0.35662  1.0000
  H   H1348     1.0  0.34014  0.71974  0.37373  1.0000
  C   C1705     1.0  0.42616  0.71462  0.29204  1.0000
  C   C1706     1.0  0.03049  0.95770  0.26044  1.0000
  C   C1707     1.0  0.01428  0.76671  0.37879  1.0000
  H   H1349     1.0  0.35597  0.82770  0.27056  1.0000
  H   H1350     1.0  0.23547  0.82332  0.26638  1.0000
  C   C1708     1.0  0.01246  0.80216  0.45836  1.0000
  C   C1709     1.0  0.04499  0.98765  0.26192  1.0000
  H   H1351     1.0  0.14809  0.98111  0.39742  1.0000
  H   H1352     1.0  0.18506  0.79215  0.43910  1.0000
  H   H1353     1.0  0.13366  0.90305  0.47633  1.0000
  H   H1354     1.0  0.01008  0.75859  0.24858  1.0000
  H   H1355     1.0  0.47989  0.81089  0.25806  1.0000
  H   H1356     1.0  0.20565  0.74895  0.24404  1.0000
  C   C1710     1.0  0.23059  0.81333  0.25751  1.0000
  H   H1357     1.0  0.03224  0.94188  0.26088  1.0000
  C   C1711     1.0  0.16135  0.98733  0.39933  1.0000
  H   H1358     1.0  0.07179  0.99305  0.37667  1.0000
  H   H1359     1.0  0.10385  0.96906  0.49214  1.0000
  C   C1712     1.0  0.44200  0.84751  0.25844  1.0000
  C   C1713     1.0  0.00912  0.84265  0.24847  1.0000
  C   C1714     1.0  0.27074  0.75495  0.25251  1.0000
  H   H1360     1.0  0.01198  0.72288  0.36171  1.0000
  C   C1715     1.0  0.20975  0.98724  0.33840  1.0000
  H   H1361     1.0  0.00433  0.94316  0.29498  1.0000
  H   H1362     1.0  0.06084  0.95885  0.26463  1.0000
  C   C1716     1.0  0.03241  0.99345  0.30978  1.0000
  H   H1363     1.0  0.40089  0.67324  0.26784  1.0000
  C   C1717     1.0  0.49547  0.71240  0.32299  1.0000
  H   H1364     1.0  0.44162  0.66932  0.31088  1.0000
  H   H1365     1.0  0.26187  0.67685  0.48747  1.0000
  C   C1718     1.0  0.17413  0.80871  0.48393  1.0000
  C   C1719     1.0  0.26670  0.66590  0.47746  1.0000
  C   C1720     1.0  0.02902  0.83677  0.25015  1.0000
  C   C1721     1.0  0.31757  0.75539  0.49207  1.0000
  C   C1722     1.0  0.48225  0.84082  0.24631  1.0000
  H   H1366     1.0  0.46280  0.66940  0.37700  1.0000
  C   C1723     1.0  0.99788  0.85785  0.33756  1.0000
  C   C1724     1.0  0.45227  0.86290  0.24912  1.0000
  C   C1725     1.0  0.02074  0.75058  0.45779  1.0000
  H   H1367     1.0  0.02543  0.75501  0.47089  1.0000
  C   C1726     1.0  0.16343  0.99301  0.41767  1.0000
  H   H1368     1.0  0.15178  0.99129  0.42957  1.0000
  C   C1727     1.0  0.00295  0.74254  0.45867  1.0000
  C   C1728     1.0  0.99887  0.96391  0.37329  1.0000
  C   C1729     1.0  0.00215  0.91226  0.30040  1.0000
  C   C1730     1.0  0.45788  0.66957  0.36266  1.0000
  C   C1731     1.0  0.32595  0.66077  0.34473  1.0000
  C   C1732     1.0  0.44493  0.66398  0.24554  1.0000
  H   H1369     1.0  0.28222  0.79966  0.24332  1.0000
  H   H1370     1.0  0.17537  0.69904  0.24349  1.0000
  H   H1371     1.0  0.20776  0.77629  0.51203  1.0000
  Fe  Fe112     1.0  0.26502  0.88979  0.71590  1.0000
  S   S219      1.0  0.28332  0.91310  0.72358  1.0000
  Fe  Fe113     1.0  0.25985  0.85023  0.70235  1.0000
  S   S220      1.0  0.22709  0.85373  0.70900  1.0000
  S   S221      1.0  0.27338  0.82094  0.69293  1.0000
  Fe  Fe114     1.0  0.22854  0.88459  0.69485  1.0000
  S   S222      1.0  0.20886  0.89626  0.67056  1.0000
  C   C1733     1.0  0.09344  0.97530  0.54331  1.0000
  S   S223      1.0  0.26148  0.88042  0.68631  1.0000
  S   S224      1.0  0.26575  0.85915  0.73122  1.0000
  C   C1734     1.0  0.21993  0.67212  0.64480  1.0000
  S   S225      1.0  0.41830  0.69326  0.53437  1.0000
  C   C1735     1.0  0.12152  0.94262  0.50224  1.0000
  Fe  Fe115     1.0  0.38581  0.69410  0.53174  1.0000
  S   S226      1.0  0.36392  0.72094  0.53639  1.0000
  H   H1372     1.0  0.28404  0.68389  0.71926  1.0000
  H   H1373     1.0  0.16723  0.86510  0.68555  1.0000
  H   H1374     1.0  0.26951  0.77994  0.71198  1.0000
  Fe  Fe116     1.0  0.05945  0.95304  0.63069  1.0000
  S   S227      1.0  0.07189  0.95112  0.59930  1.0000
  S   S228      1.0  0.02686  0.96481  0.63401  1.0000
  Fe  Fe117     1.0  0.09931  0.93582  0.64583  1.0000
  S   S229      1.0  0.11395  0.93383  0.61538  1.0000
  S   S230      1.0  0.11660  0.92520  0.67226  1.0000
  Fe  Fe118     1.0  0.09764  0.96327  0.60829  1.0000
  C   C1736     1.0  0.28102  0.69801  0.71086  1.0000
  Fe  Fe119     1.0  0.08672  0.92167  0.60929  1.0000
  S   S231      1.0  0.09499  0.89472  0.59296  1.0000
  S   S232      1.0  0.08473  0.96677  0.63921  1.0000
  S   S233      1.0  0.07247  0.92213  0.64035  1.0000
  C   C1737     1.0  0.23851  0.77956  0.50233  1.0000
  H   H1375     1.0  0.35324  0.88576  0.72404  1.0000
  H   H1376     1.0  0.19932  0.85434  0.66377  1.0000
  Fe  Fe120     1.0  0.09577  0.79408  0.51288  1.0000
  S   S234      1.0  0.10167  0.82480  0.51491  1.0000
  S   S235      1.0  0.11262  0.76954  0.53140  1.0000
  Fe  Fe121     1.0  0.06937  0.83276  0.51377  1.0000
  S   S236      1.0  0.05280  0.85579  0.53248  1.0000
  C   C1738     1.0  0.33747  0.69929  0.60143  1.0000
  H   H1377     1.0  0.17014  0.88915  0.56569  1.0000
  S   S237      1.0  0.06266  0.80139  0.51377  1.0000
  C   C1739     1.0  0.30795  0.91178  0.72980  1.0000
  Fe  Fe122     1.0  0.25379  0.73926  0.58371  1.0000
  S   S238      1.0  0.22153  0.73465  0.58891  1.0000
  S   S239      1.0  0.27450  0.71470  0.57080  1.0000
  Fe  Fe123     1.0  0.24725  0.77777  0.60229  1.0000
  S   S240      1.0  0.21488  0.77597  0.60920  1.0000
  S   S241      1.0  0.25940  0.80564  0.60713  1.0000
  Fe  Fe124     1.0  0.22331  0.74407  0.61860  1.0000
  S   S242      1.0  0.20919  0.73095  0.64770  1.0000
  Fe  Fe125     1.0  0.21565  0.76686  0.57898  1.0000
  S   S243      1.0  0.19478  0.78424  0.55837  1.0000
  S   S244      1.0  0.25578  0.74660  0.61423  1.0000
  S   S245      1.0  0.24782  0.77070  0.57129  1.0000
  C   C1740     1.0  0.13568  0.77336  0.53870  1.0000
  C   C1741     1.0  0.14508  0.75934  0.55201  1.0000
  C   C1742     1.0  0.16331  0.76220  0.55809  1.0000
  C   C1743     1.0  0.17218  0.77925  0.55107  1.0000
  C   C1744     1.0  0.16283  0.79313  0.53770  1.0000
  C   C1745     1.0  0.14479  0.79017  0.53148  1.0000
  H   H1378     1.0  0.13822  0.74623  0.55764  1.0000
  H   H1379     1.0  0.17040  0.75130  0.56827  1.0000
  H   H1380     1.0  0.16953  0.80636  0.53219  1.0000
  H   H1381     1.0  0.13795  0.80095  0.52106  1.0000
  C   C1746     1.0  0.08316  0.88591  0.57489  1.0000
  C   C1747     1.0  0.06338  0.89151  0.57221  1.0000
  C   C1748     1.0  0.05431  0.88244  0.55892  1.0000
  C   C1749     1.0  0.06494  0.86782  0.54815  1.0000
  C   C1750     1.0  0.08485  0.86280  0.55045  1.0000
  C   C1751     1.0  0.09386  0.87176  0.56372  1.0000
  H   H1382     1.0  0.05493  0.90234  0.58080  1.0000
  H   H1383     1.0  0.03889  0.88648  0.55726  1.0000
  H   H1384     1.0  0.09328  0.85168  0.54237  1.0000
  H   H1385     1.0  0.10920  0.86750  0.56555  1.0000
  C   C1752     1.0  0.33929  0.71891  0.54670  1.0000
  C   C1753     1.0  0.32658  0.73603  0.54972  1.0000
  C   C1754     1.0  0.30681  0.73498  0.55750  1.0000
  C   C1755     1.0  0.29949  0.71676  0.56201  1.0000
  C   C1756     1.0  0.31220  0.69964  0.55902  1.0000
  C   C1757     1.0  0.33206  0.70069  0.55173  1.0000
  H   H1386     1.0  0.33208  0.75019  0.54610  1.0000
  H   H1387     1.0  0.29719  0.74826  0.55978  1.0000
  H   H1388     1.0  0.30674  0.68547  0.56249  1.0000
  H   H1389     1.0  0.34173  0.68739  0.54986  1.0000
  C   C1758     1.0  0.16691  0.95994  0.64787  1.0000
  H   H1390     1.0  0.13199  0.85204  0.68616  1.0000
  C   C1759     1.0  0.21309  0.70537  0.65387  1.0000
  C   C1760     1.0  0.21769  0.69250  0.63942  1.0000
  H   H1391     1.0  0.06014  0.93556  0.49645  1.0000
  H   H1392     1.0  0.21925  0.69824  0.62411  1.0000
  C   C1761     1.0  0.20616  0.83206  0.61419  1.0000
  C   C1762     1.0  0.27001  0.81670  0.66894  1.0000
  C   C1763     1.0  0.26724  0.83231  0.65435  1.0000
  C   C1764     1.0  0.26481  0.82864  0.63528  1.0000
  C   C1765     1.0  0.26392  0.80946  0.63093  1.0000
  C   C1766     1.0  0.26676  0.79381  0.64549  1.0000
  C   C1767     1.0  0.27025  0.79742  0.66433  1.0000
  H   H1393     1.0  0.26739  0.84718  0.65766  1.0000
  H   H1394     1.0  0.26338  0.84076  0.62394  1.0000
  H   H1395     1.0  0.26643  0.77895  0.64221  1.0000
  H   H1396     1.0  0.27259  0.78529  0.67549  1.0000
  C   C1768     1.0  0.18302  0.90349  0.67169  1.0000
  C   C1769     1.0  0.17110  0.90561  0.68936  1.0000
  C   C1770     1.0  0.15079  0.91189  0.68930  1.0000
  C   C1771     1.0  0.14209  0.91616  0.67162  1.0000
  C   C1772     1.0  0.15396  0.91362  0.65399  1.0000
  C   C1773     1.0  0.17427  0.90747  0.65407  1.0000
  H   H1397     1.0  0.17760  0.90278  0.70305  1.0000
  H   H1398     1.0  0.14181  0.91381  0.70303  1.0000
  H   H1399     1.0  0.14758  0.91687  0.64030  1.0000
  H   H1400     1.0  0.18341  0.90610  0.64038  1.0000
  C   C1774     1.0  0.29225  0.68250  0.61435  1.0000
  C   C1775     1.0  0.24112  0.85898  0.50611  1.0000
  C   C1776     1.0  0.32248  0.89680  0.72456  1.0000
  H   H1401     1.0  0.26398  0.69956  0.61370  1.0000
  C   C1777     1.0  0.23660  0.83474  0.56483  1.0000
  C   C1778     1.0  0.11774  0.88306  0.64735  1.0000
  H   H1402     1.0  0.31878  0.88523  0.71687  1.0000
  C   C1779     1.0  0.49337  0.88743  0.71821  1.0000
  S   S246      1.0  0.11051  0.98657  0.58703  1.0000
  H   H1403     1.0  0.12088  0.85872  0.49972  1.0000
  H   H1404     1.0  0.16549  0.89456  0.61305  1.0000
  H   H1405     1.0  0.19516  0.81251  0.50331  1.0000
  C   C1780     1.0  0.20193  0.71055  0.73477  1.0000
  H   H1406     1.0  0.27864  0.67432  0.67060  1.0000
  H   H1407     1.0  0.14223  0.87676  0.51597  1.0000
  H   H1408     1.0  0.25837  0.70813  0.73254  1.0000
  C   C1781     1.0  0.08657  0.94257  0.53915  1.0000
  H   H1409     1.0  0.25648  0.81046  0.51434  1.0000
  C   C1782     1.0  0.33642  0.74598  0.49415  1.0000
  H   H1410     1.0  0.21058  0.93403  0.56760  1.0000
  C   C1783     1.0  0.22310  0.73679  0.73055  1.0000
  H   H1411     1.0  0.20744  0.70766  0.68489  1.0000
  S   S247      1.0  0.23210  0.89647  0.72303  1.0000
  C   C1784     1.0  0.24604  0.74713  0.53012  1.0000
  H   H1412     1.0  0.23364  0.84459  0.60954  1.0000
  H   H1413     1.0  0.23621  0.95333  0.70528  1.0000
  C   C1785     1.0  0.18679  0.83667  0.64540  1.0000
  H   H1414     1.0  0.48134  0.89247  0.70949  1.0000
  C   C1786     1.0  0.22290  0.77074  0.51358  1.0000
  C   C1787     1.0  0.06722  0.94673  0.54749  1.0000
  C   C1788     1.0  0.49423  0.93864  0.73356  1.0000
  P   P61       1.0  0.32921  0.66078  0.61494  1.0000
  H   H1415     1.0  0.05724  0.93549  0.54955  1.0000
  C   C1789     1.0  0.18294  0.93398  0.58519  1.0000
  C   C1790     1.0  0.25152  0.92413  0.55645  1.0000
  C   C1791     1.0  0.14315  0.97975  0.53855  1.0000
  C   C1792     1.0  0.16508  0.77451  0.65517  1.0000
  H   H1416     1.0  0.06947  0.99353  0.55706  1.0000
  C   C1793     1.0  0.15900  0.92913  0.53395  1.0000
  C   C1794     1.0  0.18799  0.98235  0.61807  1.0000
  H   H1417     1.0  0.13741  0.97405  0.55315  1.0000
  H   H1418     1.0  0.29024  0.68816  0.49347  1.0000
  H   H1419     1.0  0.41880  0.89493  0.72616  1.0000
  H   H1420     1.0  0.18818  0.83571  0.73845  1.0000
  C   C1795     1.0  0.30583  0.67152  0.62609  1.0000
  H   H1421     1.0  0.31081  0.96148  0.71416  1.0000
  H   H1422     1.0  0.24293  0.87288  0.51105  1.0000
  C   C1796     1.0  0.34207  0.89717  0.72861  1.0000
  C   C1797     1.0  0.21769  0.85079  0.63711  1.0000
  H   H1423     1.0  0.26554  0.94991  0.54440  1.0000
  H   H1424     1.0  0.10760  0.88018  0.67808  1.0000
  C   C1798     1.0  0.07409  0.97943  0.55168  1.0000
  C   C1799     1.0  0.23630  0.82299  0.49326  1.0000
  H   H1425     1.0  0.24420  0.96654  0.57336  1.0000
  C   C1800     1.0  0.20094  0.84787  0.65010  1.0000
  C   C1801     1.0  0.25702  0.93858  0.54149  1.0000
  C   C1802     1.0  0.24559  0.97580  0.58458  1.0000
  C   C1803     1.0  0.22669  0.75461  0.52740  1.0000
  H   H1426     1.0  0.34610  0.69909  0.50829  1.0000
  C   C1804     1.0  0.26634  0.71177  0.71830  1.0000
  C   C1805     1.0  0.18337  0.81689  0.71711  1.0000
  H   H1427     1.0  0.16601  0.93812  0.52178  1.0000
  H   H1428     1.0  0.26157  0.92212  0.65672  1.0000
  H   H1429     1.0  0.29627  0.72427  0.66800  1.0000
  C   C1806     1.0  0.28787  0.72074  0.68202  1.0000
  H   H1430     1.0  0.34294  0.78019  0.72842  1.0000
  C   C1807     1.0  0.13123  0.87595  0.63248  1.0000
  H   H1431     1.0  0.39331  0.68451  0.58893  1.0000
  C   C1808     1.0  0.17111  0.79302  0.65566  1.0000
  C   C1809     1.0  0.29184  0.70252  0.69277  1.0000
  C   C1810     1.0  0.27492  0.66301  0.54121  1.0000
  P   P62       1.0  0.12442  0.95118  0.52532  1.0000
  C   C1811     1.0  0.37774  0.68869  0.59264  1.0000
  H   H1432     1.0  0.31446  0.71095  0.49500  1.0000
  C   C1812     1.0  0.18307  0.83497  0.72434  1.0000
  C   C1813     1.0  0.13002  0.92046  0.55526  1.0000
  C   C1814     1.0  0.24313  0.94885  0.64939  1.0000
  C   C1815     1.0  0.34981  0.71343  0.59309  1.0000
  C   C1816     1.0  0.31169  0.97714  0.71176  1.0000
  C   C1817     1.0  0.17532  0.90294  0.60288  1.0000
  C   C1818     1.0  0.34514  0.67960  0.60531  1.0000
  C   C1819     1.0  0.15736  0.80884  0.66067  1.0000
  P   P63       1.0  0.23002  0.89338  0.57307  1.0000
  C   C1820     1.0  0.24603  0.89013  0.59248  1.0000
  C   C1821     1.0  0.23863  0.89343  0.61184  1.0000
  C   C1822     1.0  0.25114  0.89070  0.62666  1.0000
  C   C1823     1.0  0.27111  0.88464  0.62237  1.0000
  C   C1824     1.0  0.27867  0.88165  0.60314  1.0000
  C   C1825     1.0  0.26624  0.88456  0.58822  1.0000
  C   C1826     1.0  0.20625  0.90487  0.58212  1.0000
  C   C1827     1.0  0.36988  0.70810  0.58850  1.0000
  P   P64       1.0  0.16530  0.83251  0.66239  1.0000
  H   H1433     1.0  0.19119  0.95993  0.66452  1.0000
  C   C1828     1.0  0.14795  0.87018  0.50272  1.0000
  C   C1829     1.0  0.19329  0.89388  0.59497  1.0000
  H   H1434     1.0  0.22466  0.89974  0.53085  1.0000
  H   H1435     1.0  0.22325  0.89807  0.61577  1.0000
  H   H1436     1.0  0.24524  0.89309  0.64158  1.0000
  H   H1437     1.0  0.28070  0.88221  0.63397  1.0000
  H   H1438     1.0  0.29417  0.87695  0.59984  1.0000
  H   H1439     1.0  0.27234  0.88222  0.57338  1.0000
  H   H1440     1.0  0.10714  0.89547  0.64396  1.0000
  H   H1441     1.0  0.30336  0.69192  0.68711  1.0000
  H   H1442     1.0  0.14473  0.96212  0.62802  1.0000
  H   H1443     1.0  0.21453  0.74821  0.53631  1.0000
  H   H1444     1.0  0.19725  0.87843  0.59919  1.0000
  C   C1830     1.0  0.22496  0.80025  0.68735  1.0000
  C   C1831     1.0  0.22200  0.79451  0.66933  1.0000
  C   C1832     1.0  0.22435  0.77464  0.66654  1.0000
  C   C1833     1.0  0.23047  0.76055  0.68146  1.0000
  C   C1834     1.0  0.23466  0.76630  0.69918  1.0000
  C   C1835     1.0  0.23088  0.78619  0.70239  1.0000
  P   P65       1.0  0.24396  0.74812  0.71783  1.0000
  C   C1836     1.0  0.26212  0.73005  0.70750  1.0000
  C   C1837     1.0  0.25116  0.84166  0.51412  1.0000
  C   C1838     1.0  0.15912  0.96587  0.63009  1.0000
  C   C1839     1.0  0.31775  0.69556  0.49982  1.0000
  C   C1840     1.0  0.33553  0.68890  0.50734  1.0000
  S   S248      1.0  0.18088  0.88851  0.50318  1.0000
  H   H1445     1.0  0.22338  0.81568  0.68942  1.0000
  H   H1446     1.0  0.21844  0.80549  0.65736  1.0000
  H   H1447     1.0  0.22201  0.77013  0.65259  1.0000
  H   H1448     1.0  0.23242  0.74522  0.67891  1.0000
  H   H1449     1.0  0.23315  0.79104  0.71619  1.0000
  C   C1841     1.0  0.25014  0.93634  0.68237  1.0000
  C   C1842     1.0  0.17691  0.85224  0.71302  1.0000
  C   C1843     1.0  0.07478  0.90681  0.50377  1.0000
  H   H1450     1.0  0.17713  0.86631  0.71840  1.0000
  H   H1451     1.0  0.22643  0.71261  0.71268  1.0000
  H   H1452     1.0  0.30983  0.76347  0.50370  1.0000
  C   C1844     1.0  0.24868  0.82369  0.50783  1.0000
  C   C1845     1.0  0.23817  0.95219  0.68966  1.0000
  H   H1453     1.0  0.37879  0.78211  0.72727  1.0000
  C   C1846     1.0  0.20837  0.97859  0.53334  1.0000
  H   H1454     1.0  0.19687  0.84886  0.53984  1.0000
  C   C1847     1.0  0.08342  0.88936  0.49673  1.0000
  C   C1848     1.0  0.49612  0.89703  0.73431  1.0000
  H   H1455     1.0  0.19849  0.69684  0.73056  1.0000
  H   H1456     1.0  0.17582  0.76240  0.65124  1.0000
  H   H1457     1.0  0.45782  0.95163  0.71940  1.0000
  H   H1458     1.0  0.08913  0.87740  0.50683  1.0000
  C   C1849     1.0  0.34744  0.91239  0.73807  1.0000
  C   C1850     1.0  0.31319  0.92671  0.73974  1.0000
  C   C1851     1.0  0.21152  0.86812  0.55423  1.0000
  C   C1852     1.0  0.26945  0.68805  0.64315  1.0000
  C   C1853     1.0  0.27422  0.69082  0.62286  1.0000
  C   C1854     1.0  0.06095  0.96521  0.55367  1.0000
  C   C1855     1.0  0.11798  0.87431  0.66661  1.0000
  C   C1856     1.0  0.27824  0.78267  0.74014  1.0000
  C   C1857     1.0  0.30647  0.98873  0.72725  1.0000
  C   C1858     1.0  0.21325  0.98395  0.49760  1.0000
  H   H1459     1.0  0.20506  0.96891  0.54652  1.0000
  C   C1859     1.0  0.27319  0.73455  0.68942  1.0000
  H   H1460     1.0  0.14071  0.75714  0.65959  1.0000
  S   S249      1.0  0.38256  0.66512  0.54926  1.0000
  H   H1461     1.0  0.20553  0.95692  0.51389  1.0000
  C   C1860     1.0  0.28262  0.67678  0.65492  1.0000
  H   H1462     1.0  0.24508  0.94710  0.63393  1.0000
  H   H1463     1.0  0.30198  0.98165  0.74162  1.0000
  H   H1464     1.0  0.16334  0.98231  0.60164  1.0000
  C   C1861     1.0  0.01727  0.98967  0.63617  1.0000
  H   H1465     1.0  0.21930  0.97849  0.68279  1.0000
  H   H1466     1.0  0.21223  0.67171  0.69441  1.0000
  H   H1467     1.0  0.26074  0.84214  0.52535  1.0000
  C   C1862     1.0  0.21378  0.67742  0.67909  1.0000
  H   H1468     1.0  0.17843  0.82081  0.62293  1.0000
  C   C1863     1.0  0.13872  0.93244  0.53954  1.0000
  H   H1469     1.0  0.13838  0.91418  0.50766  1.0000
  C   C1864     1.0  0.22091  0.83321  0.55426  1.0000
  H   H1470     1.0  0.17837  0.80193  0.69305  1.0000
  C   C1865     1.0  0.00657  0.97248  0.68360  1.0000
  H   H1471     1.0  0.15847  0.95180  0.65964  1.0000
  H   H1472     1.0  0.25205  0.85347  0.57834  1.0000
  C   C1866     1.0  0.22709  0.86984  0.56511  1.0000
  H   H1473     1.0  0.13464  0.89541  0.57654  1.0000
  C   C1867     1.0  0.14064  0.83909  0.54732  1.0000
  C   C1868     1.0  0.15297  0.85034  0.55479  1.0000
  C   C1869     1.0  0.15336  0.84955  0.57506  1.0000
  C   C1870     1.0  0.14101  0.83797  0.58782  1.0000
  C   C1871     1.0  0.12818  0.82711  0.58037  1.0000
  C   C1872     1.0  0.12839  0.82742  0.56003  1.0000
  P   P66       1.0  0.11277  0.81164  0.59678  1.0000
  C   C1873     1.0  0.12689  0.78854  0.60366  1.0000
  C   C1874     1.0  0.10293  0.82390  0.61811  1.0000
  C   C1875     1.0  0.09770  0.81310  0.63613  1.0000
  C   C1876     1.0  0.08873  0.82269  0.65216  1.0000
  C   C1877     1.0  0.08466  0.84308  0.65022  1.0000
  C   C1878     1.0  0.08952  0.85387  0.63225  1.0000
  C   C1879     1.0  0.09881  0.84437  0.61636  1.0000
  C   C1880     1.0  0.11731  0.77213  0.61175  1.0000
  C   C1881     1.0  0.14756  0.78669  0.60077  1.0000
  C   C1882     1.0  0.09193  0.80815  0.58447  1.0000
  C   C1883     1.0  0.09202  0.79146  0.57469  1.0000
  C   C1884     1.0  0.07587  0.78898  0.56510  1.0000
  C   C1885     1.0  0.05974  0.80329  0.56482  1.0000
  C   C1886     1.0  0.05979  0.82018  0.57402  1.0000
  C   C1887     1.0  0.07580  0.82265  0.58377  1.0000
  H   H1474     1.0  0.14065  0.83921  0.53165  1.0000
  H   H1475     1.0  0.16222  0.85956  0.54479  1.0000
  H   H1476     1.0  0.16325  0.85781  0.58092  1.0000
  H   H1477     1.0  0.14147  0.83736  0.60346  1.0000
  H   H1478     1.0  0.11912  0.81866  0.55392  1.0000
  H   H1479     1.0  0.07749  0.85057  0.66249  1.0000
  H   H1480     1.0  0.08593  0.86966  0.63048  1.0000
  H   H1481     1.0  0.10215  0.85302  0.60250  1.0000
  H   H1482     1.0  0.10140  0.77311  0.61377  1.0000
  H   H1483     1.0  0.15549  0.79880  0.59404  1.0000
  H   H1484     1.0  0.10469  0.78057  0.57398  1.0000
  H   H1485     1.0  0.07614  0.77619  0.55736  1.0000
  H   H1486     1.0  0.04744  0.80160  0.55700  1.0000
  H   H1487     1.0  0.04764  0.83166  0.57308  1.0000
  H   H1488     1.0  0.07563  0.83616  0.59024  1.0000
  C   C1888     1.0  0.30793  0.66250  0.50562  1.0000
  C   C1889     1.0  0.18933  0.82912  0.62714  1.0000
  H   H1489     1.0  0.40596  0.92699  0.71008  1.0000
  C   C1890     1.0  0.14875  0.75258  0.61412  1.0000
  C   C1891     1.0  0.31831  0.98567  0.69315  1.0000
  C   C1892     1.0  0.23983  0.85296  0.57006  1.0000
  H   H1490     1.0  0.12073  0.74156  0.62294  1.0000
  H   H1491     1.0  0.27070  0.74877  0.68111  1.0000
  H   H1492     1.0  0.18584  0.91112  0.53868  1.0000
  H   H1493     1.0  0.19556  0.99165  0.60656  1.0000
  C   C1893     1.0  0.36548  0.67449  0.60099  1.0000
  H   H1494     1.0  0.32243  0.97662  0.68123  1.0000
  H   H1495     1.0  0.20171  0.88080  0.54983  1.0000
  H   H1496     1.0  0.24624  0.82173  0.56910  1.0000
  C   C1894     1.0  0.23137  0.96506  0.65654  1.0000
  H   H1497     1.0  0.34368  0.72845  0.58955  1.0000
  C   C1895     1.0  0.20858  0.84996  0.54868  1.0000
  H   H1498     1.0  0.42563  0.95533  0.70682  1.0000
  C   C1896     1.0  0.42051  0.92513  0.71500  1.0000
  H   H1499     1.0  0.37926  0.71897  0.58135  1.0000
  H   H1500     1.0  0.22877  0.85898  0.64114  1.0000
  C   C1897     1.0  0.36956  0.78235  0.74112  1.0000
  H   H1501     1.0  0.08460  0.81430  0.66600  1.0000
  C   C1898     1.0  0.17032  0.91370  0.54350  1.0000
  Fe  Fe126     1.0  0.42354  0.67821  0.50643  1.0000
  C   C1899     1.0  0.22035  0.84280  0.61926  1.0000
  C   C1900     1.0  0.22873  0.96646  0.67683  1.0000
  C   C1901     1.0  0.25250  0.93459  0.66228  1.0000
  H   H1502     1.0  0.20845  0.82569  0.60039  1.0000
  C   C1902     1.0  0.13851  0.97201  0.52198  1.0000
  C   C1903     1.0  0.21109  0.69777  0.67369  1.0000
  C   C1904     1.0  0.12821  0.75423  0.61696  1.0000
  C   C1905     1.0  0.43158  0.94105  0.71313  1.0000
  H   H1503     1.0  0.23451  0.92523  0.50482  1.0000
  C   C1906     1.0  0.16965  0.97712  0.61521  1.0000
  H   H1504     1.0  0.15727  0.73870  0.61794  1.0000
  C   C1907     1.0  0.21796  0.71945  0.72477  1.0000
  C   C1908     1.0  0.24009  0.90965  0.55284  1.0000
  C   C1909     1.0  0.14142  0.90486  0.56466  1.0000
  H   H1505     1.0  0.25753  0.92537  0.69232  1.0000
  C   C1910     1.0  0.15838  0.76881  0.60603  1.0000
  H   H1506     1.0  0.11453  0.92287  0.56025  1.0000
  H   H1507     1.0  0.17428  0.76743  0.60332  1.0000
  H   H1508     1.0  0.21846  0.81908  0.55018  1.0000
  C   C1911     1.0  0.23407  0.91010  0.53404  1.0000
  H   H1509     1.0  0.10020  0.79731  0.63778  1.0000
  H   H1510     1.0  0.25566  0.92474  0.57098  1.0000
  C   C1912     1.0  0.16147  0.90136  0.55861  1.0000
  H   H1511     1.0  0.17890  0.94952  0.58142  1.0000
  H   H1512     1.0  0.09135  0.92815  0.53462  1.0000
  C   C1913     1.0  0.17126  0.85149  0.69438  1.0000
  C   C1914     1.0  0.09984  0.95678  0.53704  1.0000
  C   C1915     1.0  0.20093  0.92503  0.57731  1.0000
  C   C1916     1.0  0.25794  0.77209  0.50536  1.0000
  C   C1917     1.0  0.18546  0.96473  0.65063  1.0000
  H   H1513     1.0  0.34320  0.74667  0.50739  1.0000
  H   H1514     1.0  0.26421  0.67618  0.56770  1.0000
  H   H1515     1.0  0.02164  0.96579  0.68159  1.0000
  H   H1516     1.0  0.18655  0.79485  0.65226  1.0000
  C   C1918     1.0  0.44996  0.93886  0.72028  1.0000
  C   C1919     1.0  0.17757  0.81607  0.69852  1.0000
  C   C1920     1.0  0.14624  0.85189  0.65642  1.0000
  C   C1921     1.0  0.17018  0.92298  0.59802  1.0000
  H   H1517     1.0  0.13063  0.88266  0.61751  1.0000
  H   H1518     1.0  0.07382  0.90820  0.51930  1.0000
  C   C1922     1.0  0.14694  0.97903  0.50330  1.0000
  C   C1923     1.0  0.26167  0.75593  0.51918  1.0000
  P   P67       1.0  0.21934  0.98364  0.63995  1.0000
  H   H1519     1.0  0.15636  0.93006  0.60423  1.0000
  C   C1924     1.0  0.23956  0.92462  0.51916  1.0000
  H   H1520     1.0  0.27663  0.75030  0.52171  1.0000
  H   H1521     1.0  0.15612  0.85554  0.62532  1.0000
  C   C1925     1.0  0.42781  0.90699  0.72406  1.0000
  C   C1926     1.0  0.30081  0.66865  0.64650  1.0000
  C   C1927     1.0  0.14551  0.86046  0.63698  1.0000
  H   H1522     1.0  0.32198  0.70391  0.60435  1.0000
  C   C1928     1.0  0.13752  0.80572  0.66549  1.0000
  H   H1523     1.0  0.49157  0.93895  0.70263  1.0000
  C   C1929     1.0  0.20865  0.97172  0.51482  1.0000
  C   C1930     1.0  0.13198  0.85856  0.67112  1.0000
  H   H1524     1.0  0.11627  0.78470  0.66908  1.0000
  H   H1525     1.0  0.18858  0.80353  0.72569  1.0000
  H   H1526     1.0  0.22509  0.96152  0.60568  1.0000
  C   C1931     1.0  0.17150  0.83339  0.68697  1.0000
  H   H1527     1.0  0.24892  0.73479  0.54102  1.0000
  C   C1932     1.0  0.33950  0.66915  0.51414  1.0000
  H   H1528     1.0  0.12672  0.81760  0.66971  1.0000
  Fe  Fe127     1.0  0.23299  0.86514  0.73649  1.0000
  S   S250      1.0  0.39109  0.68153  0.50292  1.0000
  C   C1933     1.0  0.14530  0.77155  0.65991  1.0000
  H   H1529     1.0  0.04611  0.96829  0.56059  1.0000
  C   C1934     1.0  0.25704  0.75874  0.73432  1.0000
  C   C1935     1.0  0.19624  0.97584  0.63567  1.0000
  C   C1936     1.0  0.30403  0.68246  0.49893  1.0000
  C   C1937     1.0  0.23454  0.97321  0.60285  1.0000
  C   C1938     1.0  0.25095  0.93888  0.52288  1.0000
  C   C1939     1.0  0.13155  0.78711  0.66516  1.0000
  H   H1530     1.0  0.25465  0.95044  0.51142  1.0000
  H   H1531     1.0  0.28633  0.79510  0.73467  1.0000
  H   H1532     1.0  0.29568  0.68482  0.59859  1.0000
  H   H1533     1.0  0.29007  0.66488  0.54262  1.0000
  H   H1534     1.0  0.27019  0.77892  0.49717  1.0000
  H   H1535     1.0  0.25556  0.69465  0.64978  1.0000
  C   C1940     1.0  0.26840  0.77420  0.72731  1.0000
  C   C1941     1.0  0.12970  0.92384  0.49771  1.0000
  H   H1536     1.0  0.22929  0.67260  0.56514  1.0000
  C   C1942     1.0  0.34937  0.78125  0.74178  1.0000
  H   H1537     1.0  0.10329  0.98655  0.54205  1.0000
  C   C1943     1.0  0.26029  0.66936  0.55558  1.0000
  C   C1944     1.0  0.16702  0.87278  0.49411  1.0000
  C   C1945     1.0  0.21794  0.66453  0.66464  1.0000
  H   H1538     1.0  0.46817  0.66239  0.50392  1.0000
  C   C1946     1.0  0.24061  0.66732  0.55413  1.0000
  C   C1947     1.0  0.13583  0.86007  0.49348  1.0000
  H   H1539     1.0  0.35313  0.66408  0.52031  1.0000
  C   C1948     1.0  0.23503  0.98615  0.61698  1.0000
  Fe  Fe128     1.0  0.41502  0.66300  0.55034  1.0000
  C   C1949     1.0  0.00250  0.99129  0.68955  1.0000
  C   C1950     1.0  0.45748  0.92068  0.72928  1.0000
  H   H1540     1.0  0.11636  0.99017  0.62741  1.0000
  S   S251      1.0  0.37264  0.91264  0.74185  1.0000
  H   H1541     1.0  0.35971  0.66396  0.64056  1.0000
  H   H1542     1.0  0.22324  0.66222  0.63358  1.0000
  S   S252      1.0  0.44019  0.98161  0.74227  1.0000
  H   H1543     1.0  0.16161  0.81402  0.49365  1.0000
  C   C1951     1.0  0.44616  0.90479  0.73132  1.0000
  H   H1544     1.0  0.45121  0.89090  0.73908  1.0000
  P   P68       1.0  0.47989  0.91823  0.74093  1.0000
  H   H1545     1.0  0.13203  0.66112  0.73576  1.0000
  C   C1952     1.0  0.25734  0.99121  0.58027  1.0000
  H   H1546     1.0  0.21764  0.70603  0.94166  1.0000
  H   H1547     1.0  0.46315  0.97112  0.82015  1.0000
  H   H1548     1.0  0.46445  0.94994  0.92527  1.0000
  Fe  Fe129     1.0  0.41598  0.96414  0.75915  1.0000
  S   S253      1.0  0.40399  0.97071  0.78937  1.0000
  Fe  Fe130     1.0  0.38512  0.93487  0.75789  1.0000
  S   S254      1.0  0.37168  0.93928  0.78833  1.0000
  Fe  Fe131     1.0  0.37434  0.97103  0.77911  1.0000
  C   C1953     1.0  0.46976  0.87706  0.95481  1.0000
  Fe  Fe132     1.0  0.40244  0.93830  0.79616  1.0000
  S   S255      1.0  0.41017  0.92669  0.82657  1.0000
  C   C1954     1.0  0.15411  0.73784  0.98568  1.0000
  S   S256      1.0  0.41633  0.93125  0.76638  1.0000
  Fe  Fe133     1.0  0.41280  0.81639  0.93048  1.0000
  S   S257      1.0  0.41074  0.84558  0.91222  1.0000
  Fe  Fe134     1.0  0.37774  0.80357  0.91063  1.0000
  S   S258      1.0  0.37348  0.83262  0.89248  1.0000
  S   S259      1.0  0.35858  0.77880  0.90886  1.0000
  Fe  Fe135     1.0  0.40646  0.82941  0.88711  1.0000
  S   S260      1.0  0.42010  0.83604  0.85593  1.0000
  Fe  Fe136     1.0  0.37827  0.84574  0.91949  1.0000
  S   S261      1.0  0.36154  0.87257  0.93120  1.0000
  S   S262      1.0  0.41096  0.79967  0.90441  1.0000
  S   S263      1.0  0.37989  0.81711  0.93836  1.0000
  Fe  Fe137     1.0  0.10011  0.68288  0.89662  1.0000
  H   H1549     1.0  0.42126  0.89230  0.80507  1.0000
  S   S264      1.0  0.11845  0.70554  0.87844  1.0000
  C   C1955     1.0  0.44283  0.86868  0.93882  1.0000
  C   C1956     1.0  0.45479  0.82714  0.98029  1.0000
  H   H1550     1.0  0.42651  0.85675  0.81714  1.0000
  H   H1551     1.0  0.14715  0.67345  0.85859  1.0000
  C   C1957     1.0  0.19065  0.71913  0.75032  1.0000
  H   H1552     1.0  0.16357  0.66666  0.88865  1.0000
  S   S265      1.0  0.06689  0.68471  0.89841  1.0000
  Fe  Fe138     1.0  0.22685  0.73435  0.86659  1.0000
  S   S266      1.0  0.22701  0.72463  0.83695  1.0000
  S   S267      1.0  0.20346  0.72584  0.89136  1.0000
  Fe  Fe139     1.0  0.26424  0.75544  0.85491  1.0000
  S   S268      1.0  0.26688  0.74728  0.82399  1.0000
  S   S269      1.0  0.28371  0.77800  0.86191  1.0000
  Fe  Fe140     1.0  0.23431  0.75487  0.82519  1.0000
  S   S270      1.0  0.22123  0.76712  0.79724  1.0000
  Fe  Fe141     1.0  0.25940  0.71763  0.83748  1.0000
  S   S271      1.0  0.27373  0.68995  0.82504  1.0000
  S   S272      1.0  0.23176  0.76548  0.85494  1.0000
  S   S273      1.0  0.25923  0.72482  0.86856  1.0000
  C   C1958     1.0  0.48262  0.86340  0.94465  1.0000
  S   S274      1.0  0.21742  0.85730  0.76663  1.0000
  C   C1959     1.0  0.22208  0.79213  0.78915  1.0000
  C   C1960     1.0  0.22582  0.79805  0.76904  1.0000
  C   C1961     1.0  0.22499  0.81803  0.76207  1.0000
  C   C1962     1.0  0.21970  0.83219  0.77514  1.0000
  C   C1963     1.0  0.21590  0.82626  0.79526  1.0000
  C   C1964     1.0  0.21743  0.80627  0.80230  1.0000
  H   H1553     1.0  0.22944  0.78718  0.75881  1.0000
  C   C1965     1.0  0.17332  0.80400  0.77776  1.0000
  H   H1554     1.0  0.21163  0.83706  0.80546  1.0000
  H   H1555     1.0  0.21437  0.80181  0.81779  1.0000
  C   C1966     1.0  0.26254  0.68339  0.80534  1.0000
  H   H1556     1.0  0.18853  0.69045  0.84645  1.0000
  C   C1967     1.0  0.42220  0.90142  0.90216  1.0000
  H   H1557     1.0  0.44348  0.87155  0.99024  1.0000
  C   C1968     1.0  0.14302  0.70850  0.88191  1.0000
  C   C1969     1.0  0.14986  0.70494  0.90040  1.0000
  C   C1970     1.0  0.16866  0.70974  0.90295  1.0000
  C   C1971     1.0  0.18084  0.71805  0.88711  1.0000
  C   C1972     1.0  0.17436  0.72075  0.86850  1.0000
  C   C1973     1.0  0.15557  0.71598  0.86590  1.0000
  H   H1558     1.0  0.14043  0.69907  0.91285  1.0000
  H   H1559     1.0  0.17370  0.70731  0.91729  1.0000
  H   H1560     1.0  0.18362  0.72708  0.85624  1.0000
  H   H1561     1.0  0.15066  0.71841  0.85146  1.0000
  C   C1974     1.0  0.38808  0.88389  0.98578  1.0000
  C   C1975     1.0  0.33809  0.77874  0.89522  1.0000
  C   C1976     1.0  0.33094  0.79523  0.88326  1.0000
  C   C1977     1.0  0.31432  0.79467  0.87328  1.0000
  C   C1978     1.0  0.30468  0.77760  0.87489  1.0000
  C   C1979     1.0  0.31198  0.76099  0.88656  1.0000
  C   C1980     1.0  0.32852  0.76161  0.89670  1.0000
  H   H1562     1.0  0.33821  0.80844  0.88171  1.0000
  H   H1563     1.0  0.30899  0.80752  0.86411  1.0000
  H   H1564     1.0  0.30482  0.74773  0.88792  1.0000
  H   H1565     1.0  0.33393  0.74873  0.90581  1.0000
  H   H1566     1.0  0.24560  0.71140  0.80002  1.0000
  H   H1567     1.0  0.32795  0.85061  0.92199  1.0000
  H   H1568     1.0  0.30016  0.89999  0.81798  1.0000
  C   C1981     1.0  0.41354  0.90138  0.83398  1.0000
  C   C1982     1.0  0.41108  0.89512  0.85405  1.0000
  C   C1983     1.0  0.41285  0.87512  0.86076  1.0000
  C   C1984     1.0  0.41849  0.86122  0.84754  1.0000
  C   C1985     1.0  0.42212  0.86747  0.82745  1.0000
  C   C1986     1.0  0.41910  0.88753  0.82060  1.0000
  H   H1569     1.0  0.40729  0.90580  0.86442  1.0000
  H   H1570     1.0  0.40989  0.87048  0.87617  1.0000
  C   C1987     1.0  0.46078  0.99096  0.74995  1.0000
  H   H1571     1.0  0.48544  0.84153  0.92448  1.0000
  C   C1988     1.0  0.33744  0.78165  0.75961  1.0000
  C   C1989     1.0  0.23283  0.67254  0.97943  1.0000
  C   C1990     1.0  0.36423  0.89310  0.96218  1.0000
  C   C1991     1.0  0.37220  0.87730  0.95181  1.0000
  C   C1992     1.0  0.38852  0.86521  0.95814  1.0000
  C   C1993     1.0  0.39672  0.86876  0.97482  1.0000
  C   C1994     1.0  0.32897  0.80468  0.94599  1.0000
  H   H1572     1.0  0.35167  0.90254  0.95731  1.0000
  C   C1995     1.0  0.32112  0.74624  0.79692  1.0000
  C   C1996     1.0  0.02058  0.66947  0.98841  1.0000
  H   H1573     1.0  0.42733  0.87041  0.93692  1.0000
  H   H1574     1.0  0.32590  0.96088  0.87995  1.0000
  C   C1997     1.0  0.08478  0.68116  0.83587  1.0000
  C   C1998     1.0  0.28919  0.70762  0.92312  1.0000
  C   C1999     1.0  0.31968  0.87575  0.98886  1.0000
  C   C2000     1.0  0.24028  0.69138  0.78010  1.0000
  C   C2001     1.0  0.02591  0.67317  0.96811  1.0000
  C   C2002     1.0  0.20811  0.68031  0.93253  1.0000
  C   C2003     1.0  0.27188  0.82158  0.78697  1.0000
  H   H1575     1.0  0.44843  0.91602  0.89566  1.0000
  H   H1576     1.0  0.36811  0.96478  0.81644  1.0000
  C   C2004     1.0  0.14927  0.66438  0.79233  1.0000
  C   C2005     1.0  0.22051  0.69506  0.93144  1.0000
  C   C2006     1.0  0.01110  0.67583  0.95553  1.0000
  C   C2007     1.0  0.46303  0.93343  0.77517  1.0000
  C   C2008     1.0  0.45871  0.91463  0.80697  1.0000
  H   H1577     1.0  0.01489  0.67876  0.93989  1.0000
  C   C2009     1.0  0.15422  0.72031  0.79913  1.0000
  C   C2010     1.0  0.17381  0.71292  0.80069  1.0000
  C   C2011     1.0  0.18596  0.72341  0.80929  1.0000
  C   C2012     1.0  0.17838  0.74090  0.81707  1.0000
  C   C2013     1.0  0.15851  0.74802  0.81630  1.0000
  C   C2014     1.0  0.14665  0.73791  0.80668  1.0000
  P   P69       1.0  0.14882  0.77090  0.82581  1.0000
  C   C2015     1.0  0.12235  0.77127  0.83121  1.0000
  C   C2016     1.0  0.15970  0.77294  0.84803  1.0000
  C   C2017     1.0  0.17669  0.78263  0.84692  1.0000
  C   C2018     1.0  0.18483  0.78500  0.86395  1.0000
  C   C2019     1.0  0.17678  0.77684  0.88216  1.0000
  C   C2020     1.0  0.16010  0.76693  0.88344  1.0000
  C   C2021     1.0  0.15143  0.76522  0.86654  1.0000
  C   C2022     1.0  0.10955  0.78717  0.82400  1.0000
  C   C2023     1.0  0.08917  0.78715  0.82836  1.0000
  C   C2024     1.0  0.08138  0.77125  0.83984  1.0000
  C   C2025     1.0  0.09396  0.75524  0.84679  1.0000
  C   C2026     1.0  0.11429  0.75518  0.84234  1.0000
  C   C2027     1.0  0.15564  0.79130  0.80835  1.0000
  C   C2028     1.0  0.16660  0.78817  0.79028  1.0000
  H   H1578     1.0  0.17496  0.83521  0.77372  1.0000
  H   H1579     1.0  0.25176  0.68329  0.89182  1.0000
  H   H1580     1.0  0.26631  0.75346  0.78205  1.0000
  C   C2029     1.0  0.15167  0.81049  0.81370  1.0000
  H   H1581     1.0  0.14489  0.71242  0.79204  1.0000
  H   H1582     1.0  0.17976  0.69932  0.79483  1.0000
  H   H1583     1.0  0.20137  0.71809  0.80966  1.0000
  H   H1584     1.0  0.18809  0.74892  0.82354  1.0000
  H   H1585     1.0  0.13154  0.74358  0.80499  1.0000
  H   H1586     1.0  0.18379  0.78831  0.83290  1.0000
  H   H1587     1.0  0.19768  0.79282  0.86298  1.0000
  H   H1588     1.0  0.18367  0.77784  0.89524  1.0000
  H   H1589     1.0  0.15411  0.76016  0.89750  1.0000
  H   H1590     1.0  0.13863  0.75739  0.86822  1.0000
  H   H1591     1.0  0.11512  0.79957  0.81492  1.0000
  H   H1592     1.0  0.07938  0.79951  0.82286  1.0000
  H   H1593     1.0  0.08805  0.74285  0.85578  1.0000
  H   H1594     1.0  0.12368  0.74249  0.84772  1.0000
  H   H1595     1.0  0.17059  0.77355  0.78604  1.0000
  S   S275      1.0  0.05107  0.67529  0.95946  1.0000
  C   C2030     1.0  0.16257  0.66819  0.77574  1.0000
  C   C2031     1.0  0.21152  0.74551  0.74598  1.0000
  H   H1596     1.0  0.14379  0.81316  0.82783  1.0000
  C   C2032     1.0  0.32394  0.75991  0.80957  1.0000
  H   H1597     1.0  0.32265  0.74987  0.78122  1.0000
  H   H1598     1.0  0.39169  0.85645  0.79713  1.0000
  C   C2033     1.0  0.32888  0.81955  0.93042  1.0000
  H   H1599     1.0  0.31472  0.94018  0.85756  1.0000
  C   C2034     1.0  0.44984  0.87979  0.95155  1.0000
  H   H1600     1.0  0.36197  0.81481  0.98038  1.0000
  C   C2035     1.0  0.45320  0.81670  0.96432  1.0000
  C   C2036     1.0  0.27954  0.68276  0.94937  1.0000
  C   C2037     1.0  0.26698  0.75924  0.76677  1.0000
  H   H1601     1.0  0.35274  0.97209  0.99220  1.0000
  C   C2038     1.0  0.09019  0.70017  0.83381  1.0000
  C   C2039     1.0  0.11004  0.70320  0.83050  1.0000
  C   C2040     1.0  0.12451  0.68724  0.82954  1.0000
  H   H1602     1.0  0.30278  0.84373  0.85008  1.0000
  C   C2041     1.0  0.29563  0.92559  0.79770  1.0000
  H   H1603     1.0  0.32114  0.96537  0.79334  1.0000
  C   C2042     1.0  0.11922  0.66804  0.83180  1.0000
  H   H1604     1.0  0.38187  0.92638  0.87815  1.0000
  H   H1605     1.0  0.37130  0.90575  0.85542  1.0000
  H   H1606     1.0  0.39350  0.78470  0.75780  1.0000
  H   H1607     1.0  0.43960  0.89016  0.95918  1.0000
  C   C2043     1.0  0.32732  0.80940  0.96527  1.0000
  C   C2044     1.0  0.25690  0.75091  0.75404  1.0000
  C   C2045     1.0  0.43443  0.97178  0.83644  1.0000
  C   C2046     1.0  0.27937  0.66962  0.93541  1.0000
  C   C2047     1.0  0.31614  0.73607  0.83747  1.0000
  H   H1608     1.0  0.15751  0.67649  0.76265  1.0000
  H   H1609     1.0  0.43571  0.95617  0.84112  1.0000
  C   C2048     1.0  0.31359  0.72250  0.82480  1.0000
  H   H1610     1.0  0.29382  0.69857  0.89398  1.0000
  C   C2049     1.0  0.20812  0.69870  0.98889  1.0000
  H   H1611     1.0  0.07900  0.71250  0.83509  1.0000
  H   H1612     1.0  0.11425  0.71785  0.82935  1.0000
  H   H1613     1.0  0.13983  0.68985  0.82744  1.0000
  H   H1614     1.0  0.33713  0.94565  0.82013  1.0000
  H   H1615     1.0  0.40556  0.97706  0.85166  1.0000
  H   H1616     1.0  0.36123  0.87247  0.85165  1.0000
  H   H1617     1.0  0.22998  0.70192  0.77266  1.0000
  H   H1618     1.0  0.29528  0.84479  0.88590  1.0000
  H   H1619     1.0  0.45479  0.97218  0.95120  1.0000
  C   C2050     1.0  0.31597  0.72762  0.80454  1.0000
  H   H1620     1.0  0.33083  0.81586  0.91551  1.0000
  H   H1621     1.0  0.22809  0.82245  0.74655  1.0000
  C   C2051     1.0  0.47032  0.91677  0.96543  1.0000
  C   C2052     1.0  0.28400  0.70197  0.94302  1.0000
  H   H1622     1.0  0.44880  0.94531  0.80134  1.0000
  C   C2053     1.0  0.40281  0.90247  0.91092  1.0000
  C   C2054     1.0  0.16371  0.73190  0.96804  1.0000
  H   H1623     1.0  0.29272  0.72244  0.91831  1.0000
  H   H1624     1.0  0.02700  0.66158  0.89506  1.0000
  H   H1625     1.0  0.33655  0.93879  0.75126  1.0000
  H   H1626     1.0  0.28451  0.91985  0.79085  1.0000
  H   H1627     1.0  0.29498  0.95256  0.77842  1.0000
  H   H1628     1.0  0.15555  0.84100  0.80542  1.0000
  C   C2055     1.0  0.45944  0.94942  0.97488  1.0000
  H   H1629     1.0  0.35928  0.95381  0.89046  1.0000
  C   C2056     1.0  0.15464  0.69903  0.97770  1.0000
  C   C2057     1.0  0.18236  0.66092  0.77589  1.0000
  C   C2058     1.0  0.45908  0.95675  0.95517  1.0000
  H   H1630     1.0  0.13387  0.66969  0.79183  1.0000
  H   H1631     1.0  0.37974  0.91905  0.92741  1.0000
  C   C2059     1.0  0.36673  0.97823  0.84275  1.0000
  C   C2060     1.0  0.21311  0.67958  0.98399  1.0000
  C   C2061     1.0  0.19542  0.73663  0.75590  1.0000
  H   H1632     1.0  0.45031  0.84595  0.91949  1.0000
  H   H1633     1.0  0.46945  0.79815  0.94379  1.0000
  H   H1634     1.0  0.39404  0.89059  0.91034  1.0000
  H   H1635     1.0  0.24892  0.73849  0.75972  1.0000
  P   P70       1.0  0.47844  0.89122  0.97177  1.0000
  S   S276      1.0  0.35001  0.99335  0.78898  1.0000
  C   C2062     1.0  0.24260  0.70381  0.98491  1.0000
  H   H1636     1.0  0.38510  0.85016  0.83323  1.0000
  H   H1637     1.0  0.28354  0.71258  0.95345  1.0000
  C   C2063     1.0  0.31009  0.89452  0.99088  1.0000
  H   H1638     1.0  0.28947  0.83759  0.76415  1.0000
  H   H1639     1.0  0.20339  0.67660  0.81593  1.0000
  H   H1640     1.0  0.15531  0.68402  0.97436  1.0000
  C   C2064     1.0  0.33997  0.97999  0.98612  1.0000
  H   H1641     1.0  0.42848  0.88869  0.89490  1.0000
  Fe  Fe142     1.0  0.06764  0.66995  0.92947  1.0000
  C   C2065     1.0  0.20842  0.67060  0.82988  1.0000
  H   H1642     1.0  0.15396  0.75287  0.98876  1.0000
  C   C2066     1.0  0.45570  0.85499  0.92898  1.0000
  H   H1643     1.0  0.28505  0.66493  0.90490  1.0000
  S   S277      1.0  0.38598  0.96710  0.74800  1.0000
  C   C2067     1.0  0.45637  0.93243  0.79514  1.0000
  H   H1644     1.0  0.37347  0.88490  0.77918  1.0000
  C   C2068     1.0  0.20019  0.67851  0.84707  1.0000
  C   C2069     1.0  0.37783  0.78381  0.75832  1.0000
  C   C2070     1.0  0.36643  0.79140  0.84067  1.0000
  C   C2071     1.0  0.36242  0.81129  0.84311  1.0000
  C   C2072     1.0  0.34824  0.82296  0.83281  1.0000
  C   C2073     1.0  0.33815  0.81479  0.81992  1.0000
  C   C2074     1.0  0.34209  0.79478  0.81737  1.0000
  C   C2075     1.0  0.35645  0.78318  0.82774  1.0000
  P   P71       1.0  0.32994  0.78427  0.79992  1.0000
  C   C2076     1.0  0.27187  0.80635  0.80224  1.0000
  C   C2077     1.0  0.28952  0.79537  0.80658  1.0000
  C   C2078     1.0  0.34560  0.78321  0.77699  1.0000
  C   C2079     1.0  0.47305  0.82732  0.98774  1.0000
  H   H1645     1.0  0.29452  0.87985  0.75579  1.0000
  C   C2080     1.0  0.36593  0.78424  0.77619  1.0000
  H   H1646     1.0  0.37728  0.78236  0.84889  1.0000
  H   H1647     1.0  0.37031  0.81761  0.85306  1.0000
  H   H1648     1.0  0.34518  0.83835  0.83478  1.0000
  H   H1649     1.0  0.32739  0.82415  0.81195  1.0000
  H   H1650     1.0  0.35998  0.76778  0.82584  1.0000
  H   H1651     1.0  0.25813  0.80283  0.81054  1.0000
  H   H1652     1.0  0.28920  0.78363  0.81845  1.0000
  C   C2081     1.0  0.49005  0.81652  0.97973  1.0000
  H   H1653     1.0  0.47997  0.88529  0.77256  1.0000
  H   H1654     1.0  0.37271  0.78548  0.78925  1.0000
  H   H1655     1.0  0.32077  0.81868  0.77184  1.0000
  C   C2082     1.0  0.22787  0.66666  0.90486  1.0000
  H   H1656     1.0  0.26127  0.66761  0.86011  1.0000
  H   H1657     1.0  0.19264  0.66367  0.76297  1.0000
  H   H1658     1.0  0.32803  0.79763  0.97708  1.0000
  H   H1659     1.0  0.32262  0.76510  0.84001  1.0000
  C   C2083     1.0  0.41727  0.98352  0.84217  1.0000
  C   C2084     1.0  0.32710  0.83912  0.93409  1.0000
  C   C2085     1.0  0.25967  0.82655  0.85072  1.0000
  C   C2086     1.0  0.25759  0.82716  0.87098  1.0000
  C   C2087     1.0  0.25209  0.84504  0.87874  1.0000
  C   C2088     1.0  0.24917  0.86236  0.86619  1.0000
  C   C2089     1.0  0.25231  0.86195  0.84577  1.0000
  C   C2090     1.0  0.25678  0.84380  0.83816  1.0000
  P   P72       1.0  0.24815  0.88408  0.82940  1.0000
  C   C2091     1.0  0.22217  0.88735  0.82699  1.0000
  C   C2092     1.0  0.25567  0.90567  0.83748  1.0000
  C   C2093     1.0  0.24934  0.92422  0.82830  1.0000
  C   C2094     1.0  0.25570  0.94112  0.83362  1.0000
  C   C2095     1.0  0.26849  0.93964  0.84808  1.0000
  C   C2096     1.0  0.27497  0.92124  0.85718  1.0000
  C   C2097     1.0  0.26880  0.90428  0.85174  1.0000
  C   C2098     1.0  0.21462  0.87737  0.81355  1.0000
  C   C2099     1.0  0.19452  0.87992  0.81147  1.0000
  C   C2100     1.0  0.18174  0.89217  0.82310  1.0000
  C   C2101     1.0  0.18908  0.90179  0.83691  1.0000
  C   C2102     1.0  0.20923  0.89934  0.83892  1.0000
  C   C2103     1.0  0.26241  0.88185  0.80594  1.0000
  C   C2104     1.0  0.28149  0.87196  0.80494  1.0000
  C   C2105     1.0  0.29311  0.87139  0.78694  1.0000
  C   C2106     1.0  0.28563  0.88041  0.76980  1.0000
  C   C2107     1.0  0.26666  0.89022  0.77069  1.0000
  C   C2108     1.0  0.25518  0.89120  0.78868  1.0000
  H   H1660     1.0  0.26336  0.81261  0.84476  1.0000
  H   H1661     1.0  0.25995  0.81367  0.88061  1.0000
  H   H1662     1.0  0.24997  0.84541  0.89449  1.0000
  H   H1663     1.0  0.24442  0.87600  0.87243  1.0000
  H   H1664     1.0  0.25792  0.84287  0.82253  1.0000
  H   H1665     1.0  0.23964  0.92560  0.81685  1.0000
  H   H1666     1.0  0.25079  0.95537  0.82643  1.0000
  H   H1667     1.0  0.27349  0.95275  0.85214  1.0000
  H   H1668     1.0  0.28497  0.92014  0.86832  1.0000
  H   H1669     1.0  0.27458  0.89019  0.85847  1.0000
  H   H1670     1.0  0.22433  0.86782  0.80444  1.0000
  H   H1671     1.0  0.18897  0.87248  0.80065  1.0000
  H   H1672     1.0  0.16618  0.89421  0.82138  1.0000
  H   H1673     1.0  0.17914  0.91120  0.84600  1.0000
  H   H1674     1.0  0.21465  0.90680  0.84977  1.0000
  H   H1675     1.0  0.28748  0.86493  0.81807  1.0000
  H   H1676     1.0  0.30791  0.86397  0.78619  1.0000
  H   H1677     1.0  0.29065  0.97881  0.98803  1.0000
  H   H1678     1.0  0.26086  0.89722  0.75739  1.0000
  H   H1679     1.0  0.24072  0.89932  0.78896  1.0000
  H   H1680     1.0  0.17829  0.71216  0.75804  1.0000
  H   H1681     1.0  0.30338  0.87305  0.90136  1.0000
  C   C2109     1.0  0.47389  0.89865  0.77873  1.0000
  C   C2110     1.0  0.30150  0.94403  0.79067  1.0000
  C   C2111     1.0  0.30729  0.79937  0.79543  1.0000
  C   C2112     1.0  0.28954  0.82590  0.77610  1.0000
  H   H1682     1.0  0.17097  0.74227  0.95739  1.0000
  H   H1683     1.0  0.28481  0.78191  0.76989  1.0000
  H   H1684     1.0  0.47415  0.91470  0.93415  1.0000
  H   H1685     1.0  0.40917  0.85915  0.97970  1.0000
  C   C2113     1.0  0.32522  0.84392  0.95335  1.0000
  C   C2114     1.0  0.30722  0.81502  0.78042  1.0000
  S   S278      1.0  0.42925  0.81346  0.95823  1.0000
  H   H1686     1.0  0.33397  0.70111  0.98872  1.0000
  C   C2115     1.0  0.44977  0.98016  0.82455  1.0000
  H   H1687     1.0  0.06938  0.67874  0.83863  1.0000
  H   H1688     1.0  0.32432  0.85919  0.95562  1.0000
  C   C2116     1.0  0.24904  0.69676  0.79571  1.0000
  H   H1689     1.0  0.31349  0.71720  0.79479  1.0000
  H   H1690     1.0  0.24534  0.70793  0.91535  1.0000
  C   C2117     1.0  0.30458  0.91432  0.81307  1.0000
  C   C2118     1.0  0.09918  0.66513  0.83484  1.0000
  C   C2119     1.0  0.40772  0.97609  0.92329  1.0000
  S   S279      1.0  0.10043  0.67106  0.92833  1.0000
  P   P73       1.0  0.39654  0.95466  0.93495  1.0000
  C   C2120     1.0  0.40236  0.94888  0.95992  1.0000
  C   C2121     1.0  0.37002  0.95895  0.93629  1.0000
  C   C2122     1.0  0.35847  0.94678  0.94947  1.0000
  C   C2123     1.0  0.33796  0.95013  0.95100  1.0000
  C   C2124     1.0  0.32879  0.96581  0.93952  1.0000
  C   C2125     1.0  0.34016  0.97817  0.92659  1.0000
  C   C2126     1.0  0.36067  0.97482  0.92505  1.0000
  C   C2127     1.0  0.39430  0.96141  0.97407  1.0000
  C   C2128     1.0  0.28841  0.68601  0.98996  1.0000
  C   C2129     1.0  0.46517  0.92953  0.98002  1.0000
  H   H1691     1.0  0.20167  0.67014  0.98376  1.0000
  C   C2130     1.0  0.41391  0.93148  0.96567  1.0000
  C   C2131     1.0  0.40600  0.93423  0.92125  1.0000
  C   C2132     1.0  0.39471  0.91876  0.92052  1.0000
  C   C2133     1.0  0.16403  0.71250  0.96412  1.0000
  H   H1692     1.0  0.25383  0.71340  0.98542  1.0000
  C   C2134     1.0  0.43347  0.91680  0.90266  1.0000
  C   C2135     1.0  0.42541  0.93315  0.91215  1.0000
  C   C2136     1.0  0.24490  0.67260  0.77390  1.0000
  H   H1693     1.0  0.40087  0.97210  0.89434  1.0000
  H   H1694     1.0  0.36535  0.93492  0.95883  1.0000
  H   H1695     1.0  0.32918  0.94099  0.96160  1.0000
  H   H1696     1.0  0.31292  0.96878  0.94114  1.0000
  H   H1697     1.0  0.36903  0.98489  0.91530  1.0000
  H   H1698     1.0  0.38481  0.97458  0.97000  1.0000
  C   C2137     1.0  0.27742  0.77526  0.75990  1.0000
  H   H1699     1.0  0.46841  0.88381  0.80788  1.0000
  H   H1700     1.0  0.45323  0.91382  0.82238  1.0000
  H   H1701     1.0  0.41979  0.92123  0.95527  1.0000
  S   S280      1.0  0.23343  0.66693  0.75407  1.0000
  C   C2138     1.0  0.28492  0.67521  0.91557  1.0000
  H   H1702     1.0  0.34858  0.90644  0.79698  1.0000
  H   H1703     1.0  0.43437  0.94489  0.91246  1.0000
  H   H1704     1.0  0.39468  0.85280  0.95053  1.0000
  C   C2139     1.0  0.41750  0.92682  0.98525  1.0000
  H   H1705     1.0  0.18232  0.80143  0.76417  1.0000
  H   H1706     1.0  0.31382  0.73233  0.85319  1.0000
  H   H1707     1.0  0.27420  0.98372  0.81667  1.0000
  C   C2140     1.0  0.23624  0.69600  0.91673  1.0000
  H   H1708     1.0  0.33092  0.78948  0.94300  1.0000
  H   H1709     1.0  0.06561  0.77132  0.84336  1.0000
  C   C2141     1.0  0.46581  0.98757  0.76923  1.0000
  H   H1710     1.0  0.17162  0.70786  0.95056  1.0000
  C   C2142     1.0  0.28982  0.69419  0.90941  1.0000
  H   H1711     1.0  0.31936  0.89974  0.88141  1.0000
  C   C2143     1.0  0.32119  0.75469  0.82991  1.0000
  H   H1712     1.0  0.25822  0.83001  0.78346  1.0000
  C   C2144     1.0  0.35186  0.99341  0.81398  1.0000
  C   C2145     1.0  0.15838  0.82628  0.80111  1.0000
  H   H1713     1.0  0.46067  0.94720  0.76604  1.0000
  H   H1714     1.0  0.45666  0.97938  0.78028  1.0000
  H   H1715     1.0  0.31904  0.87037  0.82972  1.0000
  C   C2146     1.0  0.47033  0.80660  0.95579  1.0000
  H   H1716     1.0  0.33313  0.99070  0.91807  1.0000
  H   H1717     1.0  0.37546  0.96597  0.84982  1.0000
  H   H1718     1.0  0.33442  0.87419  0.98138  1.0000
  C   C2147     1.0  0.30632  0.87275  0.88562  1.0000
  C   C2148     1.0  0.30176  0.85685  0.87693  1.0000
  C   C2149     1.0  0.30601  0.85625  0.85672  1.0000
  C   C2150     1.0  0.31499  0.87148  0.84522  1.0000
  C   C2151     1.0  0.31963  0.88756  0.85380  1.0000
  C   C2152     1.0  0.31531  0.88800  0.87416  1.0000
  P   P74       1.0  0.33348  0.90579  0.83906  1.0000
  C   C2153     1.0  0.34208  0.92115  0.85501  1.0000
  C   C2154     1.0  0.35324  0.89143  0.82583  1.0000
  C   C2155     1.0  0.35665  0.89452  0.80527  1.0000
  C   C2156     1.0  0.37058  0.88206  0.79499  1.0000
  C   C2157     1.0  0.38077  0.86603  0.80506  1.0000
  C   C2158     1.0  0.37713  0.86257  0.82543  1.0000
  C   C2159     1.0  0.36366  0.87534  0.83583  1.0000
  C   C2160     1.0  0.36106  0.91741  0.86092  1.0000
  C   C2161     1.0  0.36711  0.92903  0.87387  1.0000
  C   C2162     1.0  0.35434  0.94449  0.88090  1.0000
  C   C2163     1.0  0.33550  0.94847  0.87492  1.0000
  C   C2164     1.0  0.32934  0.93681  0.86211  1.0000
  C   C2165     1.0  0.31951  0.92138  0.82150  1.0000
  C   C2166     1.0  0.32519  0.94002  0.81440  1.0000
  C   C2167     1.0  0.31620  0.95127  0.79909  1.0000
  C   C2168     1.0  0.36250  0.97752  0.82369  1.0000
  H   H1719     1.0  0.30932  0.70817  0.83064  1.0000
  C   C2169     1.0  0.23981  0.68197  0.90337  1.0000
  C   C2170     1.0  0.32527  0.82910  0.96914  1.0000
  C   C2171     1.0  0.16924  0.82303  0.78318  1.0000
  H   H1720     1.0  0.19582  0.67959  0.94380  1.0000
  H   H1721     1.0  0.31355  0.68734  0.96791  1.0000
  C   C2172     1.0  0.22284  0.71089  0.98912  1.0000
  C   C2173     1.0  0.46442  0.94419  0.94056  1.0000
  C   C2174     1.0  0.37203  0.89628  0.97926  1.0000
  H   H1722     1.0  0.21506  0.75901  0.75055  1.0000
  H   H1723     1.0  0.18684  0.74326  0.76805  1.0000
  P   P75       1.0  0.27338  0.67548  0.97517  1.0000
  C   C2175     1.0  0.27939  0.99135  0.80276  1.0000
  H   H1724     1.0  0.39530  0.81588  0.98920  1.0000
  C   C2176     1.0  0.30755  0.69017  0.98264  1.0000
  C   C2177     1.0  0.46994  0.92425  0.94565  1.0000
  H   H1725     1.0  0.16708  0.66207  0.94029  1.0000
  C   C2178     1.0  0.21159  0.66635  0.91912  1.0000
  H   H1726     1.0  0.41697  0.98456  0.94968  1.0000
  H   H1727     1.0  0.32182  0.78087  0.75977  1.0000
  H   H1728     1.0  0.45524  0.95912  0.98624  1.0000
  C   C2179     1.0  0.47213  0.91664  0.76689  1.0000
  C   C2180     1.0  0.20733  0.67136  0.86498  1.0000
  H   H1729     1.0  0.20109  0.67808  0.87803  1.0000
  C   C2181     1.0  0.41628  0.98812  0.93415  1.0000
  C   C2182     1.0  0.30504  0.98373  0.98381  1.0000
  C   C2183     1.0  0.48852  0.80651  0.96345  1.0000
  C   C2184     1.0  0.46731  0.89772  0.79875  1.0000
  C   C2185     1.0  0.26727  0.66460  0.79910  1.0000
  C   C2186     1.0  0.36388  0.82342  0.99193  1.0000
  C   C2187     1.0  0.24777  0.68445  0.98041  1.0000
  C   C2188     1.0  0.47557  0.85244  0.93182  1.0000
  C   C2189     1.0  0.32145  0.97315  0.99170  1.0000
  C   C2190     1.0  0.10877  0.67156  0.99115  1.0000
  C   C2191     1.0  0.40748  0.98109  0.90302  1.0000
  H   H1730     1.0  0.44171  0.83497  0.98711  1.0000
  H   H1731     1.0  0.28881  0.81620  0.98944  1.0000
  H   H1732     1.0  0.36560  0.90830  0.98741  1.0000
  H   H1733     1.0  0.42588  0.91307  0.98977  1.0000
  C   C2192     1.0  0.26977  0.99093  0.78614  1.0000
  H   H1734     1.0  0.48747  0.99063  0.78867  1.0000
  C   C2193     1.0  0.33276  0.92703  0.74388  1.0000
  H   H1735     1.0  0.25694  0.98307  0.78714  1.0000
  H   H1736     1.0  0.43862  0.78560  0.99226  1.0000
  H   H1737     1.0  0.31741  0.90734  0.98494  1.0000
  H   H1738     1.0  0.19287  0.70402  0.99256  1.0000
  H   H1739     1.0  0.29708  0.66165  0.85199  1.0000
  H   H1740     1.0  0.09881  0.68475  0.99247  1.0000
  H   H1741     1.0  0.30209  0.93827  0.74403  1.0000
  Fe  Fe143     1.0  0.63683  0.05528  0.13612  1.0000
  S   S281      1.0  0.63303  0.03523  0.16397  1.0000
  S   S282      1.0  0.65675  0.04771  0.10950  1.0000
  Fe  Fe144     1.0  0.60637  0.08655  0.15045  1.0000
  S   S283      1.0  0.59937  0.06875  0.17952  1.0000
  S   S284      1.0  0.59348  0.11730  0.14082  1.0000
  Fe  Fe145     1.0  0.63260  0.06270  0.17878  1.0000
  S   S285      1.0  0.64951  0.06436  0.20509  1.0000
  Fe  Fe146     1.0  0.60032  0.04278  0.16192  1.0000
  S   S286      1.0  0.58235  0.01690  0.16001  1.0000
  S   S287      1.0  0.63905  0.08188  0.15081  1.0000
  S   S288      1.0  0.60470  0.06156  0.13312  1.0000
  Fe  Fe147     1.0  0.61498  0.17099  0.03627  1.0000
  S   S289      1.0  0.59818  0.19792  0.04756  1.0000
  S   S290      1.0  0.61871  0.13989  0.05057  1.0000
  H   H1742     1.0  0.67502  0.02302  0.18966  1.0000
  H   H1743     1.0  0.79954  0.06487  0.21554  1.0000
  Fe  Fe148     1.0  0.62653  0.21181  0.03818  1.0000
  S   S291      1.0  0.64126  0.22704  0.05938  1.0000
  Fe  Fe149     1.0  0.59065  0.20610  0.01622  1.0000
  H   H1744     1.0  0.62759  0.02267  0.12759  1.0000
  S   S292      1.0  0.64327  0.18432  0.02854  1.0000
  H   H1745     1.0  0.53284  0.05094  0.09930  1.0000
  Fe  Fe150     1.0  0.74480  0.11910  0.22724  1.0000
  H   H1746     1.0  0.72561  0.30989  0.00289  1.0000
  S   S293      1.0  0.72719  0.10718  0.20567  1.0000
  C   C2194     1.0  0.66449  0.11809  0.02248  1.0000
  C   C2195     1.0  0.69584  0.00642  0.14250  1.0000
  H   H1747     1.0  0.53387  0.10945  0.03422  1.0000
  C   C2196     1.0  0.71345  0.02719  0.19808  1.0000
  Fe  Fe151     1.0  0.77190  0.15175  0.22255  1.0000
  S   S294      1.0  0.77915  0.18105  0.20693  1.0000
  S   S295      1.0  0.77683  0.12049  0.21540  1.0000
  H   H1748     1.0  0.79453  0.24952  0.16780  1.0000
  Fe  Fe152     1.0  0.75810  0.27133  0.11010  1.0000
  S   S296      1.0  0.78998  0.25929  0.10877  1.0000
  S   S297      1.0  0.74370  0.28724  0.13588  1.0000
  Fe  Fe153     1.0  0.75028  0.25226  0.07408  1.0000
  S   S298      1.0  0.78189  0.23927  0.06992  1.0000
  S   S299      1.0  0.73131  0.24485  0.05126  1.0000
  Fe  Fe154     1.0  0.77881  0.23159  0.10259  1.0000
  S   S300      1.0  0.78841  0.20057  0.11464  1.0000
  Fe  Fe155     1.0  0.79053  0.26807  0.07627  1.0000
  S   S301      1.0  0.81323  0.28490  0.05617  1.0000
  S   S302      1.0  0.74685  0.24274  0.10640  1.0000
  S   S303      1.0  0.75898  0.28202  0.07793  1.0000
  H   H1749     1.0  0.68980  0.02004  0.14827  1.0000
  H   H1750     1.0  0.51966  0.09077  0.01216  1.0000
  S   S304      1.0  0.90325  0.29643  0.05924  1.0000
  H   H1751     1.0  0.57664  0.19604  0.15265  1.0000
  H   H1752     1.0  0.55854  0.03959  0.02885  1.0000
  C   C2197     1.0  0.56555  0.12452  0.04962  1.0000
  H   H1753     1.0  0.69429  0.23983  0.12922  1.0000
  H   H1754     1.0  0.69773  0.31973  0.24195  1.0000
  H   H1755     1.0  0.63611  0.08909  0.03227  1.0000
  C   C2198     1.0  0.77619  0.10997  0.99555  1.0000
  H   H1756     1.0  0.67127  0.14823  0.05418  1.0000
  C   C2199     1.0  0.75301  0.30805  0.14225  1.0000
  C   C2200     1.0  0.80961  0.19695  0.23849  1.0000
  C   C2201     1.0  0.69354  0.20905  0.12735  1.0000
  H   H1757     1.0  0.62490  0.19668  0.09327  1.0000
  H   H1758     1.0  0.74204  0.30280  0.17275  1.0000
  H   H1759     1.0  0.62234  0.14647  0.14060  1.0000
  C   C2202     1.0  0.83754  0.28905  0.05960  1.0000
  C   C2203     1.0  0.84961  0.27554  0.07079  1.0000
  C   C2204     1.0  0.86959  0.27824  0.07100  1.0000
  C   C2205     1.0  0.87759  0.29468  0.06044  1.0000
  H   H1760     1.0  0.83425  0.11336  0.23573  1.0000
  H   H1761     1.0  0.69145  0.09806  0.05938  1.0000
  H   H1762     1.0  0.84382  0.26256  0.07856  1.0000
  H   H1763     1.0  0.87901  0.26728  0.07903  1.0000
  C   C2206     1.0  0.62074  0.18875  0.12480  1.0000
  P   P76       1.0  0.64599  0.17885  0.12701  1.0000
  C   C2207     1.0  0.77988  0.18591  0.18127  1.0000
  C   C2208     1.0  0.77741  0.20546  0.17293  1.0000
  C   C2209     1.0  0.77938  0.21005  0.15248  1.0000
  C   C2210     1.0  0.78429  0.19508  0.14026  1.0000
  C   C2211     1.0  0.78635  0.17548  0.14857  1.0000
  C   C2212     1.0  0.78394  0.17088  0.16905  1.0000
  H   H1764     1.0  0.77407  0.21711  0.18234  1.0000
  H   H1765     1.0  0.77764  0.22518  0.14618  1.0000
  H   H1766     1.0  0.79015  0.16386  0.13918  1.0000
  H   H1767     1.0  0.78594  0.15579  0.17541  1.0000
  C   C2213     1.0  0.66118  0.14476  0.17715  1.0000
  C   C2214     1.0  0.69883  0.11143  0.01003  1.0000
  H   H1768     1.0  0.53844  0.00966  0.05889  1.0000
  C   C2215     1.0  0.63162  0.99702  0.08823  1.0000
  H   H1769     1.0  0.71795  0.09826  0.03186  1.0000
  H   H1770     1.0  0.68582  0.01556  0.11411  1.0000
  H   H1771     1.0  0.82183  0.30377  0.13666  1.0000
  H   H1772     1.0  0.86564  0.27902  0.01546  1.0000
  C   C2216     1.0  0.66669  0.23065  0.05736  1.0000
  C   C2217     1.0  0.67430  0.23725  0.07314  1.0000
  C   C2218     1.0  0.69414  0.24110  0.07181  1.0000
  C   C2219     1.0  0.70660  0.23866  0.05452  1.0000
  C   C2220     1.0  0.69911  0.23164  0.03893  1.0000
  C   C2221     1.0  0.67935  0.22755  0.04034  1.0000
  H   H1773     1.0  0.66469  0.23961  0.08642  1.0000
  H   H1774     1.0  0.69965  0.24637  0.08401  1.0000
  H   H1775     1.0  0.70858  0.22951  0.02556  1.0000
  H   H1776     1.0  0.67379  0.22246  0.02807  1.0000
  C   C2222     1.0  0.56903  0.00377  0.10610  1.0000
  C   C2223     1.0  0.67053  0.07726  0.20506  1.0000
  C   C2224     1.0  0.68081  0.08493  0.18766  1.0000
  C   C2225     1.0  0.69781  0.09434  0.18823  1.0000
  C   C2226     1.0  0.70476  0.09644  0.20616  1.0000
  C   C2227     1.0  0.69429  0.08909  0.22359  1.0000
  C   C2228     1.0  0.67739  0.07947  0.22300  1.0000
  H   H1777     1.0  0.67588  0.08325  0.17375  1.0000
  H   H1778     1.0  0.70586  0.09965  0.17462  1.0000
  C   C2229     1.0  0.55124  0.00293  0.09835  1.0000
  C   C2230     1.0  0.54242  0.99392  0.03358  1.0000
  C   C2231     1.0  0.60189  0.12464  0.11625  1.0000
  C   C2232     1.0  0.59584  0.14340  0.10737  1.0000
  C   C2233     1.0  0.60148  0.14865  0.08731  1.0000
  C   C2234     1.0  0.61287  0.13500  0.07608  1.0000
  C   C2235     1.0  0.61936  0.11656  0.08519  1.0000
  C   C2236     1.0  0.61413  0.11148  0.10520  1.0000
  H   H1779     1.0  0.58655  0.15375  0.11590  1.0000
  H   H1780     1.0  0.59653  0.16299  0.08045  1.0000
  H   H1781     1.0  0.62841  0.10606  0.07675  1.0000
  H   H1782     1.0  0.61916  0.09711  0.11189  1.0000
  H   H1783     1.0  0.54404  0.02656  0.18285  1.0000
  C   C2237     1.0  0.53329  0.09298  0.08638  1.0000
  C   C2238     1.0  0.64743  0.02797  0.10137  1.0000
  H   H1784     1.0  0.87116  0.32148  0.04204  1.0000
  C   C2239     1.0  0.63277  0.01842  0.11322  1.0000
  H   H1785     1.0  0.61086  0.08126  0.00364  1.0000
  C   C2240     1.0  0.53277  0.09382  0.12142  1.0000
  H   H1786     1.0  0.79892  0.23555  0.99773  1.0000
  C   C2241     1.0  0.55507  0.08538  0.04351  1.0000
  C   C2242     1.0  0.56079  0.03856  0.10857  1.0000
  C   C2243     1.0  0.59020  0.00472  0.05525  1.0000
  C   C2244     1.0  0.66453  0.23230  0.13131  1.0000
  H   H1787     1.0  0.57731  0.10343  0.09800  1.0000
  H   H1788     1.0  0.58493  0.99615  0.06850  1.0000
  C   C2245     1.0  0.56315  0.13923  0.06235  1.0000
  C   C2246     1.0  0.65462  0.14862  0.10256  1.0000
  C   C2247     1.0  0.87077  0.32534  0.18752  1.0000
  C   C2248     1.0  0.64731  0.06401  0.99301  1.0000
  C   C2249     1.0  0.59999  0.07734  0.99518  1.0000
  H   H1789     1.0  0.73056  0.02187  0.15040  1.0000
  C   C2250     1.0  0.59151  0.08850  0.05967  1.0000
  C   C2251     1.0  0.65255  0.21733  0.13116  1.0000
  C   C2252     1.0  0.68816  0.10388  0.04471  1.0000
  C   C2253     1.0  0.85912  0.31764  0.20401  1.0000
  H   H1790     1.0  0.64341  0.01901  0.20940  1.0000
  P   P77       1.0  0.70918  0.99483  0.17906  1.0000
  S   S305      1.0  0.79513  0.31904  0.24019  1.0000
  C   C2254     1.0  0.74056  0.11517  0.99717  1.0000
  H   H1791     1.0  0.62353  0.12057  0.16830  1.0000
  C   C2255     1.0  0.60693  0.18902  0.14150  1.0000
  H   H1792     1.0  0.64858  0.13884  0.11453  1.0000
  C   C2256     1.0  0.59687  0.07395  0.07466  1.0000
  C   C2257     1.0  0.63049  0.07099  0.05954  1.0000
  C   C2258     1.0  0.89950  0.31781  0.11104  1.0000
  H   H1793     1.0  0.65794  0.24719  0.13262  1.0000
  H   H1794     1.0  0.59230  0.01058  0.19985  1.0000
  C   C2259     1.0  0.52633  0.00322  0.18028  1.0000
  H   H1795     1.0  0.77553  0.30303  0.01359  1.0000
  H   H1796     1.0  0.65045  0.00292  0.06147  1.0000
  H   H1797     1.0  0.74230  0.05377  0.15299  1.0000
  C   C2260     1.0  0.95079  0.29570  0.00314  1.0000
  C   C2261     1.0  0.60580  0.09380  0.04431  1.0000
  H   H1798     1.0  0.70593  0.28295  0.05999  1.0000
  H   H1799     1.0  0.64864  0.11890  0.19149  1.0000
  H   H1800     1.0  0.73373  0.32356  0.09666  1.0000
  H   H1801     1.0  0.71427  0.31079  0.07502  1.0000
  C   C2262     1.0  0.78058  0.28851  0.00960  1.0000
  H   H1802     1.0  0.52561  0.09116  0.07407  1.0000
  H   H1803     1.0  0.65717  0.11077  0.05336  1.0000
  H   H1804     1.0  0.73577  0.03822  0.00073  1.0000
  C   C2263     1.0  0.71185  0.29519  0.05079  1.0000
  C   C2264     1.0  0.61466  0.19633  0.10643  1.0000
  C   C2265     1.0  0.84712  0.20053  0.21876  1.0000
  H   H1805     1.0  0.58726  0.02208  0.11747  1.0000
  H   H1806     1.0  0.76450  0.07823  0.21460  1.0000
  C   C2266     1.0  0.83481  0.21730  0.22349  1.0000
  C   C2267     1.0  0.57378  0.02157  0.11102  1.0000
  C   C2268     1.0  0.92320  0.28088  0.99494  1.0000
  H   H1807     1.0  0.74342  0.18831  0.02411  1.0000
  H   H1808     1.0  0.60215  0.10496  0.03256  1.0000
  S   S306      1.0  0.61731  0.22291  0.00816  1.0000
  H   H1809     1.0  0.64534  0.02671  0.02998  1.0000
  C   C2269     1.0  0.86836  0.30850  0.00218  1.0000
  H   H1810     1.0  0.56612  0.15396  0.00619  1.0000
  C   C2270     1.0  0.84018  0.29101  0.00092  1.0000
  C   C2271     1.0  0.72729  0.02839  0.16407  1.0000
  H   H1811     1.0  0.83651  0.31609  0.04037  1.0000
  C   C2272     1.0  0.77187  0.27262  0.02011  1.0000
  C   C2273     1.0  0.71372  0.18266  0.02196  1.0000
  C   C2274     1.0  0.64580  0.00698  0.07605  1.0000
  H   H1812     1.0  0.63675  0.22092  0.13225  1.0000
  H   H1813     1.0  0.66501  0.02984  0.07340  1.0000
  H   H1814     1.0  0.56424  0.05208  0.11318  1.0000
  H   H1815     1.0  0.72681  0.13836  0.01431  1.0000
  C   C2275     1.0  0.78739  0.27240  0.21715  1.0000
  C   C2276     1.0  0.78852  0.05984  0.22696  1.0000
  C   C2277     1.0  0.56523  0.14977  0.02187  1.0000
  C   C2278     1.0  0.59530  0.99563  0.20645  1.0000
  C   C2279     1.0  0.63964  0.04852  0.00539  1.0000
  H   H1816     1.0  0.59826  0.00252  0.00617  1.0000
  C   C2280     1.0  0.53138  0.08369  0.02054  1.0000
  C   C2281     1.0  0.77601  0.12464  0.00788  1.0000
  C   C2282     1.0  0.72781  0.32629  0.02705  1.0000
  C   C2283     1.0  0.65378  0.00618  0.20697  1.0000
  C   C2284     1.0  0.65562  0.16845  0.10456  1.0000
  H   H1817     1.0  0.64946  0.12357  0.02010  1.0000
  H   H1818     1.0  0.66278  0.19633  0.08904  1.0000
  H   H1819     1.0  0.52503  0.09255  0.13606  1.0000
  C   C2285     1.0  0.79758  0.24449  0.19874  1.0000
  H   H1820     1.0  0.62033  0.05483  0.08671  1.0000
  H   H1821     1.0  0.75806  0.14630  0.02403  1.0000
  H   H1822     1.0  0.87962  0.31536  0.17822  1.0000
  C   C2286     1.0  0.77835  0.25358  0.01570  1.0000
  C   C2287     1.0  0.62490  0.00296  0.10667  1.0000
  C   C2288     1.0  0.79367  0.25038  0.00085  1.0000
  H   H1823     1.0  0.53903  0.00690  0.02364  1.0000
  H   H1824     1.0  0.53202  0.05591  0.00916  1.0000
  C   C2289     1.0  0.67932  0.11796  0.00677  1.0000
  H   H1825     1.0  0.52424  0.01984  0.09043  1.0000
  C   C2290     1.0  0.88164  0.31746  0.12293  1.0000
  C   C2291     1.0  0.81589  0.21566  0.23326  1.0000
  H   H1826     1.0  0.85867  0.30194  0.20707  1.0000
  Fe  Fe156     1.0  0.63227  0.19416  0.99954  1.0000
  H   H1827     1.0  0.66960  0.07361  0.23656  1.0000
  H   H1828     1.0  0.82159  0.27349  0.23208  1.0000
  S   S307      1.0  0.73989  0.15095  0.23269  1.0000
  C   C2292     1.0  0.56231  0.09980  0.09986  1.0000
  C   C2293     1.0  0.85886  0.29154  0.00672  1.0000
  H   H1829     1.0  0.73192  0.20235  0.06685  1.0000
  H   H1830     1.0  0.73582  0.06876  0.18434  1.0000
  C   C2294     1.0  0.55322  0.05487  0.02992  1.0000
  C   C2295     1.0  0.75817  0.13480  0.01464  1.0000
  H   H1831     1.0  0.75312  0.31288  0.23899  1.0000
  C   C2296     1.0  0.74050  0.13017  0.00921  1.0000
  H   H1832     1.0  0.80275  0.22912  0.19803  1.0000
  C   C2297     1.0  0.54311  0.03788  0.10084  1.0000
  H   H1833     1.0  0.88264  0.30905  0.00712  1.0000
  H   H1834     1.0  0.83303  0.27784  0.00525  1.0000
  H   H1835     1.0  0.83621  0.30347  0.10196  1.0000
  C   C2298     1.0  0.66395  0.07176  0.99721  1.0000
  C   C2299     1.0  0.66045  0.15972  0.16158  1.0000
  H   H1836     1.0  0.78192  0.28453  0.16868  1.0000
  C   C2300     1.0  0.59819  0.00827  0.02005  1.0000
  H   H1837     1.0  0.55966  0.10018  0.13118  1.0000
  C   C2301     1.0  0.54214  0.99544  0.05364  1.0000
  H   H1838     1.0  0.51381  0.00936  0.18944  1.0000
  C   C2302     1.0  0.52322  0.09144  0.10525  1.0000
  C   C2303     1.0  0.61630  0.06554  0.07474  1.0000
  H   H1839     1.0  0.78494  0.27890  0.23087  1.0000
  C   C2304     1.0  0.68161  0.19406  0.12728  1.0000
  C   C2305     1.0  0.78286  0.28392  0.19987  1.0000
  C   C2306     1.0  0.66886  0.11091  0.04138  1.0000
  S   S308      1.0  0.56017  0.21677  0.00606  1.0000
  C   C2307     1.0  0.73136  0.19048  0.01508  1.0000
  C   C2308     1.0  0.63336  0.14614  0.15063  1.0000
  C   C2309     1.0  0.56158  0.15900  0.05488  1.0000
  H   H1840     1.0  0.70943  0.20591  0.12562  1.0000
  C   C2310     1.0  0.56238  0.16426  0.03468  1.0000
  H   H1841     1.0  0.68839  0.17938  0.12555  1.0000
  C   C2311     1.0  0.62517  0.08492  0.04416  1.0000
  C   C2312     1.0  0.78559  0.27571  0.18207  1.0000
  H   H1842     1.0  0.58616  0.06904  0.08638  1.0000
  H   H1843     1.0  0.67192  0.14412  0.18752  1.0000
  C   C2313     1.0  0.53831  0.06403  0.01889  1.0000
  H   H1844     1.0  0.83901  0.32425  0.22940  1.0000
  H   H1845     1.0  0.64136  0.15735  0.99811  1.0000
  C   C2314     1.0  0.72028  0.04518  0.19945  1.0000
  H   H1846     1.0  0.61125  0.18352  0.15587  1.0000
  H   H1847     1.0  0.56260  0.13559  0.07805  1.0000
  C   C2315     1.0  0.73334  0.20142  0.99668  1.0000
  S   S309      1.0  0.60546  0.17810  0.00603  1.0000
  C   C2316     1.0  0.55228  0.09807  0.11869  1.0000
  H   H1848     1.0  0.76027  0.27500  0.03195  1.0000
  P   P78       1.0  0.56619  0.09895  0.05927  1.0000
  C   C2317     1.0  0.64681  0.16025  0.14787  1.0000
  C   C2318     1.0  0.58729  0.19621  0.13976  1.0000
  C   C2319     1.0  0.69346  0.00393  0.12316  1.0000
  H   H1849     1.0  0.67474  0.04028  0.03716  1.0000
  H   H1850     1.0  0.55984  0.17029  0.06475  1.0000
  C   C2320     1.0  0.79152  0.12220  0.12192  1.0000
  C   C2321     1.0  0.79703  0.11608  0.14069  1.0000
  C   C2322     1.0  0.78333  0.11826  0.15711  1.0000
  C   C2323     1.0  0.76421  0.12687  0.15484  1.0000
  C   C2324     1.0  0.75870  0.13358  0.13605  1.0000
  C   C2325     1.0  0.77237  0.13073  0.11957  1.0000
  P   P79       1.0  0.73393  0.14458  0.13315  1.0000
  C   C2326     1.0  0.71822  0.12553  0.13233  1.0000
  C   C2327     1.0  0.72612  0.15787  0.15428  1.0000
  C   C2328     1.0  0.71578  0.14880  0.17102  1.0000
  C   C2329     1.0  0.71171  0.15808  0.18818  1.0000
  C   C2330     1.0  0.71787  0.17650  0.18879  1.0000
  C   C2331     1.0  0.72812  0.18567  0.17223  1.0000
  C   C2332     1.0  0.73231  0.17640  0.15508  1.0000
  C   C2333     1.0  0.69771  0.12965  0.13536  1.0000
  C   C2334     1.0  0.68547  0.11488  0.13535  1.0000
  C   C2335     1.0  0.69362  0.09591  0.13208  1.0000
  C   C2336     1.0  0.71403  0.09167  0.12894  1.0000
  C   C2337     1.0  0.72632  0.10638  0.12909  1.0000
  C   C2338     1.0  0.73374  0.16190  0.11124  1.0000
  C   C2339     1.0  0.74893  0.17405  0.10629  1.0000
  C   C2340     1.0  0.74830  0.18848  0.09030  1.0000
  C   C2341     1.0  0.73257  0.19086  0.07898  1.0000
  C   C2342     1.0  0.71763  0.17855  0.08343  1.0000
  C   C2343     1.0  0.71823  0.16400  0.09939  1.0000
  H   H1851     1.0  0.80217  0.12052  0.10921  1.0000
  H   H1852     1.0  0.81193  0.10969  0.14254  1.0000
  H   H1853     1.0  0.78756  0.11351  0.17168  1.0000
  H   H1854     1.0  0.75388  0.12841  0.16783  1.0000
  H   H1855     1.0  0.76835  0.13531  0.10492  1.0000
  H   H1856     1.0  0.71174  0.13412  0.17129  1.0000
  H   H1857     1.0  0.70455  0.15053  0.20129  1.0000
  H   H1858     1.0  0.71532  0.18337  0.20230  1.0000
  H   H1859     1.0  0.73357  0.19964  0.17291  1.0000
  H   H1860     1.0  0.74108  0.18351  0.14290  1.0000
  H   H1861     1.0  0.69123  0.14425  0.13791  1.0000
  H   H1862     1.0  0.66966  0.11802  0.13815  1.0000
  H   H1863     1.0  0.68412  0.08444  0.13217  1.0000
  H   H1864     1.0  0.72029  0.07689  0.12657  1.0000
  H   H1865     1.0  0.74207  0.10270  0.12683  1.0000
  H   H1866     1.0  0.76117  0.17263  0.11501  1.0000
  H   H1867     1.0  0.70545  0.18057  0.07465  1.0000
  H   H1868     1.0  0.70637  0.15479  0.10257  1.0000
  C   C2344     1.0  0.66673  0.04735  0.02521  1.0000
  C   C2345     1.0  0.67361  0.06351  0.01339  1.0000
  H   H1869     1.0  0.95861  0.30073  0.01397  1.0000
  C   C2346     1.0  0.84062  0.18201  0.22372  1.0000
  P   P80       1.0  0.80044  0.23770  0.23903  1.0000
  C   C2347     1.0  0.64989  0.03975  0.02115  1.0000
  C   C2348     1.0  0.86523  0.30874  0.05018  1.0000
  C   C2349     1.0  0.60628  0.02577  0.02115  1.0000
  C   C2350     1.0  0.73059  0.05479  0.18318  1.0000
  H   H1870     1.0  0.57262  0.05808  0.05105  1.0000
  C   C2351     1.0  0.68501  0.22818  0.12936  1.0000
  H   H1871     1.0  0.83998  0.23158  0.21944  1.0000
  C   C2352     1.0  0.66103  0.19807  0.12915  1.0000
  C   C2353     1.0  0.79586  0.28550  0.99449  1.0000
  C   C2354     1.0  0.66257  0.18080  0.08817  1.0000
  C   C2355     1.0  0.76246  0.32090  0.12803  1.0000
  C   C2356     1.0  0.76882  0.06744  0.22646  1.0000
  C   C2357     1.0  0.59742  0.02251  0.05638  1.0000
  C   C2358     1.0  0.60529  0.03309  0.03935  1.0000
  H   H1872     1.0  0.63591  0.99782  0.00076  1.0000
  H   H1873     1.0  0.71151  0.28214  0.02416  1.0000
  H   H1874     1.0  0.67066  0.17063  0.16033  1.0000
  C   C2359     1.0  0.64804  0.13054  0.17946  1.0000
  Fe  Fe157     1.0  0.91726  0.32419  0.04678  1.0000
  H   H1875     1.0  0.68677  0.06920  0.01639  1.0000
  H   H1876     1.0  0.71209  0.17433  0.03627  1.0000
  H   H1877     1.0  0.56932  0.11897  0.01915  1.0000
  C   C2360     1.0  0.56001  0.00533  0.16492  1.0000
  C   C2361     1.0  0.65389  0.02231  0.08272  1.0000
  C   C2362     1.0  0.59505  0.20363  0.10477  1.0000
  H   H1878     1.0  0.67285  0.18340  0.05747  1.0000
  H   H1879     1.0  0.56099  0.17959  0.02893  1.0000
  C   C2363     1.0  0.56701  0.12998  0.02928  1.0000
  C   C2364     1.0  0.67185  0.00842  0.19584  1.0000
  H   H1880     1.0  0.90246  0.30919  0.09866  1.0000
  C   C2365     1.0  0.70312  0.10410  0.02909  1.0000
  H   H1881     1.0  0.59755  0.02770  0.07056  1.0000
  H   H1882     1.0  0.61105  0.04675  0.04041  1.0000
  C   C2366     1.0  0.84547  0.30573  0.04944  1.0000
  H   H1883     1.0  0.75991  0.19806  0.08691  1.0000
  C   C2367     1.0  0.55302  0.09695  0.08357  1.0000
  C   C2368     1.0  0.58134  0.20346  0.12139  1.0000
  C   C2369     1.0  0.66743  0.15372  0.06833  1.0000
  C   C2370     1.0  0.69805  0.18584  0.01047  1.0000
  C   C2371     1.0  0.79282  0.25599  0.18154  1.0000
  P   P81       1.0  0.61811  0.03874  0.99961  1.0000
  H   H1884     1.0  0.56611  0.20897  0.12002  1.0000
  C   C2372     1.0  0.82189  0.18024  0.23357  1.0000
  H   H1885     1.0  0.68437  0.17979  0.01572  1.0000
  C   C2373     1.0  0.63398  0.13139  0.16634  1.0000
  C   C2374     1.0  0.66830  0.17349  0.07014  1.0000
  H   H1886     1.0  0.87084  0.30845  0.11976  1.0000
  H   H1887     1.0  0.64558  0.06446  0.05980  1.0000
  C   C2375     1.0  0.53832  0.02017  0.09580  1.0000
  C   C2376     1.0  0.79522  0.25271  0.21663  1.0000
  H   H1888     1.0  0.77720  0.29921  0.20030  1.0000
  C   C2377     1.0  0.66079  0.14126  0.08459  1.0000
  H   H1889     1.0  0.65959  0.12604  0.08314  1.0000
  H   H1890     1.0  0.59053  0.20940  0.09052  1.0000
  C   C2378     1.0  0.53957  0.09429  0.03295  1.0000
  C   C2379     1.0  0.54352  0.01305  0.17656  1.0000
  H   H1891     1.0  0.92802  0.28490  0.02440  1.0000
  C   C2380     1.0  0.93351  0.28689  0.00899  1.0000
  C   C2381     1.0  0.73412  0.04638  0.16551  1.0000
  C   C2382     1.0  0.56138  0.06545  0.04235  1.0000
  C   C2383     1.0  0.83275  0.31726  0.10833  1.0000
  H   H1892     1.0  0.78971  0.12822  0.01209  1.0000
  H   H1893     1.0  0.50799  0.08840  0.10738  1.0000
  H   H1894     1.0  0.70577  0.01981  0.21095  1.0000
  C   C2384     1.0  0.74936  0.31270  0.16169  1.0000
  C   C2385     1.0  0.71664  0.31112  0.05927  1.0000
  C   C2386     1.0  0.71654  0.01885  0.18025  1.0000
  H   H1895     1.0  0.77165  0.24132  0.02408  1.0000
  C   C2387     1.0  0.71506  0.29472  0.03051  1.0000
  H   H1896     1.0  0.76954  0.21676  0.22856  1.0000
  H   H1897     1.0  0.71752  0.05175  0.21313  1.0000
  H   H1898     1.0  0.81671  0.16591  0.23706  1.0000
  C   C2388     1.0  0.72461  0.32689  0.04749  1.0000
  H   H1899     1.0  0.73506  0.07245  0.00815  1.0000
  H   H1900     1.0  0.72274  0.24229  0.99400  1.0000
  H   H1901     1.0  0.61412  0.99515  0.11623  1.0000
  H   H1902     1.0  0.76536  0.31741  0.11305  1.0000
  C   C2389     1.0  0.72303  0.31028  0.01862  1.0000
  C   C2390     1.0  0.59061  0.99757  0.03715  1.0000
  H   H1903     1.0  0.80057  0.32146  0.03736  1.0000
  H   H1904     1.0  0.58731  0.00299  0.23594  1.0000
  H   H1905     1.0  0.87035  0.11383  0.23569  1.0000
  C   C2391     1.0  0.82477  0.31741  0.12788  1.0000
  H   H1906     1.0  0.86163  0.20190  0.21108  1.0000
  C   C2392     1.0  0.72845  0.06956  0.99549  1.0000
  H   H1907     1.0  0.69941  0.09048  0.23750  1.0000
  H   H1908     1.0  0.85001  0.16901  0.21981  1.0000
  H   H1909     1.0  0.73916  0.27143  0.99624  1.0000
  H   H1910     1.0  0.90970  0.27422  0.99956  1.0000
  C   C2393     1.0  0.75467  0.06126  0.24139  1.0000
  H   H1911     1.0  0.73943  0.06729  0.24099  1.0000
  C   C2394     1.0  0.76458  0.22214  0.24264  1.0000
  C   C2395     1.0  0.79411  0.04603  0.24237  1.0000
  H   H1912     1.0  0.80939  0.04022  0.24229  1.0000
  H   H1913     1.0  0.84093  0.06394  0.37282  1.0000
  C   C2396     1.0  0.66095  0.26321  0.43724  1.0000
  Fe  Fe158     1.0  0.93907  0.16078  0.45438  1.0000
  S   S310      1.0  0.94628  0.19157  0.45418  1.0000
  C   C2397     1.0  0.86588  0.00157  0.34802  1.0000
  Fe  Fe159     1.0  0.96692  0.15282  0.41797  1.0000
  S   S311      1.0  0.97619  0.18333  0.41484  1.0000
  S   S312      1.0  0.97900  0.12643  0.40184  1.0000
  Fe  Fe160     1.0  0.97779  0.17908  0.44784  1.0000
  C   C2398     1.0  0.81768  0.16167  0.30764  1.0000
  Fe  Fe161     1.0  0.94350  0.19283  0.42180  1.0000
  S   S313      1.0  0.92476  0.21822  0.40617  1.0000
  S   S314      1.0  0.97032  0.14811  0.45007  1.0000
  S   S315      1.0  0.93466  0.16253  0.42267  1.0000
  Fe  Fe162     1.0  0.94429  0.08949  0.31194  1.0000
  S   S316      1.0  0.94998  0.07847  0.28218  1.0000
  S   S317      1.0  0.95908  0.11577  0.31679  1.0000
  Fe  Fe163     1.0  0.91546  0.05987  0.32661  1.0000
  S   S318      1.0  0.91864  0.04724  0.29787  1.0000
  S   S319      1.0  0.89549  0.04777  0.35211  1.0000
  Fe  Fe164     1.0  0.95121  0.04825  0.29891  1.0000
  Fe  Fe165     1.0  0.75009  0.14157  0.26241  1.0000
  Fe  Fe166     1.0  0.91692  0.07848  0.28448  1.0000
  S   S320      1.0  0.94766  0.05948  0.32838  1.0000
  S   S321      1.0  0.91144  0.09108  0.31332  1.0000
  Fe  Fe167     1.0  0.78845  0.23372  0.34216  1.0000
  S   S322      1.0  0.78381  0.22571  0.37475  1.0000
  S   S323      1.0  0.79001  0.21509  0.31709  1.0000
  Fe  Fe168     1.0  0.80034  0.27369  0.34644  1.0000
  S   S324      1.0  0.79743  0.26845  0.37941  1.0000
  S   S325      1.0  0.80789  0.30273  0.33029  1.0000
  Fe  Fe169     1.0  0.81258  0.23817  0.37562  1.0000
  S   S326      1.0  0.83363  0.21839  0.39478  1.0000
  Fe  Fe170     1.0  0.76911  0.25657  0.37604  1.0000
  S   S327      1.0  0.74341  0.26751  0.39749  1.0000
  S   S328      1.0  0.81785  0.24459  0.34290  1.0000
  S   S329      1.0  0.77141  0.26345  0.34328  1.0000
  S   S330      1.0  0.59951  0.30535  0.40762  1.0000
  C   C2399     1.0  0.83315  0.07805  0.41889  1.0000
  Fe  Fe171     1.0  0.63208  0.30792  0.40018  1.0000
  S   S331      1.0  0.65263  0.28418  0.38568  1.0000
  H   H1914     1.0  0.66902  0.20730  0.41305  1.0000
  C   C2400     1.0  0.68981  0.18932  0.43031  1.0000
  C   C2401     1.0  0.84915  0.06690  0.42687  1.0000
  C   C2402     1.0  0.75603  0.21681  0.42378  1.0000
  H   H1915     1.0  0.96154  0.06153  0.44926  1.0000
  C   C2403     1.0  0.68315  0.31650  0.24831  1.0000
  H   H1916     1.0  0.72957  0.20643  0.38922  1.0000
  C   C2404     1.0  0.80261  0.30769  0.30569  1.0000
  C   C2405     1.0  0.82043  0.15640  0.28854  1.0000
  H   H1917     1.0  0.77543  0.12593  0.31510  1.0000
  H   H1918     1.0  0.91694  0.01861  0.32914  1.0000
  C   C2406     1.0  0.79215  0.29773  0.27635  1.0000
  C   C2407     1.0  0.79515  0.29379  0.29628  1.0000
  P   P82       1.0  0.80676  0.10994  0.34056  1.0000
  C   C2408     1.0  0.84474  0.02580  0.28088  1.0000
  C   C2409     1.0  0.81306  0.12805  0.32040  1.0000
  H   H1919     1.0  0.79234  0.27974  0.30414  1.0000
  C   C2410     1.0  0.71859  0.27300  0.39274  1.0000
  C   C2411     1.0  0.71048  0.26315  0.37967  1.0000
  C   C2412     1.0  0.69031  0.26698  0.37731  1.0000
  C   C2413     1.0  0.67816  0.28087  0.38783  1.0000
  C   C2414     1.0  0.68637  0.29101  0.40060  1.0000
  C   C2415     1.0  0.70643  0.28685  0.40326  1.0000
  H   H1920     1.0  0.71964  0.25215  0.37189  1.0000
  H   H1921     1.0  0.68402  0.25890  0.36757  1.0000
  H   H1922     1.0  0.67711  0.30155  0.40890  1.0000
  H   H1923     1.0  0.71258  0.29455  0.41338  1.0000
  H   H1924     1.0  0.71345  0.17236  0.44420  1.0000
  H   H1925     1.0  0.63943  0.29719  0.34366  1.0000
  H   H1926     1.0  0.74082  0.22144  0.42166  1.0000
  C   C2416     1.0  0.83447  0.18073  0.36618  1.0000
  S   S332      1.0  0.97065  0.01946  0.29427  1.0000
  C   C2417     1.0  0.88982  0.13527  0.38284  1.0000
  C   C2418     1.0  0.86245  0.08046  0.27524  1.0000
  C   C2419     1.0  0.86904  0.12371  0.45329  1.0000
  C   C2420     1.0  0.74063  0.10213  0.34428  1.0000
  H   H1927     1.0  0.88052  0.08924  0.40161  1.0000
  C   C2421     1.0  0.90004  0.13765  0.46850  1.0000
  C   C2422     1.0  0.89199  0.14797  0.45211  1.0000
  C   C2423     1.0  0.87652  0.14097  0.44446  1.0000
  C   C2424     1.0  0.82311  0.26657  0.24677  1.0000
  H   H1928     1.0  0.89730  0.16162  0.44566  1.0000
  H   H1929     1.0  0.87013  0.14914  0.43199  1.0000
  C   C2425     1.0  0.89968  0.21756  0.40220  1.0000
  C   C2426     1.0  0.88936  0.20144  0.40932  1.0000
  C   C2427     1.0  0.86931  0.20185  0.40664  1.0000
  C   C2428     1.0  0.85930  0.21823  0.39653  1.0000
  C   C2429     1.0  0.86971  0.23416  0.38898  1.0000
  C   C2430     1.0  0.88972  0.23385  0.39192  1.0000
  H   H1930     1.0  0.89671  0.18879  0.41726  1.0000
  H   H1931     1.0  0.86148  0.18943  0.41259  1.0000
  H   H1932     1.0  0.86227  0.24689  0.38122  1.0000
  H   H1933     1.0  0.89750  0.24640  0.38631  1.0000
  C   C2431     1.0  0.97185  0.12458  0.37850  1.0000
  C   C2432     1.0  0.96377  0.10773  0.37526  1.0000
  C   C2433     1.0  0.95934  0.10505  0.35650  1.0000
  C   C2434     1.0  0.96338  0.11912  0.34072  1.0000
  C   C2435     1.0  0.97164  0.13593  0.34385  1.0000
  H   H1934     1.0  0.99187  0.08145  0.31183  1.0000
  H   H1935     1.0  0.96114  0.09666  0.38727  1.0000
  H   H1936     1.0  0.95321  0.09195  0.35416  1.0000
  C   C2436     1.0  0.77919  0.01784  0.31819  1.0000
  H   H1937     1.0  0.98047  0.01794  0.40968  1.0000
  C   C2437     1.0  0.75091  0.17349  0.29727  1.0000
  C   C2438     1.0  0.76691  0.18026  0.28509  1.0000
  C   C2439     1.0  0.77856  0.19295  0.29154  1.0000
  C   C2440     1.0  0.77399  0.19975  0.30999  1.0000
  C   C2441     1.0  0.75742  0.19384  0.32199  1.0000
  C   C2442     1.0  0.74598  0.18061  0.31567  1.0000
  H   H1938     1.0  0.77017  0.17608  0.27049  1.0000
  H   H1939     1.0  0.79112  0.19771  0.28203  1.0000
  H   H1940     1.0  0.75388  0.19885  0.33633  1.0000
  H   H1941     1.0  0.73354  0.17557  0.32518  1.0000
  C   C2443     1.0  0.74515  0.15923  0.38551  1.0000
  H   H1942     1.0  0.86115  0.02691  0.36388  1.0000
  H   H1943     1.0  0.87032  0.07095  0.28592  1.0000
  C   C2444     1.0  0.89336  0.19707  0.46942  1.0000
  Fe  Fe172     1.0  0.78363  0.11257  0.24676  1.0000
  C   C2445     1.0  0.73112  0.32594  0.45983  1.0000
  H   H1944     1.0  0.80498  0.05408  0.43814  1.0000
  H   H1945     1.0  0.85747  0.16112  0.37808  1.0000
  C   C2446     1.0  0.88964  0.02503  0.34697  1.0000
  C   C2447     1.0  0.86202  0.05434  0.41560  1.0000
  C   C2448     1.0  0.90262  0.01404  0.33429  1.0000
  C   C2449     1.0  0.74645  0.21754  0.25234  1.0000
  C   C2450     1.0  0.87282  0.09249  0.26096  1.0000
  C   C2451     1.0  0.86471  0.16941  0.34700  1.0000
  C   C2452     1.0  0.80048  0.12823  0.39579  1.0000
  H   H1946     1.0  0.84991  0.12683  0.38690  1.0000
  H   H1947     1.0  0.67863  0.18457  0.44172  1.0000
  P   P83       1.0  0.78655  0.02193  0.27758  1.0000
  H   H1948     1.0  0.98721  0.05211  0.33504  1.0000
  H   H1949     1.0  0.81721  0.08485  0.39358  1.0000
  C   C2453     1.0  0.84200  0.08025  0.27528  1.0000
  H   H1950     1.0  0.81455  0.20178  0.35087  1.0000
  C   C2454     1.0  0.75128  0.31093  0.34001  1.0000
  H   H1951     1.0  0.75152  0.00470  0.29852  1.0000
  C   C2455     1.0  0.74149  0.31528  0.35809  1.0000
  C   C2456     1.0  0.71085  0.30849  0.34777  1.0000
  C   C2457     1.0  0.72063  0.30382  0.32961  1.0000
  C   C2458     1.0  0.74100  0.30500  0.32590  1.0000
  P   P84       1.0  0.70778  0.29436  0.31205  1.0000
  C   C2459     1.0  0.70862  0.26803  0.31707  1.0000
  C   C2460     1.0  0.68225  0.30452  0.31461  1.0000
  C   C2461     1.0  0.66904  0.29588  0.32930  1.0000
  C   C2462     1.0  0.64937  0.30376  0.33198  1.0000
  H   H1952     1.0  0.75849  0.11694  0.47937  1.0000
  H   H1953     1.0  0.72622  0.21984  0.27845  1.0000
  H   H1954     1.0  0.74966  0.31902  0.36931  1.0000
  H   H1955     1.0  0.94874  0.16760  0.37309  1.0000
  C   C2463     1.0  0.79636  0.12270  0.37801  1.0000
  C   C2464     1.0  0.71085  0.22697  0.32358  1.0000
  C   C2465     1.0  0.72323  0.23709  0.33235  1.0000
  C   C2466     1.0  0.72211  0.25752  0.32912  1.0000
  C   C2467     1.0  0.72018  0.30068  0.28785  1.0000
  C   C2468     1.0  0.72635  0.28625  0.27503  1.0000
  C   C2469     1.0  0.65824  0.30400  0.48779  1.0000
  H   H1956     1.0  0.86811  0.18284  0.31694  1.0000
  C   C2470     1.0  0.81429  0.24945  0.25402  1.0000
  H   H1957     1.0  0.69533  0.30712  0.35142  1.0000
  H   H1958     1.0  0.74920  0.30080  0.31238  1.0000
  H   H1959     1.0  0.67395  0.28324  0.33905  1.0000
  C   C2471     1.0  0.88555  0.13643  0.29229  1.0000
  C   C2472     1.0  0.72126  0.31437  0.36183  1.0000
  S   S333      1.0  0.80823  0.03271  0.47727  1.0000
  C   C2473     1.0  0.96907  0.05743  0.43541  1.0000
  H   H1960     1.0  0.71190  0.21110  0.32591  1.0000
  H   H1961     1.0  0.73384  0.22914  0.34156  1.0000
  H   H1962     1.0  0.73175  0.26505  0.33610  1.0000
  H   H1963     1.0  0.72277  0.27137  0.27875  1.0000
  C   C2474     1.0  0.70960  0.18247  0.43168  1.0000
  H   H1964     1.0  0.92619  0.15148  0.32008  1.0000
  H   H1965     1.0  0.74039  0.12177  0.31760  1.0000
  C   C2475     1.0  0.88742  0.11900  0.39665  1.0000
  S   S334      1.0  0.80662  0.00450  0.39202  1.0000
  C   C2476     1.0  0.81255  0.01552  0.27890  1.0000
  C   C2477     1.0  0.97595  0.13862  0.36268  1.0000
  C   C2478     1.0  0.69806  0.25316  0.45030  1.0000
  H   H1966     1.0  0.91139  0.21896  0.35489  1.0000
  C   C2479     1.0  0.84257  0.08841  0.32973  1.0000
  C   C2480     1.0  0.90498  0.13593  0.28365  1.0000
  C   C2481     1.0  0.98647  0.06660  0.40366  1.0000
  C   C2482     1.0  0.85474  0.07140  0.32564  1.0000
  C   C2483     1.0  0.84683  0.05357  0.32682  1.0000
  H   H1967     1.0  0.87030  0.07205  0.32116  1.0000
  H   H1968     1.0  0.85619  0.04055  0.32296  1.0000
  C   C2484     1.0  0.76424  0.19738  0.42215  1.0000
  C   C2485     1.0  0.76764  0.23074  0.42803  1.0000
  C   C2486     1.0  0.78747  0.22547  0.43045  1.0000
  C   C2487     1.0  0.79562  0.20615  0.42911  1.0000
  C   C2488     1.0  0.78405  0.19212  0.42514  1.0000
  C   C2489     1.0  0.75736  0.17025  0.39369  1.0000
  H   H1969     1.0  0.90182  0.21939  0.44644  1.0000
  C   C2490     1.0  0.78096  0.10649  0.34155  1.0000
  C   C2491     1.0  0.98009  0.02711  0.36681  1.0000
  C   C2492     1.0  0.77469  0.17564  0.38256  1.0000
  S   S335      1.0  0.84700  0.06837  0.48180  1.0000
  H   H1970     1.0  0.79663  0.23640  0.43303  1.0000
  H   H1971     1.0  0.81110  0.20224  0.43069  1.0000
  H   H1972     1.0  0.79063  0.17723  0.42402  1.0000
  C   C2493     1.0  0.88263  0.09973  0.37094  1.0000
  H   H1973     1.0  0.91322  0.05200  0.39296  1.0000
  C   C2494     1.0  0.87711  0.00899  0.40724  1.0000
  H   H1974     1.0  0.78433  0.18431  0.38817  1.0000
  H   H1975     1.0  0.65468  0.28146  0.46042  1.0000
  C   C2495     1.0  0.75533  0.14815  0.47135  1.0000
  H   H1976     1.0  0.87149  0.10013  0.47661  1.0000
  C   C2496     1.0  0.83167  0.09196  0.26097  1.0000
  C   C2497     1.0  0.80632  0.32581  0.29523  1.0000
  C   C2498     1.0  0.83389  0.27521  0.25871  1.0000
  C   C2499     1.0  0.76023  0.04760  0.25692  1.0000
  C   C2500     1.0  0.85190  0.00645  0.28665  1.0000
  H   H1977     1.0  0.74910  0.04297  0.26842  1.0000
  C   C2501     1.0  0.53623  0.29623  0.48079  1.0000
  H   H1978     1.0  0.79534  0.13595  0.47908  1.0000
  H   H1979     1.0  0.83996  0.28885  0.25336  1.0000
  H   H1980     1.0  0.84294  0.18201  0.44895  1.0000
  C   C2502     1.0  0.97984  0.03294  0.41297  1.0000
  C   C2503     1.0  0.87833  0.03192  0.45075  1.0000
  C   C2504     1.0  0.93536  0.99416  0.27979  1.0000
  C   C2505     1.0  0.81984  0.99610  0.28479  1.0000
  C   C2506     1.0  0.77426  0.02474  0.33654  1.0000
  C   C2507     1.0  0.97047  0.03806  0.43104  1.0000
  S   S336      1.0  0.91937  0.14609  0.47825  1.0000
  C   C2508     1.0  0.67543  0.32126  0.30268  1.0000
  H   H1981     1.0  0.75633  0.15146  0.48614  1.0000
  H   H1982     1.0  0.52769  0.28663  0.47486  1.0000
  H   H1983     1.0  0.71261  0.24925  0.45498  1.0000
  C   C2509     1.0  0.81140  0.99835  0.43221  1.0000
  H   H1984     1.0  0.65946  0.27802  0.27090  1.0000
  H   H1985     1.0  0.73780  0.20836  0.24592  1.0000
  C   C2510     1.0  0.76873  0.04470  0.33783  1.0000
  S   S337      1.0  0.75191  0.10939  0.25830  1.0000
  H   H1986     1.0  0.76701  0.31151  0.33719  1.0000
  C   C2511     1.0  0.85466  0.21186  0.46398  1.0000
  H   H1987     1.0  0.78871  0.13139  0.40716  1.0000
  H   H1988     1.0  0.89234  0.14896  0.38781  1.0000
  C   C2512     1.0  0.81986  0.12949  0.39898  1.0000
  C   C2513     1.0  0.81580  0.12285  0.30114  1.0000
  S   S338      1.0  0.89875  0.09240  0.25984  1.0000
  C   C2514     1.0  0.82687  0.05257  0.33283  1.0000
  H   H1989     1.0  0.68754  0.22946  0.30499  1.0000
  H   H1990     1.0  0.68545  0.26568  0.29920  1.0000
  H   H1991     1.0  0.81771  0.17686  0.31001  1.0000
  C   C2515     1.0  0.83625  0.26665  0.27777  1.0000
  C   C2516     1.0  0.68438  0.20211  0.41413  1.0000
  C   C2517     1.0  0.99537  0.06317  0.33900  1.0000
  P   P85       1.0  0.74956  0.17878  0.41747  1.0000
  C   C2518     1.0  0.82692  0.17075  0.47624  1.0000
  H   H1992     1.0  0.70424  0.23567  0.42612  1.0000
  C   C2519     1.0  0.81168  0.11811  0.36332  1.0000
  H   H1993     1.0  0.73149  0.15523  0.39362  1.0000
  Fe  Fe173     1.0  0.83436  0.09838  0.47091  1.0000
  H   H1994     1.0  0.81243  0.15187  0.33820  1.0000
  C   C2520     1.0  0.90072  0.07246  0.43586  1.0000
  H   H1995     1.0  0.92704  0.14662  0.36126  1.0000
  C   C2521     1.0  0.77657  0.23289  0.25138  1.0000
  C   C2522     1.0  0.85836  0.19575  0.47803  1.0000
  H   H1996     1.0  0.87991  0.08591  0.36638  1.0000
  C   C2523     1.0  0.87712  0.11346  0.46967  1.0000
  H   H1997     1.0  0.78119  0.12210  0.37596  1.0000
  C   C2524     1.0  0.75211  0.09214  0.35844  1.0000
  H   H1998     1.0  0.68558  0.23557  0.49195  1.0000
  H   H1999     1.0  0.82543  0.18093  0.38012  1.0000
  H   H2000     1.0  0.93538  0.07788  0.38751  1.0000
  C   C2525     1.0  0.91127  0.01301  0.40914  1.0000
  C   C2526     1.0  0.75030  0.15353  0.36665  1.0000
  C   C2527     1.0  0.98793  0.04717  0.39905  1.0000
  C   C2528     1.0  0.71940  0.29534  0.45512  1.0000
  C   C2529     1.0  0.79657  0.31557  0.26572  1.0000
  C   C2530     1.0  0.99402  0.01009  0.30199  1.0000
  H   H2001     1.0  0.77810  0.24886  0.27631  1.0000
  H   H2002     1.0  0.72031  0.28320  0.44645  1.0000
  C   C2531     1.0  0.73155  0.31019  0.44880  1.0000
  H   H2003     1.0  0.85434  0.03732  0.27965  1.0000
  C   C2532     1.0  0.72586  0.31963  0.28262  1.0000
  C   C2533     1.0  0.77460  0.00080  0.27457  1.0000
  H   H2004     1.0  0.75248  0.17830  0.45938  1.0000
  C   C2534     1.0  0.80514  0.14659  0.47252  1.0000
  H   H2005     1.0  0.64675  0.26746  0.43179  1.0000
  H   H2006     1.0  0.67121  0.24459  0.41457  1.0000
  C   C2535     1.0  0.66568  0.27132  0.45342  1.0000
  H   H2007     1.0  0.86975  0.04540  0.38657  1.0000
  H   H2008     1.0  0.82290  0.16742  0.27624  1.0000
  C   C2536     1.0  0.91947  0.14157  0.29368  1.0000
  C   C2537     1.0  0.81747  0.24052  0.27288  1.0000
  C   C2538     1.0  0.73990  0.22408  0.27061  1.0000
  S   S339      1.0  0.80314  0.09145  0.47416  1.0000
  H   H2009     1.0  0.74141  0.30936  0.43538  1.0000
  C   C2539     1.0  0.80993  0.14888  0.45227  1.0000
  C   C2540     1.0  0.69717  0.23734  0.31173  1.0000
  H   H2010     1.0  0.75236  0.13540  0.41874  1.0000
  C   C2541     1.0  0.88059  0.14266  0.31095  1.0000
  C   C2542     1.0  0.74925  0.11416  0.32871  1.0000
  C   C2543     1.0  0.93596  0.17419  0.36613  1.0000
  H   H2011     1.0  0.94142  0.20360  0.36931  1.0000
  S   S340      1.0  0.63446  0.32012  0.42840  1.0000
  C   C2544     1.0  0.85718  0.01508  0.47633  1.0000
  H   H2012     1.0  0.87449  0.13152  0.28464  1.0000
  H   H2013     1.0  0.85165  0.06833  0.44170  1.0000
  C   C2545     1.0  0.75237  0.15895  0.43690  1.0000
  C   C2546     1.0  0.75326  0.13927  0.43326  1.0000
  C   C2547     1.0  0.71856  0.20153  0.40077  1.0000
  C   C2548     1.0  0.94576  0.02286  0.36525  1.0000
  H   H2014     1.0  0.82082  0.03864  0.33389  1.0000
  H   H2015     1.0  0.84892  0.10219  0.32760  1.0000
  H   H2016     1.0  0.88407  0.11434  0.34187  1.0000
  H   H2017     1.0  0.82327  0.08766  0.42782  1.0000
  C   C2549     1.0  0.83104  0.12007  0.36653  1.0000
  H   H2018     1.0  0.86697  0.00295  0.29008  1.0000
  C   C2550     1.0  0.77855  0.03087  0.30098  1.0000
  H   H2019     1.0  0.85056  0.02221  0.44657  1.0000
  C   C2551     1.0  0.92343  0.16240  0.35967  1.0000
  C   C2552     1.0  0.93177  0.19453  0.36411  1.0000
  C   C2553     1.0  0.70616  0.31214  0.48342  1.0000
  C   C2554     1.0  0.86244  0.10452  0.24686  1.0000
  H   H2020     1.0  0.93027  0.02769  0.36842  1.0000
  C   C2555     1.0  0.75325  0.16327  0.45612  1.0000
  C   C2556     1.0  0.72410  0.18846  0.41685  1.0000
  H   H2021     1.0  0.83417  0.07090  0.28645  1.0000
  H   H2022     1.0  0.86552  0.14262  0.31757  1.0000
  H   H2023     1.0  0.88874  0.19857  0.34410  1.0000
  C   C2557     1.0  0.83502  0.12567  0.38429  1.0000
  C   C2558     1.0  0.69601  0.25782  0.30850  1.0000
  C   C2559     1.0  0.88337  0.10142  0.39075  1.0000
  C   C2560     1.0  0.75554  0.12418  0.44852  1.0000
  H   H2024     1.0  0.69459  0.21847  0.38701  1.0000
  C   C2561     1.0  0.89510  0.14842  0.32112  1.0000
  C   C2562     1.0  0.91485  0.20318  0.35593  1.0000
  H   H2025     1.0  0.90572  0.03835  0.45987  1.0000
  H   H2026     1.0  0.90823  0.19099  0.47143  1.0000
  C   C2563     1.0  0.69876  0.20832  0.39943  1.0000
  H   H2027     1.0  0.75654  0.10898  0.44569  1.0000
  C   C2564     1.0  0.88504  0.11595  0.35706  1.0000
  C   C2565     1.0  0.90615  0.17096  0.35178  1.0000
  C   C2566     1.0  0.90201  0.19148  0.34987  1.0000
  C   C2567     1.0  0.80874  0.01183  0.41565  1.0000
  H   H2028     1.0  0.84314  0.11721  0.35546  1.0000
  C   C2568     1.0  0.88819  0.13399  0.36295  1.0000
  C   C2569     1.0  0.95996  0.03285  0.37151  1.0000
  S   S341      1.0  0.80620  0.08992  0.26084  1.0000
  C   C2570     1.0  0.91459  0.14773  0.31238  1.0000
  C   C2571     1.0  0.68434  0.26642  0.46007  1.0000
  P   P86       1.0  0.88878  0.15570  0.34555  1.0000
  C   C2572     1.0  0.64896  0.32699  0.25833  1.0000
  H   H2029     1.0  0.92240  0.02051  0.41403  1.0000
  H   H2030     1.0  0.82331  0.13322  0.41287  1.0000
  C   C2573     1.0  0.56592  0.31267  0.47838  1.0000
  C   C2574     1.0  0.67474  0.25019  0.42756  1.0000
  H   H2031     1.0  0.88818  0.12011  0.41204  1.0000
  C   C2575     1.0  0.82244  0.08762  0.33587  1.0000
  C   C2576     1.0  0.81473  0.06948  0.33740  1.0000
  H   H2032     1.0  0.82157  0.13286  0.27051  1.0000
  H   H2033     1.0  0.81460  0.10797  0.29829  1.0000
  H   H2034     1.0  0.84374  0.00833  0.48098  1.0000
  H   H2035     1.0  0.76138  0.24576  0.42907  1.0000
  C   C2577     1.0  0.82819  0.24921  0.28478  1.0000
  H   H2036     1.0  0.84409  0.27366  0.28722  1.0000
  H   H2037     1.0  0.99187  0.07819  0.39331  1.0000
  H   H2038     1.0  0.79938  0.06821  0.34179  1.0000
  C   C2578     1.0  0.77220  0.09421  0.35703  1.0000
  C   C2579     1.0  0.85269  0.16940  0.36491  1.0000
  S   S342      1.0  0.84905  0.11529  0.44461  1.0000
  C   C2580     1.0  0.84062  0.19341  0.33210  1.0000
  C   C2581     1.0  0.81964  0.13696  0.28532  1.0000
  C   C2582     1.0  0.87784  0.18837  0.48053  1.0000
  C   C2583     1.0  0.85930  0.05399  0.39587  1.0000
  C   C2584     1.0  0.77952  0.17032  0.36356  1.0000
  C   C2585     1.0  0.76929  0.11639  0.32731  1.0000
  C   C2586     1.0  0.85867  0.18179  0.33066  1.0000
  H   H2039     1.0  0.78091  0.08635  0.36813  1.0000
  C   C2587     1.0  0.86106  0.02301  0.45684  1.0000
  C   C2588     1.0  0.81431  0.14752  0.32355  1.0000
  H   H2040     1.0  0.83001  0.24253  0.29953  1.0000
  C   C2589     1.0  0.87145  0.01848  0.35426  1.0000
  H   H2041     1.0  0.74547  0.08268  0.37044  1.0000
  C   C2590     1.0  0.76952  0.24010  0.26937  1.0000
  C   C2591     1.0  0.84312  0.06481  0.38795  1.0000
  H   H2042     1.0  0.93465  0.14057  0.28724  1.0000
  C   C2592     1.0  0.75132  0.23555  0.27900  1.0000
  C   C2593     1.0  0.92629  0.07593  0.40135  1.0000
  C   C2594     1.0  0.77360  0.05099  0.30239  1.0000
  H   H2043     1.0  0.78696  0.28668  0.26902  1.0000
  C   C2595     1.0  0.82989  0.07667  0.39956  1.0000
  H   H2044     1.0  0.90892  0.13064  0.26939  1.0000
  C   C2596     1.0  0.64613  0.30778  0.26615  1.0000
  H   H2045     1.0  0.98742  0.21146  0.48855  1.0000
  H   H2046     1.0  0.72510  0.10042  0.34522  1.0000
  C   C2597     1.0  0.91337  0.08718  0.43267  1.0000
  H   H2047     1.0  0.91270  0.09773  0.44324  1.0000
  C   C2598     1.0  0.73792  0.29073  0.25735  1.0000
  C   C2599     1.0  0.82508  0.03037  0.27725  1.0000
  P   P87       1.0  0.69095  0.27692  0.48084  1.0000
  H   H2048     1.0  0.93550  0.10075  0.41280  1.0000
  C   C2600     1.0  0.80670  0.03198  0.41801  1.0000
  C   C2601     1.0  0.92621  0.08888  0.41546  1.0000
  S   S343      1.0  0.78188  0.14384  0.25251  1.0000
  H   H2049     1.0  0.95517  0.04536  0.37959  1.0000
  H   H2050     1.0  0.55987  0.29447  0.45716  1.0000
  C   C2602     1.0  0.80705  0.03859  0.43656  1.0000
  C   C2603     1.0  0.82844  0.19268  0.34977  1.0000
  C   C2604     1.0  0.87030  0.22039  0.45267  1.0000
  H   H2051     1.0  0.79520  0.19504  0.24606  1.0000
  H   H2052     1.0  0.74650  0.24033  0.29332  1.0000
  C   C2605     1.0  0.80918  0.02514  0.45320  1.0000
  H   H2053     1.0  0.81138  0.22696  0.27853  1.0000
  H   H2054     1.0  0.66337  0.31201  0.47401  1.0000
  C   C2606     1.0  0.55447  0.30068  0.47068  1.0000
  C   C2607     1.0  0.75752  0.99615  0.28665  1.0000
  H   H2055     1.0  0.77410  0.06152  0.28942  1.0000
  C   C2608     1.0  0.89193  0.03227  0.46430  1.0000
  C   C2609     1.0  0.90128  0.05889  0.42211  1.0000
  H   H2056     1.0  0.63186  0.30447  0.27339  1.0000
  C   C2610     1.0  0.75658  0.12863  0.46754  1.0000
  C   C2611     1.0  0.95150  0.00714  0.35417  1.0000
  H   H2057     1.0  0.76471  0.07334  0.32164  1.0000
  C   C2612     1.0  0.76848  0.05781  0.32075  1.0000
  H   H2058     1.0  0.86747  0.23237  0.44137  1.0000
  C   C2613     1.0  0.88968  0.21303  0.45545  1.0000
  C   C2614     1.0  0.91381  0.06108  0.40458  1.0000
  H   H2059     1.0  0.83607  0.20318  0.31959  1.0000
  H   H2060     1.0  0.69232  0.28576  0.25508  1.0000
  Fe  Fe174     1.0  0.60142  0.32041  0.43455  1.0000
  H   H2061     1.0  0.80369  0.14001  0.44324  1.0000
  H   H2062     1.0  0.80456  0.04257  0.40540  1.0000
  C   C2615     1.0  0.81374  0.15727  0.48447  1.0000
  H   H2063     1.0  0.85147  0.99709  0.35309  1.0000
  C   C2616     1.0  0.89126  0.01967  0.41285  1.0000
  H   H2064     1.0  0.79238  0.17533  0.35474  1.0000
  H   H2065     1.0  0.83972  0.21748  0.46143  1.0000
  C   C2617     1.0  0.89257  0.12042  0.47728  1.0000
  H   H2066     1.0  0.82808  0.16292  0.42832  1.0000
  H   H2067     1.0  0.86152  0.01340  0.41052  1.0000
  H   H2068     1.0  0.89007  0.07213  0.44877  1.0000
  C   C2618     1.0  0.83204  0.17264  0.45583  1.0000
  C   C2619     1.0  0.70647  0.29626  0.47242  1.0000
  C   C2620     1.0  0.76749  0.15910  0.35569  1.0000
  C   C2621     1.0  0.69331  0.24522  0.43404  1.0000
  C   C2622     1.0  0.82358  0.16174  0.44394  1.0000
  H   H2069     1.0  0.76502  0.04996  0.35209  1.0000
  H   H2070     1.0  0.77129  0.15510  0.34089  1.0000
  C   C2623     1.0  0.81139  0.00498  0.45083  1.0000
  H   H2071     1.0  0.74082  0.14513  0.36033  1.0000
  S   S344      1.0  0.73720  0.15603  0.28985  1.0000
  P   P88       1.0  0.88358  0.04122  0.42538  1.0000
  C   C2624     1.0  0.66171  0.29290  0.26488  1.0000
  C   C2625     1.0  0.73763  0.32399  0.26503  1.0000
  H   H2072     1.0  0.81950  0.04556  0.27368  1.0000
  C   C2626     1.0  0.87030  0.01631  0.48993  1.0000
  H   H2073     1.0  0.85827  0.14470  0.49195  1.0000
  C   C2627     1.0  0.97715  0.07165  0.42175  1.0000
  C   C2628     1.0  0.64266  0.32031  0.31999  1.0000
  Fe  Fe175     1.0  0.81560  0.06162  0.48672  1.0000
  H   H2074     1.0  0.63157  0.32347  0.49141  1.0000
  H   H2075     1.0  0.96405  0.02707  0.44160  1.0000
  C   C2629     1.0  0.84197  0.10431  0.24688  1.0000
  C   C2630     1.0  0.98570  0.01154  0.35528  1.0000
  H   H2076     1.0  0.77501  0.01461  0.34979  1.0000
  C   C2631     1.0  0.78003  0.04006  0.25766  1.0000
  C   C2632     1.0  0.74361  0.30957  0.25239  1.0000
  H   H2077     1.0  0.71379  0.31766  0.37592  1.0000
  H   H2078     1.0  0.97583  0.08680  0.42496  1.0000
  S   S345      1.0  0.58979  0.31730  0.46718  1.0000
  H   H2079     1.0  0.74301  0.27942  0.24775  1.0000
  C   C2633     1.0  0.68022  0.29727  0.25600  1.0000
  H   H2080     1.0  0.78373  0.00234  0.31744  1.0000
  H   H2081     1.0  0.92297  0.00377  0.28556  1.0000
  H   H2082     1.0  0.88125  0.17561  0.49068  1.0000
  C   C2634     1.0  0.88771  0.02485  0.48390  1.0000
  H   H2083     1.0  0.98278  0.15138  0.36487  1.0000
  C   C2635     1.0  0.94371  0.99805  0.26048  1.0000
  C   C2636     1.0  0.97142  0.00155  0.34914  1.0000
  H   H2084     1.0  0.89868  0.11242  0.49000  1.0000
  H   H2085     1.0  0.97494  0.14680  0.33164  1.0000
  H   H2086     1.0  0.62741  0.32651  0.32223  1.0000
  C   C2637     1.0  0.71849  0.32687  0.47717  1.0000
  C   C2638     1.0  0.91704  0.99675  0.39872  1.0000
  C   C2639     1.0  0.89700  0.99723  0.32798  1.0000
  P   P89       1.0  0.83821  0.18417  0.49202  1.0000
  H   H2087     1.0  0.93769  0.01065  0.25134  1.0000
  H   H2088     1.0  0.81290  0.99437  0.46355  1.0000
  H   H2089     1.0  0.94051  0.99957  0.34908  1.0000
  H   H2090     1.0  0.70328  0.31298  0.71182  1.0000
  H   H2091     1.0  0.87076  0.22363  0.63607  1.0000
  Fe  Fe176     1.0  0.92105  0.08042  0.62093  1.0000
  S   S346      1.0  0.92840  0.07359  0.65217  1.0000
  S   S347      1.0  0.89356  0.06936  0.61294  1.0000
  Fe  Fe177     1.0  0.93089  0.10597  0.65092  1.0000
  S   S348      1.0  0.91647  0.12308  0.67621  1.0000
  Fe  Fe178     1.0  0.96021  0.06984  0.63914  1.0000
  H   H2092     1.0  0.87131  0.12077  0.51790  1.0000
  S   S349      1.0  0.92193  0.11271  0.62056  1.0000
  S   S350      1.0  0.95258  0.07416  0.60799  1.0000
  H   H2093     1.0  0.80068  0.29540  0.63412  1.0000
  C   C2640     1.0  0.58463  0.12903  0.72468  1.0000
  H   H2094     1.0  0.89719  0.03912  0.64485  1.0000
  Fe  Fe179     1.0  0.80192  0.10044  0.50478  1.0000
  H   H2095     1.0  0.81612  0.24963  0.51397  1.0000
  S   S351      1.0  0.77636  0.12198  0.51612  1.0000
  C   C2641     1.0  0.58711  0.30219  0.71888  1.0000
  H   H2096     1.0  0.52436  0.22519  0.61141  1.0000
  Fe  Fe180     1.0  0.84278  0.07933  0.51153  1.0000
  S   S352      1.0  0.87108  0.07827  0.52588  1.0000
  C   C2642     1.0  0.53530  0.20425  0.71597  1.0000
  S   S353      1.0  0.81209  0.06986  0.51807  1.0000
  Fe  Fe181     1.0  0.88497  0.27379  0.71777  1.0000
  H   H2097     1.0  0.66828  0.29901  0.63300  1.0000
  P   P90       1.0  0.52568  0.26372  0.62428  1.0000
  Fe  Fe182     1.0  0.85305  0.25070  0.70663  1.0000
  S   S354      1.0  0.86830  0.22150  0.71695  1.0000
  S   S355      1.0  0.82319  0.25050  0.69632  1.0000
  H   H2098     1.0  0.66979  0.26321  0.51901  1.0000
  Fe  Fe183     1.0  0.89553  0.23322  0.70132  1.0000
  S   S356      1.0  0.91590  0.21522  0.67986  1.0000
  C   C2643     1.0  0.91005  0.02852  0.64591  1.0000
  S   S357      1.0  0.87986  0.26213  0.68967  1.0000
  Fe  Fe184     1.0  0.77223  0.21451  0.58138  1.0000
  S   S358      1.0  0.78271  0.24306  0.56737  1.0000
  S   S359      1.0  0.78925  0.18642  0.57116  1.0000
  Fe  Fe185     1.0  0.74696  0.23507  0.61458  1.0000
  S   S360      1.0  0.75594  0.26472  0.60273  1.0000
  S   S361      1.0  0.72981  0.23587  0.64452  1.0000
  Fe  Fe186     1.0  0.75135  0.25612  0.57356  1.0000
  S   S362      1.0  0.73406  0.27579  0.55136  1.0000
  Fe  Fe187     1.0  0.78616  0.24896  0.59793  1.0000
  S   S363      1.0  0.81321  0.26042  0.60564  1.0000
  S   S364      1.0  0.74030  0.22705  0.58560  1.0000
  S   S365      1.0  0.77769  0.21989  0.61172  1.0000
  Fe  Fe188     1.0  0.63405  0.20947  0.69832  1.0000
  S   S366      1.0  0.60138  0.21668  0.69901  1.0000
  S   S367      1.0  0.64951  0.19987  0.66982  1.0000
  C   C2644     1.0  0.75565  0.25788  0.69608  1.0000
  S   S368      1.0  0.59181  0.27124  0.69567  1.0000
  C   C2645     1.0  0.64021  0.31061  0.49764  1.0000
  C   C2646     1.0  0.53187  0.26534  0.59798  1.0000
  C   C2647     1.0  0.63293  0.30026  0.51507  1.0000
  H   H2099     1.0  0.72883  0.27972  0.63942  1.0000
  H   H2100     1.0  0.54534  0.22538  0.63995  1.0000
  C   C2648     1.0  0.70847  0.22403  0.65116  1.0000
  C   C2649     1.0  0.69879  0.21677  0.63736  1.0000
  C   C2650     1.0  0.68101  0.20857  0.64333  1.0000
  C   C2651     1.0  0.67281  0.20795  0.66298  1.0000
  C   C2652     1.0  0.68293  0.21454  0.67683  1.0000
  C   C2653     1.0  0.70076  0.22248  0.67091  1.0000
  H   H2101     1.0  0.70479  0.21775  0.62211  1.0000
  H   H2102     1.0  0.67331  0.20324  0.63263  1.0000
  H   H2103     1.0  0.67689  0.21365  0.69206  1.0000
  H   H2104     1.0  0.70857  0.22757  0.68164  1.0000
  C   C2654     1.0  0.73174  0.30175  0.54930  1.0000
  C   C2655     1.0  0.72111  0.31223  0.53458  1.0000
  C   C2656     1.0  0.94602  0.07923  0.55049  1.0000
  C   C2657     1.0  0.73985  0.31210  0.56200  1.0000
  H   H2105     1.0  0.71485  0.30429  0.52475  1.0000
  C   C2658     1.0  0.91981  0.02112  0.62902  1.0000
  H   H2106     1.0  0.74812  0.30420  0.57336  1.0000
  C   C2659     1.0  0.82154  0.25217  0.67095  1.0000
  C   C2660     1.0  0.83570  0.26042  0.65726  1.0000
  C   C2661     1.0  0.83311  0.26281  0.63721  1.0000
  C   C2662     1.0  0.81643  0.25682  0.63077  1.0000
  C   C2663     1.0  0.80246  0.24826  0.64447  1.0000
  C   C2664     1.0  0.80507  0.24592  0.66448  1.0000
  H   H2107     1.0  0.84842  0.26536  0.66213  1.0000
  H   H2108     1.0  0.84398  0.26943  0.62668  1.0000
  H   H2109     1.0  0.78952  0.24370  0.63971  1.0000
  H   H2110     1.0  0.79421  0.23941  0.67506  1.0000
  C   C2665     1.0  0.78509  0.16928  0.55523  1.0000
  C   C2666     1.0  0.80030  0.15452  0.55080  1.0000
  C   C2667     1.0  0.79787  0.14015  0.53876  1.0000
  C   C2668     1.0  0.78006  0.14026  0.53097  1.0000
  C   C2669     1.0  0.76480  0.15514  0.53518  1.0000
  C   C2670     1.0  0.76730  0.16963  0.54723  1.0000
  H   H2111     1.0  0.81406  0.15406  0.55684  1.0000
  H   H2112     1.0  0.80975  0.12883  0.53572  1.0000
  H   H2113     1.0  0.75093  0.15529  0.52930  1.0000
  H   H2114     1.0  0.75539  0.18079  0.55060  1.0000
  C   C2671     1.0  0.84563  0.17143  0.53078  1.0000
  H   H2115     1.0  0.97810  0.14526  0.55100  1.0000
  C   C2672     1.0  0.86224  0.13947  0.54082  1.0000
  H   H2116     1.0  0.86792  0.12878  0.55212  1.0000
  C   C2673     1.0  0.91538  0.14895  0.67618  1.0000
  C   C2674     1.0  0.92544  0.16065  0.66126  1.0000
  C   C2675     1.0  0.92549  0.18085  0.66268  1.0000
  C   C2676     1.0  0.91500  0.18976  0.67861  1.0000
  C   C2677     1.0  0.90428  0.17819  0.69312  1.0000
  C   C2678     1.0  0.90460  0.15790  0.69196  1.0000
  H   H2117     1.0  0.93382  0.15401  0.64902  1.0000
  H   H2118     1.0  0.93405  0.18955  0.65156  1.0000
  H   H2119     1.0  0.89620  0.18477  0.70552  1.0000
  H   H2120     1.0  0.89674  0.14902  0.70357  1.0000
  C   C2679     1.0  0.88561  0.07437  0.58924  1.0000
  C   C2680     1.0  0.86943  0.06560  0.58503  1.0000
  C   C2681     1.0  0.86374  0.06788  0.56589  1.0000
  C   C2682     1.0  0.87424  0.07897  0.55083  1.0000
  C   C2683     1.0  0.88965  0.08868  0.55533  1.0000
  C   C2684     1.0  0.89536  0.08641  0.57444  1.0000
  H   H2121     1.0  0.86172  0.05637  0.59644  1.0000
  H   H2122     1.0  0.85196  0.06018  0.56258  1.0000
  H   H2123     1.0  0.89763  0.09751  0.54377  1.0000
  H   H2124     1.0  0.90763  0.09348  0.57758  1.0000
  H   H2125     1.0  0.53204  0.18043  0.73862  1.0000
  C   C2685     1.0  0.94693  0.04081  0.69134  1.0000
  C   C2686     1.0  0.84715  0.16673  0.51140  1.0000
  C   C2687     1.0  0.58689  0.29607  0.70033  1.0000
  C   C2688     1.0  0.90566  0.16046  0.52979  1.0000
  C   C2689     1.0  0.91551  0.14157  0.53163  1.0000
  C   C2690     1.0  0.91917  0.13237  0.55010  1.0000
  C   C2691     1.0  0.91278  0.14185  0.56678  1.0000
  C   C2692     1.0  0.90233  0.16062  0.56519  1.0000
  C   C2693     1.0  0.89910  0.17003  0.54649  1.0000
  P   P91       1.0  0.89354  0.17232  0.58709  1.0000
  C   C2694     1.0  0.87352  0.19111  0.58237  1.0000
  C   C2695     1.0  0.88475  0.15395  0.60586  1.0000
  C   C2696     1.0  0.87646  0.13789  0.60075  1.0000
  C   C2697     1.0  0.87143  0.12273  0.61504  1.0000
  C   C2698     1.0  0.87403  0.12376  0.63460  1.0000
  C   C2699     1.0  0.88156  0.14005  0.63989  1.0000
  C   C2700     1.0  0.88691  0.15510  0.62561  1.0000
  C   C2701     1.0  0.87744  0.20981  0.57350  1.0000
  C   C2702     1.0  0.86197  0.22442  0.57001  1.0000
  C   C2703     1.0  0.84250  0.22039  0.57505  1.0000
  C   C2704     1.0  0.83847  0.20173  0.58355  1.0000
  C   C2705     1.0  0.85390  0.18719  0.58737  1.0000
  C   C2706     1.0  0.91353  0.18260  0.59558  1.0000
  C   C2707     1.0  0.93291  0.17363  0.59265  1.0000
  C   C2708     1.0  0.94818  0.18105  0.60007  1.0000
  C   C2709     1.0  0.94427  0.19751  0.61040  1.0000
  C   C2710     1.0  0.92501  0.20640  0.61358  1.0000
  C   C2711     1.0  0.90968  0.19891  0.60632  1.0000
  H   H2126     1.0  0.90314  0.16757  0.51535  1.0000
  H   H2127     1.0  0.92044  0.13409  0.51873  1.0000
  H   H2128     1.0  0.92695  0.11785  0.55152  1.0000
  H   H2129     1.0  0.91596  0.13442  0.58094  1.0000
  H   H2130     1.0  0.89134  0.18456  0.54470  1.0000
  H   H2131     1.0  0.87454  0.13666  0.58565  1.0000
  H   H2132     1.0  0.86616  0.10982  0.61085  1.0000
  H   H2133     1.0  0.87083  0.11162  0.64552  1.0000
  H   H2134     1.0  0.88418  0.14061  0.65492  1.0000
  H   H2135     1.0  0.89334  0.16720  0.63002  1.0000
  H   H2136     1.0  0.89246  0.21311  0.56933  1.0000
  H   H2137     1.0  0.86505  0.23892  0.56342  1.0000
  H   H2138     1.0  0.83050  0.23174  0.57247  1.0000
  H   H2139     1.0  0.82333  0.19861  0.58725  1.0000
  H   H2140     1.0  0.85044  0.17291  0.59410  1.0000
  H   H2141     1.0  0.93638  0.16070  0.58498  1.0000
  H   H2142     1.0  0.96299  0.17373  0.59806  1.0000
  H   H2143     1.0  0.95608  0.20313  0.61632  1.0000
  H   H2144     1.0  0.92192  0.21881  0.62212  1.0000
  H   H2145     1.0  0.89480  0.20564  0.60942  1.0000
  C   C2712     1.0  0.84442  0.21215  0.63067  1.0000
  C   C2713     1.0  0.83191  0.19747  0.63612  1.0000
  C   C2714     1.0  0.82400  0.12634  0.64357  1.0000
  C   C2715     1.0  0.82436  0.11392  0.62892  1.0000
  C   C2716     1.0  0.79491  0.17468  0.65953  1.0000
  C   C2717     1.0  0.77969  0.16436  0.65562  1.0000
  C   C2718     1.0  0.76023  0.17293  0.65735  1.0000
  C   C2719     1.0  0.75580  0.19175  0.66315  1.0000
  C   C2720     1.0  0.77082  0.20209  0.66718  1.0000
  C   C2721     1.0  0.79032  0.19359  0.66545  1.0000
  H   H2146     1.0  0.84077  0.22395  0.61946  1.0000
  H   H2147     1.0  0.81847  0.19849  0.62924  1.0000
  H   H2148     1.0  0.82483  0.11981  0.65850  1.0000
  H   H2149     1.0  0.82600  0.09815  0.63254  1.0000
  H   H2150     1.0  0.78278  0.14971  0.65114  1.0000
  H   H2151     1.0  0.74855  0.16505  0.65401  1.0000
  H   H2152     1.0  0.74071  0.19831  0.66445  1.0000
  H   H2153     1.0  0.76731  0.21680  0.67141  1.0000
  H   H2154     1.0  0.80177  0.20183  0.66860  1.0000
  C   C2722     1.0  0.67497  0.23862  0.56459  1.0000
  C   C2723     1.0  0.69217  0.24608  0.56774  1.0000
  C   C2724     1.0  0.69191  0.25779  0.58291  1.0000
  C   C2725     1.0  0.67444  0.26227  0.59479  1.0000
  C   C2726     1.0  0.65714  0.25457  0.59197  1.0000
  C   C2727     1.0  0.65750  0.24285  0.57664  1.0000
  P   P92       1.0  0.63423  0.26116  0.60655  1.0000
  C   C2728     1.0  0.63859  0.26749  0.63025  1.0000
  C   C2729     1.0  0.62027  0.28133  0.59343  1.0000
  C   C2730     1.0  0.60016  0.28572  0.59921  1.0000
  C   C2731     1.0  0.58919  0.30124  0.58920  1.0000
  H   H2155     1.0  0.92830  0.01037  0.72983  1.0000
  H   H2156     1.0  0.90948  0.02880  0.67693  1.0000
  C   C2732     1.0  0.62925  0.29265  0.57734  1.0000
  C   C2733     1.0  0.65390  0.25708  0.64014  1.0000
  C   C2734     1.0  0.65650  0.26091  0.65899  1.0000
  C   C2735     1.0  0.64388  0.27515  0.66821  1.0000
  C   C2736     1.0  0.62871  0.28566  0.65848  1.0000
  C   C2737     1.0  0.62610  0.28197  0.63956  1.0000
  C   C2738     1.0  0.62062  0.23992  0.61078  1.0000
  C   C2739     1.0  0.60652  0.23756  0.59835  1.0000
  C   C2740     1.0  0.59627  0.22096  0.60149  1.0000
  C   C2741     1.0  0.60022  0.20645  0.61684  1.0000
  C   C2742     1.0  0.61436  0.20855  0.62910  1.0000
  C   C2743     1.0  0.62452  0.22517  0.62609  1.0000
  H   H2157     1.0  0.67526  0.22943  0.55289  1.0000
  H   H2158     1.0  0.70575  0.24286  0.55843  1.0000
  H   H2159     1.0  0.70531  0.26356  0.58530  1.0000
  H   H2160     1.0  0.67452  0.27177  0.60610  1.0000
  H   H2161     1.0  0.64433  0.23693  0.57398  1.0000
  H   H2162     1.0  0.59299  0.27716  0.61155  1.0000
  C   C2744     1.0  0.95149  0.16973  0.50678  1.0000
  H   H2163     1.0  0.70396  0.20895  0.51173  1.0000
  C   C2745     1.0  0.97169  0.14209  0.52181  1.0000
  H   H2164     1.0  0.64472  0.28961  0.57256  1.0000
  H   H2165     1.0  0.66357  0.24562  0.63349  1.0000
  H   H2166     1.0  0.66806  0.25248  0.66659  1.0000
  H   H2167     1.0  0.64551  0.27774  0.68306  1.0000
  H   H2168     1.0  0.61861  0.29628  0.66592  1.0000
  H   H2169     1.0  0.61407  0.29021  0.63259  1.0000
  H   H2170     1.0  0.60357  0.24835  0.58608  1.0000
  H   H2171     1.0  0.58542  0.21922  0.59188  1.0000
  H   H2172     1.0  0.59245  0.19347  0.61918  1.0000
  H   H2173     1.0  0.61764  0.19726  0.64095  1.0000
  H   H2174     1.0  0.63549  0.22621  0.63575  1.0000
  C   C2746     1.0  0.97387  0.21998  0.66682  1.0000
  C   C2747     1.0  0.72790  0.20087  0.71519  1.0000
  C   C2748     1.0  0.74480  0.18764  0.71304  1.0000
  C   C2749     1.0  0.69866  0.29938  0.70861  1.0000
  H   H2175     1.0  0.77380  0.17879  0.72127  1.0000
  C   C2750     1.0  0.50386  0.32528  0.64263  1.0000
  C   C2751     1.0  0.96144  0.15092  0.50614  1.0000
  H   H2176     1.0  0.84064  0.22452  0.50036  1.0000
  C   C2752     1.0  0.61822  0.30814  0.56726  1.0000
  C   C2753     1.0  0.95158  0.17983  0.52310  1.0000
  H   H2177     1.0  0.96545  0.21490  0.65650  1.0000
  C   C2754     1.0  0.82252  0.12179  0.60955  1.0000
  C   C2755     1.0  0.85309  0.15776  0.54543  1.0000
  H   H2178     1.0  0.50985  0.26760  0.55591  1.0000
  C   C2756     1.0  0.97347  0.13657  0.67058  1.0000
  H   H2179     1.0  0.94398  0.19444  0.52349  1.0000
  Fe  Fe189     1.0  0.59970  0.20111  0.72942  1.0000
  H   H2180     1.0  0.80815  0.29186  0.69704  1.0000
  C   C2757     1.0  0.78787  0.31116  0.60927  1.0000
  H   H2181     1.0  0.92833  0.08446  0.50607  1.0000
  H   H2182     1.0  0.71526  0.19929  0.70777  1.0000
  H   H2183     1.0  0.74523  0.17583  0.70395  1.0000
  H   H2184     1.0  0.72373  0.29377  0.68734  1.0000
  H   H2185     1.0  0.74391  0.24890  0.52188  1.0000
  C   C2758     1.0  0.67039  0.31809  0.54261  1.0000
  H   H2186     1.0  0.94976  0.24029  0.67720  1.0000
  H   H2187     1.0  0.51665  0.27879  0.66257  1.0000
  H   H2188     1.0  0.54953  0.20683  0.71979  1.0000
  C   C2759     1.0  0.52908  0.30386  0.49858  1.0000
  C   C2760     1.0  0.96436  0.10143  0.52727  1.0000
  C   C2761     1.0  0.77926  0.31922  0.64275  1.0000
  H   H2189     1.0  0.99264  0.15799  0.57644  1.0000
  C   C2762     1.0  0.78731  0.21250  0.51724  1.0000
  H   H2190     1.0  0.71397  0.22598  0.72902  1.0000
  C   C2763     1.0  0.96660  0.15329  0.67988  1.0000
  C   C2764     1.0  0.94349  0.00149  0.64851  1.0000
  C   C2765     1.0  0.95242  0.09885  0.51286  1.0000
  H   H2191     1.0  0.52686  0.09215  0.71116  1.0000
  C   C2766     1.0  0.81705  0.30062  0.68631  1.0000
  C   C2767     1.0  0.72337  0.30690  0.62112  1.0000
  H   H2192     1.0  0.73313  0.21554  0.52674  1.0000
  C   C2768     1.0  0.93483  0.07605  0.53581  1.0000
  H   H2193     1.0  0.76004  0.26695  0.72384  1.0000
  H   H2194     1.0  0.76771  0.28214  0.65147  1.0000
  H   H2195     1.0  0.96616  0.12338  0.67448  1.0000
  C   C2769     1.0  0.71026  0.28858  0.69474  1.0000
  C   C2770     1.0  0.66180  0.27653  0.51290  1.0000
  C   C2771     1.0  0.66903  0.28669  0.49514  1.0000
  H   H2196     1.0  0.55488  0.28657  0.63560  1.0000
  H   H2197     1.0  0.59502  0.24256  0.66288  1.0000
  C   C2772     1.0  0.58639  0.14874  0.72691  1.0000
  C   C2773     1.0  0.50685  0.18574  0.72193  1.0000
  C   C2774     1.0  0.90253  0.31674  0.73548  1.0000
  C   C2775     1.0  0.83710  0.29986  0.68822  1.0000
  H   H2198     1.0  0.77404  0.29727  0.70915  1.0000
  H   H2199     1.0  0.94309  0.07204  0.56521  1.0000
  C   C2776     1.0  0.73120  0.24602  0.51526  1.0000
  H   H2200     1.0  0.75347  0.25247  0.66644  1.0000
  C   C2777     1.0  0.53139  0.12239  0.71132  1.0000
  C   C2778     1.0  0.96494  0.23442  0.67851  1.0000
  C   C2779     1.0  0.52723  0.28188  0.71714  1.0000
  C   C2780     1.0  0.50538  0.30437  0.73624  1.0000
  C   C2781     1.0  0.94529  0.05797  0.70050  1.0000
  H   H2201     1.0  0.74181  0.32401  0.68339  1.0000
  H   H2202     1.0  0.83844  0.18545  0.53470  1.0000
  C   C2782     1.0  0.80730  0.20212  0.71512  1.0000
  C   C2783     1.0  0.83266  0.13091  0.71821  1.0000
  H   H2203     1.0  0.74967  0.24450  0.70248  1.0000
  H   H2204     1.0  0.99496  0.17732  0.61800  1.0000
  C   C2784     1.0  0.51235  0.28506  0.73255  1.0000
  H   H2205     1.0  0.78195  0.24218  0.52470  1.0000
  C   C2785     1.0  0.50881  0.24531  0.63117  1.0000
  C   C2786     1.0  0.52139  0.26761  0.56532  1.0000
  C   C2787     1.0  0.54032  0.27108  0.55701  1.0000
  C   C2788     1.0  0.55512  0.27146  0.56910  1.0000
  C   C2789     1.0  0.55093  0.26860  0.58952  1.0000
  C   C2790     1.0  0.54772  0.25669  0.63641  1.0000
  C   C2791     1.0  0.55370  0.23693  0.64243  1.0000
  C   C2792     1.0  0.57070  0.23187  0.65196  1.0000
  C   C2793     1.0  0.58186  0.24641  0.65547  1.0000
  C   C2794     1.0  0.57596  0.26604  0.64966  1.0000
  C   C2795     1.0  0.55907  0.27121  0.64006  1.0000
  H   H2206     1.0  0.51294  0.30128  0.60198  1.0000
  H   H2207     1.0  0.56977  0.27424  0.56259  1.0000
  H   H2208     1.0  0.56248  0.26912  0.59862  1.0000
  H   H2209     1.0  0.58441  0.27725  0.65290  1.0000
  H   H2210     1.0  0.57524  0.21665  0.65674  1.0000
  C   C2796     1.0  0.75770  0.26241  0.67575  1.0000
  Fe  Fe190     1.0  0.60634  0.24377  0.71203  1.0000
  H   H2211     1.0  0.94346  0.17632  0.49472  1.0000
  C   C2797     1.0  0.51202  0.22770  0.62242  1.0000
  C   C2798     1.0  0.97542  0.24105  0.69205  1.0000
  C   C2799     1.0  0.96126  0.17091  0.53901  1.0000
  C   C2800     1.0  0.50564  0.32212  0.62288  1.0000
  H   H2212     1.0  0.50223  0.26270  0.59187  1.0000
  H   H2213     1.0  0.58969  0.32458  0.56553  1.0000
  C   C2801     1.0  0.93756  0.05796  0.72013  1.0000
  H   H2214     1.0  0.58082  0.30538  0.67055  1.0000
  C   C2802     1.0  0.76958  0.28763  0.69964  1.0000
  H   H2215     1.0  0.86686  0.01077  0.50515  1.0000
  H   H2216     1.0  0.68830  0.30006  0.58553  1.0000
  C   C2803     1.0  0.57120  0.11837  0.73736  1.0000
  C   C2804     1.0  0.68905  0.31830  0.61752  1.0000
  C   C2805     1.0  0.86415  0.13492  0.52152  1.0000
  H   H2217     1.0  0.81313  0.26654  0.73878  1.0000
  C   C2806     1.0  0.97104  0.15203  0.53845  1.0000
  H   H2218     1.0  0.84328  0.29070  0.70027  1.0000
  H   H2219     1.0  0.50177  0.19971  0.62087  1.0000
  H   H2220     1.0  0.96970  0.18320  0.68207  1.0000
  P   P93       1.0  0.81995  0.16326  0.65775  1.0000
  C   C2807     1.0  0.82218  0.14681  0.63888  1.0000
  H   H2221     1.0  0.79636  0.30188  0.59899  1.0000
  C   C2808     1.0  0.51544  0.28747  0.63152  1.0000
  C   C2809     1.0  0.58148  0.30996  0.68484  1.0000
  H   H2222     1.0  0.85151  0.16120  0.56040  1.0000
  C   C2810     1.0  0.54040  0.31611  0.50616  1.0000
  C   C2811     1.0  0.70864  0.22356  0.50962  1.0000
  C   C2812     1.0  0.83650  0.18206  0.65063  1.0000
  C   C2813     1.0  0.86140  0.21190  0.63989  1.0000
  H   H2223     1.0  0.82269  0.11217  0.59820  1.0000
  C   C2814     1.0  0.79024  0.30747  0.62922  1.0000
  C   C2815     1.0  0.97548  0.17057  0.67455  1.0000
  C   C2816     1.0  0.50419  0.14316  0.72636  1.0000
  C   C2817     1.0  0.71775  0.29063  0.63358  1.0000
  H   H2224     1.0  0.69369  0.27502  0.64713  1.0000
  H   H2225     1.0  0.53280  0.15242  0.71494  1.0000
  H   H2226     1.0  0.54337  0.27368  0.54117  1.0000
  C   C2818     1.0  0.81990  0.15452  0.61943  1.0000
  C   C2819     1.0  0.52715  0.21564  0.70028  1.0000
  S   S369      1.0  0.96805  0.12668  0.58732  1.0000
  C   C2820     1.0  0.93648  0.00755  0.63033  1.0000
  C   C2821     1.0  0.51713  0.26484  0.58571  1.0000
  C   C2822     1.0  0.82016  0.14209  0.60487  1.0000
  H   H2227     1.0  0.81728  0.17013  0.61548  1.0000
  C   C2823     1.0  0.98322  0.00043  0.69092  1.0000
  H   H2228     1.0  0.53294  0.26711  0.71412  1.0000
  H   H2229     1.0  0.86484  0.30988  0.67608  1.0000
  C   C2824     1.0  0.85665  0.14847  0.50687  1.0000
  C   C2825     1.0  0.69787  0.28802  0.63795  1.0000
  C   C2826     1.0  0.91710  0.02265  0.66406  1.0000
  H   H2230     1.0  0.81808  0.14824  0.59001  1.0000
  C   C2827     1.0  0.70459  0.27094  0.69049  1.0000
  H   H2231     1.0  0.91450  0.02612  0.61491  1.0000
  C   C2828     1.0  0.57457  0.15802  0.74173  1.0000
  C   C2829     1.0  0.93772  0.08620  0.51714  1.0000
  H   H2232     1.0  0.62524  0.31695  0.55496  1.0000
  C   C2830     1.0  0.68355  0.30173  0.62993  1.0000
  C   C2831     1.0  0.86619  0.19664  0.65422  1.0000
  C   C2832     1.0  0.85393  0.18170  0.65948  1.0000
  H   H2233     1.0  0.50622  0.31203  0.67222  1.0000
  H   H2234     1.0  0.53503  0.22714  0.69195  1.0000
  H   H2235     1.0  0.73884  0.30845  0.61719  1.0000
  C   C2833     1.0  0.76595  0.27935  0.66728  1.0000
  H   H2236     1.0  0.71360  0.26256  0.67975  1.0000
  C   C2834     1.0  0.68026  0.31007  0.57536  1.0000
  Fe  Fe191     1.0  0.95380  0.10603  0.61053  1.0000
  S   S370      1.0  0.96304  0.10175  0.64079  1.0000
  S   S371      1.0  0.88937  0.30605  0.71939  1.0000
  C   C2835     1.0  0.94085  0.02346  0.70171  1.0000
  S   S372      1.0  0.63928  0.23721  0.70993  1.0000
  H   H2237     1.0  0.85424  0.18070  0.70676  1.0000
  H   H2238     1.0  0.68299  0.25030  0.69717  1.0000
  H   H2239     1.0  0.61867  0.30523  0.52229  1.0000
  C   C2836     1.0  0.51322  0.32022  0.72463  1.0000
  H   H2240     1.0  0.92340  0.06625  0.53910  1.0000
  H   H2241     1.0  0.67053  0.31443  0.52779  1.0000
  C   C2837     1.0  0.82463  0.15027  0.68141  1.0000
  H   H2242     1.0  0.87938  0.19651  0.66137  1.0000
  C   C2838     1.0  0.82552  0.19660  0.70491  1.0000
  H   H2243     1.0  0.72576  0.27569  0.50250  1.0000
  C   C2839     1.0  0.70436  0.25762  0.49555  1.0000
  H   H2244     1.0  0.82875  0.20234  0.68971  1.0000
  H   H2245     1.0  0.69649  0.31316  0.49689  1.0000
  C   C2840     1.0  0.84611  0.12822  0.70170  1.0000
  C   C2841     1.0  0.74334  0.21765  0.73713  1.0000
  H   H2246     1.0  0.85812  0.17022  0.67067  1.0000
  H   H2247     1.0  0.85253  0.13539  0.67079  1.0000
  H   H2248     1.0  0.79761  0.16237  0.69712  1.0000
  H   H2249     1.0  0.93619  0.07134  0.72714  1.0000
  C   C2842     1.0  0.80105  0.19823  0.50926  1.0000
  S   S373      1.0  0.98672  0.05031  0.65065  1.0000
  H   H2250     1.0  0.96118  0.17854  0.55183  1.0000
  C   C2843     1.0  0.52031  0.10644  0.71500  1.0000
  C   C2844     1.0  0.81188  0.23533  0.51246  1.0000
  C   C2845     1.0  0.79263  0.23112  0.51858  1.0000
  C   C2846     1.0  0.83632  0.17843  0.73455  1.0000
  C   C2847     1.0  0.64384  0.28335  0.52285  1.0000
  C   C2848     1.0  0.84927  0.31065  0.67451  1.0000
  C   C2849     1.0  0.67559  0.27495  0.71380  1.0000
  C   C2850     1.0  0.68734  0.26409  0.70014  1.0000
  S   S374      1.0  0.83211  0.10993  0.49999  1.0000
  C   C2851     1.0  0.84203  0.13772  0.68340  1.0000
  C   C2852     1.0  0.81112  0.15279  0.69809  1.0000
  H   H2251     1.0  0.95290  0.04104  0.67610  1.0000
  C   C2853     1.0  0.81512  0.14309  0.71638  1.0000
  H   H2252     1.0  0.79661  0.21210  0.70757  1.0000
  H   H2253     1.0  0.54647  0.12035  0.70465  1.0000
  C   C2854     1.0  0.76054  0.20459  0.73480  1.0000
  H   H2254     1.0  0.95404  0.15297  0.69096  1.0000
  C   C2855     1.0  0.68116  0.29266  0.71821  1.0000
  C   C2856     1.0  0.76150  0.27053  0.70805  1.0000
  H   H2255     1.0  0.80476  0.14527  0.72922  1.0000
  C   C2857     1.0  0.72719  0.21588  0.72719  1.0000
  C   C2858     1.0  0.72083  0.26122  0.50419  1.0000
  H   H2256     1.0  0.62942  0.29100  0.73117  1.0000
  C   C2859     1.0  0.83996  0.18463  0.71458  1.0000
  P   P94       1.0  0.66598  0.30679  0.73586  1.0000
  S   S375      1.0  0.50649  0.29687  0.51121  1.0000
  H   H2257     1.0  0.97579  0.02092  0.62775  1.0000
  C   C2860     1.0  0.52790  0.31691  0.70922  1.0000
  C   C2861     1.0  0.72510  0.22723  0.51803  1.0000
  C   C2862     1.0  0.70913  0.32070  0.61310  1.0000
  C   C2863     1.0  0.98958  0.13698  0.65624  1.0000
  H   H2258     1.0  0.66230  0.26930  0.72097  1.0000
  H   H2259     1.0  0.59686  0.15672  0.71713  1.0000
  C   C2864     1.0  0.93154  0.04071  0.73063  1.0000
  C   C2865     1.0  0.51334  0.29073  0.65139  1.0000
  P   P95       1.0  0.98366  0.11738  0.52129  1.0000
  C   C2866     1.0  0.53477  0.29774  0.70541  1.0000
  H   H2260     1.0  0.94993  0.07132  0.69227  1.0000
  Fe  Fe192     1.0  0.87431  0.23641  0.74233  1.0000
  C   C2867     1.0  0.77221  0.29201  0.67915  1.0000
  C   C2868     1.0  0.93316  0.02349  0.72147  1.0000
  C   C2869     1.0  0.58185  0.32209  0.72182  1.0000
  C   C2870     1.0  0.80893  0.31221  0.67057  1.0000
  H   H2261     1.0  0.54614  0.29509  0.69349  1.0000
  C   C2871     1.0  0.93394  0.00914  0.66551  1.0000
  C   C2872     1.0  0.52351  0.14062  0.71718  1.0000
  C   C2873     1.0  0.52524  0.18935  0.72673  1.0000
  H   H2262     1.0  0.85980  0.11883  0.70306  1.0000
  H   H2263     1.0  0.57373  0.30465  0.59399  1.0000
  C   C2874     1.0  0.51138  0.30331  0.61735  1.0000
  S   S376      1.0  0.85653  0.26452  0.73365  1.0000
  S   S377      1.0  0.90325  0.24594  0.72777  1.0000
  C   C2875     1.0  0.99158  0.17118  0.65997  1.0000
  C   C2876     1.0  0.82127  0.32311  0.65683  1.0000
  H   H2264     1.0  0.81508  0.30032  0.73811  1.0000
  H   H2265     1.0  0.59376  0.12194  0.71315  1.0000
  H   H2266     1.0  0.96838  0.09513  0.55816  1.0000
  H   H2267     1.0  0.68721  0.29111  0.55233  1.0000
  C   C2877     1.0  0.82030  0.20250  0.50247  1.0000
  C   C2878     1.0  0.96051  0.09215  0.54636  1.0000
  H   H2268     1.0  0.59075  0.29157  0.73102  1.0000
  H   H2269     1.0  0.53518  0.32199  0.51988  1.0000
  C   C2879     1.0  0.76102  0.18946  0.72279  1.0000
  C   C2880     1.0  0.67970  0.30496  0.55647  1.0000
  H   H2270     1.0  0.63816  0.27530  0.53634  1.0000
  C   C2881     1.0  0.59820  0.31247  0.57321  1.0000
  C   C2882     1.0  0.69830  0.23867  0.49841  1.0000
  H   H2271     1.0  0.81071  0.23279  0.73406  1.0000
  S   S378      1.0  0.56900  0.09376  0.73378  1.0000
  S   S379      1.0  0.63204  0.19151  0.72770  1.0000
  C   C2883     1.0  0.50113  0.10879  0.72425  1.0000
  C   C2884     1.0  0.83231  0.32454  0.73064  1.0000
  H   H2272     1.0  0.94415  0.00194  0.61719  1.0000
  C   C2885     1.0  0.98985  0.01565  0.63295  1.0000
  C   C2886     1.0  0.55882  0.32025  0.49623  1.0000
  H   H2273     1.0  0.77263  0.20894  0.52273  1.0000
  C   C2887     1.0  0.50897  0.21204  0.69524  1.0000
  P   P96       1.0  0.78281  0.31412  0.66845  1.0000
  P   P97       1.0  0.94260  0.00169  0.68923  1.0000
  C   C2888     1.0  0.80352  0.19599  0.73523  1.0000
  H   H2274     1.0  0.83587  0.12360  0.73242  1.0000
  H   H2275     1.0  0.81060  0.15442  0.50019  1.0000
  C   C2889     1.0  0.82571  0.22105  0.50461  1.0000
  C   C2890     1.0  0.50753  0.30957  0.65691  1.0000
  H   H2276     1.0  0.49953  0.01598  0.72938  1.0000
  H   H2277     1.0  0.89783  0.02585  0.49450  1.0000
  C   C2891     1.0  0.99487  0.23323  0.69392  1.0000
  C   C2892     1.0  0.99129  0.12988  0.59351  1.0000
  H   H2278     1.0  0.98062  0.01523  0.69495  1.0000
  H   H2279     1.0  0.96841  0.25221  0.70113  1.0000
  Fe  Fe193     1.0  0.63423  0.21996  0.73960  1.0000
  S   S380      1.0  0.50034  0.31538  0.56433  1.0000
  C   C2893     1.0  0.65047  0.32614  0.72339  1.0000
  C   C2894     1.0  0.49881  0.19718  0.70602  1.0000
  H   H2280     1.0  0.50272  0.22080  0.68300  1.0000
  H   H2281     1.0  0.95433  0.10675  0.49834  1.0000
  H   H2282     1.0  0.99496  0.12404  0.64896  1.0000
  H   H2283     1.0  0.67559  0.24039  0.74199  1.0000
  S   S381      1.0  0.60163  0.22889  0.74269  1.0000
  H   H2284     1.0  0.99185  0.08339  0.49870  1.0000
  H   H2285     1.0  0.79657  0.18388  0.50879  1.0000
  C   C2895     1.0  0.49927  0.21320  0.62776  1.0000
  H   H2286     1.0  0.99484  0.10196  0.61096  1.0000
  H   H2287     1.0  0.99549  0.19181  0.58364  1.0000
  C   C2896     1.0  0.99326  0.21175  0.66889  1.0000
  H   H2288     1.0  0.84780  0.16971  0.74216  1.0000
  H   H2289     1.0  0.96091  0.14324  0.49350  1.0000
  C   C2897     1.0  0.99596  0.11414  0.49717  1.0000
  C   C2898     1.0  0.84135  0.32225  0.65877  1.0000
  C   C2899     1.0  0.77470  0.32679  0.60259  1.0000
  H   H2290     1.0  0.58174  0.32672  0.73623  1.0000
  S   S382      1.0  0.65182  0.19040  0.97163  1.0000
  C   C2900     1.0  0.63262  0.01777  0.94627  1.0000
  C   C2901     1.0  0.51293  0.21280  0.82593  1.0000
  S   S383      1.0  0.87238  0.22212  0.77339  1.0000
  Fe  Fe194     1.0  0.74304  0.27259  0.84917  1.0000
  S   S384      1.0  0.75227  0.24343  0.86547  1.0000
  S   S385      1.0  0.74931  0.30345  0.85412  1.0000
  Fe  Fe195     1.0  0.73105  0.25271  0.81511  1.0000
  S   S386      1.0  0.74024  0.22225  0.82857  1.0000
  S   S387      1.0  0.72074  0.25893  0.78468  1.0000
  Fe  Fe196     1.0  0.72515  0.23281  0.85664  1.0000
  S   S388      1.0  0.70417  0.21471  0.87763  1.0000
  Fe  Fe197     1.0  0.76647  0.23519  0.83611  1.0000
  S   S389      1.0  0.79705  0.21946  0.83596  1.0000
  S   S390      1.0  0.71439  0.26295  0.84266  1.0000
  S   S391      1.0  0.75875  0.26457  0.82029  1.0000
  Fe  Fe198     1.0  0.63938  0.08973  0.88842  1.0000
  S   S392      1.0  0.67079  0.07795  0.88018  1.0000
  S   S393      1.0  0.61377  0.09717  0.86997  1.0000
  Fe  Fe199     1.0  0.64864  0.09749  0.92841  1.0000
  S   S394      1.0  0.68057  0.08678  0.92336  1.0000
  S   S395      1.0  0.63614  0.10604  0.95775  1.0000
  Fe  Fe200     1.0  0.67892  0.10381  0.89356  1.0000
  S   S396      1.0  0.70284  0.12222  0.87810  1.0000
  Fe  Fe201     1.0  0.66947  0.06210  0.91101  1.0000
  S   S397      1.0  0.68016  0.02980  0.91884  1.0000
  S   S398      1.0  0.64764  0.11642  0.89989  1.0000
  S   S399      1.0  0.63741  0.07204  0.91796  1.0000
  Fe  Fe202     1.0  0.52993  0.03825  0.77136  1.0000
  S   S400      1.0  0.52678  0.04445  0.80289  1.0000
  C   C2902     1.0  0.68686  0.99862  0.94724  1.0000
  Fe  Fe203     1.0  0.55273  0.07468  0.75800  1.0000
  S   S401      1.0  0.55074  0.08325  0.78833  1.0000
  C   C2903     1.0  0.51174  0.19462  0.83697  1.0000
  Fe  Fe204     1.0  0.55821  0.05138  0.79774  1.0000
  S   S402      1.0  0.58115  0.04020  0.81865  1.0000
  Fe  Fe205     1.0  0.51978  0.07564  0.79064  1.0000
  C   C2904     1.0  0.61787  0.99875  0.89219  1.0000
  S   S403      1.0  0.56228  0.04281  0.76698  1.0000
  S   S404      1.0  0.52091  0.06946  0.75939  1.0000
  C   C2905     1.0  0.79957  0.28536  0.83275  1.0000
  C   C2906     1.0  0.62620  0.03010  0.96088  1.0000
  S   S405      1.0  0.64828  0.21745  0.76786  1.0000
  H   H2291     1.0  0.63485  0.26984  0.88889  1.0000
  H   H2292     1.0  0.63326  0.02363  0.93100  1.0000
  H   H2293     1.0  0.50453  0.25804  0.78960  1.0000
  C   C2907     1.0  0.64997  0.24136  0.88447  1.0000
  C   C2908     1.0  0.77122  0.25963  0.76889  1.0000
  C   C2909     1.0  0.80191  0.29136  0.94634  1.0000
  C   C2910     1.0  0.80249  0.26625  0.99036  1.0000
  C   C2911     1.0  0.49912  0.16498  0.76101  1.0000
  C   C2912     1.0  0.51910  0.10003  0.82983  1.0000
  C   C2913     1.0  0.52485  0.10968  0.84455  1.0000
  C   C2914     1.0  0.57672  0.01441  0.92696  1.0000
  H   H2294     1.0  0.52894  0.08841  0.82381  1.0000
  H   H2295     1.0  0.53939  0.10601  0.84922  1.0000
  H   H2296     1.0  0.56055  0.06468  0.96444  1.0000
  H   H2297     1.0  0.63116  0.11755  0.76786  1.0000
  H   H2298     1.0  0.80768  0.32520  0.85561  1.0000
  H   H2299     1.0  0.72672  0.20335  0.78261  1.0000
  H   H2300     1.0  0.64520  0.24995  0.93735  1.0000
  H   H2301     1.0  0.55180  0.15451  0.76577  1.0000
  H   H2302     1.0  0.54872  0.11986  0.76173  1.0000
  C   C2915     1.0  0.60536  0.08140  0.85518  1.0000
  C   C2916     1.0  0.61563  0.06320  0.85189  1.0000
  C   C2917     1.0  0.60810  0.05075  0.84061  1.0000
  C   C2918     1.0  0.59052  0.05661  0.83208  1.0000
  C   C2919     1.0  0.58054  0.07506  0.83491  1.0000
  C   C2920     1.0  0.58789  0.08736  0.84648  1.0000
  H   H2303     1.0  0.62940  0.05876  0.85796  1.0000
  H   H2304     1.0  0.61603  0.03657  0.83834  1.0000
  H   H2305     1.0  0.56692  0.07970  0.82857  1.0000
  H   H2306     1.0  0.57983  0.10143  0.84889  1.0000
  C   C2921     1.0  0.70081  0.24710  0.77998  1.0000
  C   C2922     1.0  0.69002  0.23642  0.79512  1.0000
  C   C2923     1.0  0.67398  0.22735  0.79110  1.0000
  C   C2924     1.0  0.66862  0.22895  0.77196  1.0000
  C   C2925     1.0  0.67953  0.23942  0.75676  1.0000
  C   C2926     1.0  0.69560  0.24851  0.76077  1.0000
  H   H2307     1.0  0.69404  0.23512  0.80992  1.0000
  H   H2308     1.0  0.66577  0.21898  0.80286  1.0000
  C   C2927     1.0  0.75286  0.26587  0.94809  1.0000
  P   P98       1.0  0.78096  0.20541  0.74882  1.0000
  C   C2928     1.0  0.70379  0.18900  0.87742  1.0000
  C   C2929     1.0  0.71704  0.17822  0.86475  1.0000
  C   C2930     1.0  0.71646  0.15784  0.86511  1.0000
  C   C2931     1.0  0.70246  0.14802  0.87789  1.0000
  C   C2932     1.0  0.68912  0.15880  0.89049  1.0000
  C   C2933     1.0  0.68995  0.17912  0.89041  1.0000
  H   H2309     1.0  0.72790  0.18551  0.85483  1.0000
  H   H2310     1.0  0.72697  0.14961  0.85544  1.0000
  H   H2311     1.0  0.67845  0.15140  0.90061  1.0000
  H   H2312     1.0  0.68000  0.18708  0.90073  1.0000
  C   C2934     1.0  0.85061  0.22262  0.78977  1.0000
  C   C2935     1.0  0.85137  0.21098  0.80770  1.0000
  C   C2936     1.0  0.83478  0.21041  0.82144  1.0000
  C   C2937     1.0  0.81712  0.22160  0.81763  1.0000
  C   C2938     1.0  0.81618  0.23365  0.79979  1.0000
  C   C2939     1.0  0.83296  0.23407  0.78576  1.0000
  H   H2313     1.0  0.86490  0.20216  0.81093  1.0000
  H   H2314     1.0  0.83567  0.20112  0.83514  1.0000
  H   H2315     1.0  0.80259  0.24243  0.79677  1.0000
  H   H2316     1.0  0.83231  0.24319  0.77196  1.0000
  C   C2940     1.0  0.99250  0.30579  0.92339  1.0000
  H   H2317     1.0  0.55937  0.13749  0.91783  1.0000
  H   H2318     1.0  0.61115  0.14873  0.75853  1.0000
  H   H2319     1.0  0.56732  0.24856  0.77117  1.0000
  H   H2320     1.0  0.60913  0.26826  0.75257  1.0000
  C   C2941     1.0  0.55255  0.16293  0.89768  1.0000
  C   C2942     1.0  0.88300  0.28885  0.81006  1.0000
  H   H2321     1.0  0.76849  0.15847  0.82196  1.0000
  C   C2943     1.0  0.85552  0.31309  0.86414  1.0000
  C   C2944     1.0  0.65065  0.16606  0.96779  1.0000
  H   H2322     1.0  0.58828  0.01731  0.85928  1.0000
  C   C2945     1.0  0.75244  0.17989  0.91547  1.0000
  C   C2946     1.0  0.64320  0.12857  0.96149  1.0000
  C   C2947     1.0  0.65184  0.14083  0.94604  1.0000
  C   C2948     1.0  0.65519  0.15982  0.94910  1.0000
  H   H2323     1.0  0.65513  0.13608  0.93160  1.0000
  H   H2324     1.0  0.66074  0.16976  0.93695  1.0000
  H   H2325     1.0  0.93090  0.24083  0.90038  1.0000
  C   C2949     1.0  0.68137  0.01890  0.94346  1.0000
  C   C2950     1.0  0.54716  0.18542  0.96291  1.0000
  P   P99       1.0  0.80740  0.30616  0.98123  1.0000
  C   C2951     1.0  0.61616  0.22637  0.90467  1.0000
  H   H2326     1.0  0.70405  0.25655  0.74896  1.0000
  C   C2952     1.0  0.83315  0.28107  0.81762  1.0000
  C   C2953     1.0  0.89880  0.27417  0.81111  1.0000
  H   H2327     1.0  0.81872  0.25849  0.83625  1.0000
  H   H2328     1.0  0.61843  0.25492  0.78546  1.0000
  H   H2329     1.0  0.84656  0.27140  0.81515  1.0000
  H   H2330     1.0  0.75848  0.30786  0.92342  1.0000
  H   H2331     1.0  0.90659  0.27146  0.82403  1.0000
  H   H2332     1.0  0.57142  0.09071  0.91527  1.0000
  C   C2954     1.0  0.77086  0.16733  0.80800  1.0000
  H   H2333     1.0  0.97598  0.26007  0.92887  1.0000
  H   H2334     1.0  0.54038  0.02257  0.96413  1.0000
  C   C2955     1.0  0.57715  0.00805  0.86605  1.0000
  C   C2956     1.0  0.52242  0.24758  0.75529  1.0000
  H   H2335     1.0  0.81520  0.30554  0.89820  1.0000
  H   H2336     1.0  0.86515  0.29614  0.89922  1.0000
  H   H2337     1.0  0.51143  0.13438  0.76359  1.0000
  C   C2957     1.0  0.73267  0.20987  0.92338  1.0000
  C   C2958     1.0  0.63405  0.25416  0.89127  1.0000
  C   C2959     1.0  0.68432  0.00097  0.98246  1.0000
  H   H2338     1.0  0.54821  0.10086  0.89003  1.0000
  C   C2960     1.0  0.56810  0.08014  0.90613  1.0000
  C   C2961     1.0  0.55508  0.08587  0.89194  1.0000
  H   H2339     1.0  0.76084  0.15982  0.94007  1.0000
  C   C2962     1.0  0.73328  0.23997  0.96339  1.0000
  C   C2963     1.0  0.94780  0.29213  0.96907  1.0000
  H   H2340     1.0  0.64797  0.26486  0.79725  1.0000
  H   H2341     1.0  0.55193  0.99428  0.91014  1.0000
  C   C2964     1.0  0.59853  0.19140  0.92595  1.0000
  C   C2965     1.0  0.60202  0.15766  0.91825  1.0000
  H   H2342     1.0  0.55649  0.04300  0.87244  1.0000
  C   C2966     1.0  0.96708  0.31050  0.79755  1.0000
  C   C2967     1.0  0.55096  0.07225  0.88004  1.0000
  H   H2343     1.0  0.54086  0.07658  0.86907  1.0000
  C   C2968     1.0  0.70058  0.09801  0.83338  1.0000
  C   C2969     1.0  0.70988  0.08918  0.81707  1.0000
  C   C2970     1.0  0.70740  0.09823  0.79819  1.0000
  C   C2971     1.0  0.69555  0.11606  0.79563  1.0000
  C   C2972     1.0  0.68568  0.12470  0.81196  1.0000
  C   C2973     1.0  0.68853  0.11570  0.83087  1.0000
  P   P100      1.0  0.67134  0.14821  0.80844  1.0000
  C   C2974     1.0  0.65762  0.15415  0.83131  1.0000
  C   C2975     1.0  0.68901  0.16547  0.79977  1.0000
  C   C2976     1.0  0.70349  0.16792  0.81169  1.0000
  C   C2977     1.0  0.71691  0.18165  0.80559  1.0000
  C   C2978     1.0  0.71653  0.19246  0.78719  1.0000
  C   C2979     1.0  0.70276  0.18945  0.77486  1.0000
  C   C2980     1.0  0.68897  0.17609  0.78112  1.0000
  C   C2981     1.0  0.66078  0.17065  0.84012  1.0000
  C   C2982     1.0  0.65064  0.17434  0.85828  1.0000
  C   C2983     1.0  0.63301  0.14613  0.85843  1.0000
  C   C2984     1.0  0.64348  0.14204  0.84052  1.0000
  C   C2985     1.0  0.65294  0.14812  0.79190  1.0000
  C   C2986     1.0  0.64135  0.16563  0.78668  1.0000
  C   C2987     1.0  0.62633  0.16584  0.77471  1.0000
  C   C2988     1.0  0.62282  0.14855  0.76778  1.0000
  C   C2989     1.0  0.63419  0.13099  0.77299  1.0000
  C   C2990     1.0  0.64902  0.13068  0.78526  1.0000
  H   H2344     1.0  0.70282  0.09129  0.84806  1.0000
  H   H2345     1.0  0.71910  0.07541  0.81912  1.0000
  H   H2346     1.0  0.71473  0.09144  0.78555  1.0000
  H   H2347     1.0  0.69401  0.12309  0.78094  1.0000
  H   H2348     1.0  0.68175  0.12234  0.84378  1.0000
  H   H2349     1.0  0.70403  0.15954  0.82597  1.0000
  H   H2350     1.0  0.72750  0.18402  0.81522  1.0000
  H   H2351     1.0  0.91753  0.31501  0.81706  1.0000
  C   C2991     1.0  0.52845  0.19434  0.95853  1.0000
  H   H2352     1.0  0.67826  0.17431  0.77140  1.0000
  H   H2353     1.0  0.67112  0.18063  0.83328  1.0000
  H   H2354     1.0  0.62231  0.13659  0.86558  1.0000
  H   H2355     1.0  0.64075  0.12921  0.83404  1.0000
  H   H2356     1.0  0.64402  0.17913  0.79187  1.0000
  H   H2357     1.0  0.61745  0.17943  0.77067  1.0000
  H   H2358     1.0  0.95158  0.30888  0.79827  1.0000
  H   H2359     1.0  0.61178  0.24896  0.97292  1.0000
  H   H2360     1.0  0.65702  0.11675  0.78975  1.0000
  C   C2992     1.0  0.65043  0.29115  0.75213  1.0000
  C   C2993     1.0  0.92297  0.26776  0.91365  1.0000
  H   H2361     1.0  0.98424  0.31568  0.91328  1.0000
  C   C2994     1.0  0.71924  0.08499  0.98353  1.0000
  C   C2995     1.0  0.98299  0.29506  0.93959  1.0000
  C   C2996     1.0  0.56514  0.24888  0.96158  1.0000
  H   H2362     1.0  0.97513  0.29282  0.77364  1.0000
  H   H2363     1.0  0.78809  0.28422  0.76147  1.0000
  C   C2997     1.0  0.91592  0.30556  0.74716  1.0000
  C   C2998     1.0  0.88694  0.31861  0.93945  1.0000
  H   H2364     1.0  0.75779  0.28723  0.96681  1.0000
  H   H2365     1.0  0.72450  0.22357  0.91831  1.0000
  H   H2366     1.0  0.76036  0.26727  0.77871  1.0000
  H   H2367     1.0  0.58674  0.05654  0.91968  1.0000
  C   C2999     1.0  0.94844  0.27898  0.92975  1.0000
  C   C3000     1.0  0.59726  0.12671  0.80989  1.0000
  C   C3001     1.0  0.58189  0.11947  0.80253  1.0000
  C   C3002     1.0  0.56276  0.12865  0.80564  1.0000
  C   C3003     1.0  0.55896  0.14506  0.81606  1.0000
  C   C3004     1.0  0.57442  0.15276  0.82303  1.0000
  C   C3005     1.0  0.59363  0.14343  0.81985  1.0000
  P   P101      1.0  0.56943  0.17228  0.83871  1.0000
  C   C3006     1.0  0.56656  0.16128  0.86384  1.0000
  C   C3007     1.0  0.58969  0.18709  0.83527  1.0000
  C   C3008     1.0  0.59538  0.19514  0.85115  1.0000
  C   C3009     1.0  0.61072  0.20710  0.84828  1.0000
  C   C3010     1.0  0.62019  0.21139  0.82948  1.0000
  C   C3011     1.0  0.61426  0.20380  0.81357  1.0000
  C   C3012     1.0  0.59923  0.19151  0.81643  1.0000
  C   C3013     1.0  0.55506  0.17149  0.87828  1.0000
  H   H2368     1.0  0.81466  0.26349  0.97923  1.0000
  C   C3014     1.0  0.56162  0.14417  0.90285  1.0000
  C   C3015     1.0  0.57351  0.13410  0.88866  1.0000
  C   C3016     1.0  0.57597  0.14256  0.86925  1.0000
  C   C3017     1.0  0.54738  0.18796  0.83295  1.0000
  C   C3018     1.0  0.52884  0.18224  0.84039  1.0000
  H   H2369     1.0  0.79598  0.28161  0.91931  1.0000
  C   C3019     1.0  0.54846  0.20618  0.82159  1.0000
  H   H2370     1.0  0.61189  0.11899  0.80834  1.0000
  H   H2371     1.0  0.58471  0.10643  0.79489  1.0000
  H   H2372     1.0  0.55081  0.12267  0.80040  1.0000
  H   H2373     1.0  0.54392  0.15132  0.81903  1.0000
  H   H2374     1.0  0.60567  0.14857  0.82577  1.0000
  H   H2375     1.0  0.58790  0.19232  0.86569  1.0000
  H   H2376     1.0  0.61527  0.21304  0.86061  1.0000
  H   H2377     1.0  0.63210  0.22064  0.82718  1.0000
  H   H2378     1.0  0.62128  0.20743  0.79897  1.0000
  H   H2379     1.0  0.59482  0.18573  0.80391  1.0000
  H   H2380     1.0  0.54772  0.18590  0.87448  1.0000
  C   C3020     1.0  0.90187  0.31945  0.86524  1.0000
  H   H2381     1.0  0.58075  0.11961  0.89255  1.0000
  H   H2382     1.0  0.58505  0.13424  0.85862  1.0000
  H   H2383     1.0  0.52761  0.16828  0.84910  1.0000
  H   H2384     1.0  0.56245  0.21103  0.81548  1.0000
  C   C3021     1.0  0.62191  0.27278  0.75776  1.0000
  H   H2385     1.0  0.91926  0.29398  0.92806  1.0000
  H   H2386     1.0  0.75897  0.09419  0.98021  1.0000
  H   H2387     1.0  0.61883  0.22884  0.94529  1.0000
  H   H2388     1.0  0.52703  0.21076  0.90442  1.0000
  H   H2389     1.0  0.55681  0.23503  0.93836  1.0000
  H   H2390     1.0  0.76083  0.27282  0.93516  1.0000
  C   C3022     1.0  0.71339  0.12823  0.96931  1.0000
  C   C3023     1.0  0.53891  0.25520  0.76039  1.0000
  P   P102      1.0  0.58257  0.02160  0.90106  1.0000
  C   C3024     1.0  0.76270  0.16304  0.79166  1.0000
  C   C3025     1.0  0.75771  0.31355  0.87378  1.0000
  H   H2391     1.0  0.60284  0.14716  0.90766  1.0000
  C   C3026     1.0  0.87704  0.30193  0.94422  1.0000
  C   C3027     1.0  0.72112  0.12479  0.95010  1.0000
  C   C3028     1.0  0.71810  0.13924  0.93443  1.0000
  C   C3029     1.0  0.70806  0.15747  0.93792  1.0000
  C   C3030     1.0  0.70103  0.16127  0.95704  1.0000
  H   H2392     1.0  0.53017  0.22949  0.87148  1.0000
  C   C3031     1.0  0.66814  0.25377  0.95471  1.0000
  P   P103      1.0  0.50213  0.26419  0.74668  1.0000
  C   C3032     1.0  0.71000  0.08064  0.96778  1.0000
  H   H2393     1.0  0.51698  0.13335  0.79795  1.0000
  H   H2394     1.0  0.66321  0.24700  0.87690  1.0000
  C   C3033     1.0  0.69853  0.30581  0.75644  1.0000
  C   C3034     1.0  0.59988  0.24602  0.96518  1.0000
  H   H2395     1.0  0.49957  0.22240  0.82358  1.0000
  H   H2396     1.0  0.81602  0.17977  0.76051  1.0000
  C   C3035     1.0  0.60335  0.16448  0.95153  1.0000
  C   C3036     1.0  0.77680  0.19060  0.77201  1.0000
  P   P104      1.0  0.59433  0.21730  0.91814  1.0000
  H   H2397     1.0  0.60498  0.25683  0.90654  1.0000
  C   C3037     1.0  0.78511  0.19467  0.78846  1.0000
  H   H2398     1.0  0.60610  0.13544  0.94247  1.0000
  H   H2399     1.0  0.67736  0.03023  0.99039  1.0000
  H   H2400     1.0  0.72942  0.11096  0.94710  1.0000
  H   H2401     1.0  0.72343  0.13630  0.91952  1.0000
  H   H2402     1.0  0.70580  0.16869  0.92581  1.0000
  H   H2403     1.0  0.69308  0.17534  0.95967  1.0000
  H   H2404     1.0  0.74940  0.29097  0.89642  1.0000
  C   C3038     1.0  0.94447  0.32592  0.91422  1.0000
  H   H2405     1.0  0.50942  0.22081  0.75386  1.0000
  S   S406      1.0  0.51894  0.00973  0.76485  1.0000
  C   C3039     1.0  0.60384  0.23483  0.94935  1.0000
  C   C3040     1.0  0.74055  0.26518  0.98242  1.0000
  C   C3041     1.0  0.50563  0.16341  0.80050  1.0000
  C   C3042     1.0  0.83092  0.30739  0.99016  1.0000
  H   H2406     1.0  0.89820  0.25695  0.76719  1.0000
  P   P105      1.0  0.85158  0.31037  0.79299  1.0000
  C   C3043     1.0  0.54080  0.21642  0.89859  1.0000
  H   H2407     1.0  0.54820  0.03151  0.92863  1.0000
  C   C3044     1.0  0.58052  0.25287  0.97144  1.0000
  H   H2408     1.0  0.50554  0.21713  0.96569  1.0000
  C   C3045     1.0  0.63926  0.13466  0.98017  1.0000
  H   H2409     1.0  0.55517  0.20426  0.92382  1.0000
  H   H2410     1.0  0.91792  0.30624  0.88936  1.0000
  H   H2411     1.0  0.66581  0.00804  0.88476  1.0000
  C   C3046     1.0  0.91741  0.30781  0.87368  1.0000
  C   C3047     1.0  0.93264  0.29838  0.86184  1.0000
  C   C3048     1.0  0.93254  0.30072  0.84147  1.0000
  H   H2412     1.0  0.98747  0.27355  0.96466  1.0000
  S   S407      1.0  0.51650  0.18556  0.94006  1.0000
  C   C3049     1.0  0.63406  0.00334  0.98566  1.0000
  C   C3050     1.0  0.75854  0.10533  0.99008  1.0000
  H   H2413     1.0  0.67273  0.04562  0.95674  1.0000
  C   C3051     1.0  0.86948  0.29378  0.92954  1.0000
  H   H2414     1.0  0.87502  0.29548  0.95932  1.0000
  C   C3052     1.0  0.55677  0.21290  0.90967  1.0000
  C   C3053     1.0  0.56805  0.99768  0.85418  1.0000
  C   C3054     1.0  0.71103  0.06131  0.96336  1.0000
  C   C3055     1.0  0.73325  0.20400  0.94352  1.0000
  H   H2415     1.0  0.74214  0.22913  0.74666  1.0000
  H   H2416     1.0  0.66858  0.28716  0.77627  1.0000
  C   C3056     1.0  0.58520  0.05336  0.98049  1.0000
  C   C3057     1.0  0.57609  0.23177  0.88425  1.0000
  H   H2417     1.0  0.83391  0.29738  0.85441  1.0000
  H   H2418     1.0  0.86668  0.30066  0.86383  1.0000
  C   C3058     1.0  0.83109  0.30454  0.76200  1.0000
  C   C3059     1.0  0.72035  0.04606  0.97520  1.0000
  H   H2419     1.0  0.94469  0.28948  0.86841  1.0000
  H   H2420     1.0  0.94443  0.29345  0.83237  1.0000
  C   C3060     1.0  0.67930  0.02125  0.97851  1.0000
  H   H2421     1.0  0.87088  0.28323  0.76476  1.0000
  C   C3061     1.0  0.64900  0.22116  0.88767  1.0000
  C   C3062     1.0  0.51987  0.21006  0.96879  1.0000
  H   H2422     1.0  0.61411  0.04815  0.89426  1.0000
  H   H2423     1.0  0.86162  0.28094  0.93326  1.0000
  C   C3063     1.0  0.70370  0.14678  0.97270  1.0000
  H   H2424     1.0  0.58473  0.03844  0.97743  1.0000
  H   H2425     1.0  0.65007  0.04162  0.88798  1.0000
  C   C3064     1.0  0.63684  0.16207  0.86748  1.0000
  C   C3065     1.0  0.76564  0.17461  0.77372  1.0000
  P   P106      1.0  0.95643  0.29683  0.94333  1.0000
  C   C3066     1.0  0.57219  0.08759  0.97657  1.0000
  C   C3067     1.0  0.90203  0.32205  0.84474  1.0000
  H   H2426     1.0  0.57733  0.26073  0.98431  1.0000
  H   H2427     1.0  0.78327  0.31325  0.82537  1.0000
  H   H2428     1.0  0.68734  0.19975  0.98383  1.0000
  H   H2429     1.0  0.79263  0.28142  0.95512  1.0000
  H   H2430     1.0  0.53678  0.19894  0.76688  1.0000
  H   H2431     1.0  0.91624  0.25104  0.79647  1.0000
  H   H2432     1.0  0.75391  0.15085  0.79297  1.0000
  C   C3068     1.0  0.57688  0.06079  0.90846  1.0000
  H   H2433     1.0  0.90814  0.26978  0.90946  1.0000
  C   C3069     1.0  0.65546  0.28365  0.77091  1.0000
  C   C3070     1.0  0.53724  0.21470  0.76515  1.0000
  C   C3071     1.0  0.95784  0.29842  0.98330  1.0000
  C   C3072     1.0  0.64991  0.01070  0.88723  1.0000
  C   C3073     1.0  0.87144  0.30258  0.91016  1.0000
  H   H2434     1.0  0.56590  0.21252  0.77505  1.0000
  C   C3074     1.0  0.55428  0.01679  0.95680  1.0000
  C   C3075     1.0  0.55369  0.22238  0.76987  1.0000
  C   C3076     1.0  0.52171  0.22720  0.75776  1.0000
  H   H2435     1.0  0.92190  0.27897  0.96445  1.0000
  C   C3077     1.0  0.79732  0.30440  0.82331  1.0000
  H   H2436     1.0  0.78858  0.18632  0.81900  1.0000
  C   C3078     1.0  0.95485  0.24884  0.91407  1.0000
  C   C3079     1.0  0.90428  0.26271  0.79561  1.0000
  C   C3080     1.0  0.75569  0.30475  0.89314  1.0000
  C   C3081     1.0  0.55449  0.24263  0.76758  1.0000
  H   H2437     1.0  0.70222  0.29089  0.75286  1.0000
  H   H2438     1.0  0.62931  0.16471  0.88171  1.0000
  C   C3082     1.0  0.62642  0.02283  0.98073  1.0000
  H   H2439     1.0  0.72278  0.30406  0.77377  1.0000
  C   C3083     1.0  0.81457  0.30493  0.91398  1.0000
  C   C3084     1.0  0.58553  0.99678  0.95785  1.0000
  C   C3085     1.0  0.75315  0.17391  0.93544  1.0000
  C   C3086     1.0  0.89413  0.26608  0.77901  1.0000
  C   C3087     1.0  0.66865  0.22645  0.93575  1.0000
  H   H2440     1.0  0.66161  0.21853  0.92645  1.0000
  C   C3088     1.0  0.55935  0.12774  0.75213  1.0000
  H   H2441     1.0  0.69292  0.25388  0.97063  1.0000
  C   C3089     1.0  0.68177  0.31721  0.75000  1.0000
  H   H2442     1.0  0.56165  0.24292  0.85853  1.0000
  C   C3090     1.0  0.96117  0.26249  0.92468  1.0000
  C   C3091     1.0  0.56028  0.23465  0.87287  1.0000
  C   C3092     1.0  0.78680  0.26926  0.75905  1.0000
  H   H2443     1.0  0.62169  0.04542  0.95663  1.0000
  H   H2444     1.0  0.59698  0.18265  0.89722  1.0000
  C   C3093     1.0  0.78340  0.23032  0.75307  1.0000
  C   C3094     1.0  0.64101  0.02969  0.88917  1.0000
  C   C3095     1.0  0.76965  0.24015  0.76620  1.0000
  P   P107      1.0  0.72008  0.21925  0.96148  1.0000
  C   C3096     1.0  0.63349  0.28564  0.74568  1.0000
  H   H2445     1.0  0.65374  0.18660  0.86529  1.0000
  C   C3097     1.0  0.57140  0.00708  0.88630  1.0000
  H   H2446     1.0  0.66152  0.21147  0.88245  1.0000
  C   C3098     1.0  0.76085  0.31436  0.90843  1.0000
  C   C3099     1.0  0.69613  0.22872  0.95410  1.0000
  C   C3100     1.0  0.68693  0.21878  0.94177  1.0000
  H   H2447     1.0  0.74518  0.24322  0.93279  1.0000
  H   H2448     1.0  0.58950  0.23803  0.87845  1.0000
  C   C3101     1.0  0.91735  0.31272  0.83290  1.0000
  H   H2449     1.0  0.74412  0.18067  0.96475  1.0000
  H   H2450     1.0  0.50760  0.16247  0.81591  1.0000
  C   C3102     1.0  0.83132  0.30056  0.80877  1.0000
  C   C3103     1.0  0.74394  0.24897  0.94682  1.0000
  H   H2451     1.0  0.72061  0.03101  0.97201  1.0000
  C   C3104     1.0  0.60393  0.15102  0.93787  1.0000
  C   C3105     1.0  0.74361  0.18587  0.94942  1.0000
  H   H2452     1.0  0.96477  0.23616  0.91019  1.0000
  H   H2453     1.0  0.53979  0.27087  0.75880  1.0000
  C   C3106     1.0  0.55994  0.05302  0.88208  1.0000
  S   S408      1.0  0.50375  0.18644  0.88703  1.0000
  H   H2454     1.0  0.69810  0.15012  0.98737  1.0000
  C   C3107     1.0  0.87847  0.28088  0.77780  1.0000
  H   H2455     1.0  0.69369  0.20506  0.93678  1.0000
  H   H2456     1.0  0.75911  0.17104  0.76131  1.0000
  C   C3108     1.0  0.93024  0.28356  0.97504  1.0000
  C   C3109     1.0  0.62705  0.26538  0.77637  1.0000
  C   C3110     1.0  0.71027  0.31326  0.76831  1.0000
  C   C3111     1.0  0.57291  0.04706  0.89640  1.0000
  H   H2457     1.0  0.70177  0.09204  0.95900  1.0000
  C   C3112     1.0  0.63227  0.21359  0.89788  1.0000
  C   C3113     1.0  0.99438  0.28230  0.95228  1.0000
  C   C3114     1.0  0.55875  0.02182  0.93666  1.0000
  H   H2458     1.0  0.63215  0.19785  0.90064  1.0000
  C   C3115     1.0  0.67719  0.03008  0.95930  1.0000
  H   H2459     1.0  0.93758  0.30594  0.76715  1.0000
  H   H2460     1.0  0.79403  0.20670  0.78749  1.0000
  C   C3116     1.0  0.81733  0.27358  0.82960  1.0000
  C   C3117     1.0  0.83698  0.31116  0.85874  1.0000
  H   H2461     1.0  0.74156  0.20244  0.89397  1.0000
  C   C3118     1.0  0.55703  0.19202  0.97733  1.0000
  C   C3119     1.0  0.81145  0.30446  0.95501  1.0000
  H   H2462     1.0  0.55008  0.25363  0.96688  1.0000
  C   C3120     1.0  0.51074  0.14688  0.79045  1.0000
  C   C3121     1.0  0.57148  0.06817  0.97314  1.0000
  C   C3122     1.0  0.88088  0.31972  0.90529  1.0000
  H   H2463     1.0  0.70438  0.05805  0.95085  1.0000
  C   C3123     1.0  0.82389  0.31819  0.92238  1.0000
  C   C3124     1.0  0.71751  0.20494  0.98518  1.0000
  C   C3125     1.0  0.51178  0.12394  0.85332  1.0000
  C   C3126     1.0  0.64372  0.15308  0.98345  1.0000
  C   C3127     1.0  0.98035  0.30162  0.78349  1.0000
  H   H2464     1.0  0.78740  0.27960  0.84223  1.0000
  C   C3128     1.0  0.94665  0.32122  0.93424  1.0000
  C   C3129     1.0  0.59896  0.17776  0.91236  1.0000
  C   C3130     1.0  0.93577  0.25147  0.90854  1.0000
  C   C3131     1.0  0.81821  0.18413  0.74490  1.0000
  C   C3132     1.0  0.68644  0.24614  0.96076  1.0000
  C   C3133     1.0  0.57441  0.22090  0.90282  1.0000
  C   C3134     1.0  0.60883  0.01779  0.89456  1.0000
  C   C3135     1.0  0.65932  0.24401  0.94208  1.0000
  H   H2465     1.0  0.60505  0.15932  0.96672  1.0000
  C   C3136     1.0  0.50065  0.10537  0.82313  1.0000
  H   H2466     1.0  0.57129  0.18492  0.98051  1.0000
  H   H2467     1.0  0.57222  0.99906  0.83845  1.0000
  C   C3137     1.0  0.54257  0.22711  0.88011  1.0000
  C   C3138     1.0  0.54839  0.20769  0.98765  1.0000
  H   H2468     1.0  0.75770  0.23281  0.77441  1.0000
  H   H2469     1.0  0.66074  0.26721  0.95988  1.0000
  C   C3139     1.0  0.62056  0.03327  0.89289  1.0000
  H   H2470     1.0  0.53219  0.23258  0.80946  1.0000
  C   C3140     1.0  0.87270  0.29224  0.79341  1.0000
  C   C3141     1.0  0.73146  0.24842  0.98115  1.0000
  C   C3142     1.0  0.60093  0.18460  0.94559  1.0000
  C   C3143     1.0  0.61720  0.24672  0.90129  1.0000
  C   C3144     1.0  0.56908  0.23806  0.94545  1.0000
  C   C3145     1.0  0.80368  0.29146  0.92594  1.0000
  C   C3146     1.0  0.74226  0.19788  0.90947  1.0000
  C   C3147     1.0  0.53128  0.21852  0.81811  1.0000
  C   C3148     1.0  0.56101  0.14746  0.75427  1.0000
  H   H2471     1.0  0.75960  0.17055  0.90461  1.0000
  H   H2472     1.0  0.60076  0.19466  0.95648  1.0000
  H   H2473     1.0  0.55408  0.17331  0.95509  1.0000
  H   H2474     1.0  0.94857  0.31505  0.90400  1.0000
  C   C3149     1.0  0.58851  0.23100  0.93916  1.0000
  H   H2475     1.0  0.66950  0.08390  0.98759  1.0000
  C   C3150     1.0  0.78211  0.18308  0.80636  1.0000
  C   C3151     1.0  0.92929  0.28145  0.92419  1.0000
  C   C3152     1.0  0.64372  0.27095  0.78299  1.0000
  S   S409      1.0  0.51884  0.13470  0.87267  1.0000
  H   H2476     1.0  0.97100  0.30572  0.97907  1.0000
  H   H2477     1.0  0.54321  0.17066  0.90867  1.0000
  C   C3153     1.0  0.52973  0.21662  0.98321  1.0000
  H   H2478     1.0  0.56187  0.09916  0.97051  1.0000
  C   C3154     1.0  0.84422  0.31582  0.76849  1.0000
  C   C3155     1.0  0.81302  0.31188  0.81112  1.0000
  H   H2479     1.0  0.82569  0.29216  0.77137  1.0000
  H   H2480     1.0  0.58740  0.10726  0.98975  1.0000
  H   H2481     1.0  0.87861  0.29737  0.82232  1.0000
  C   C3156     1.0  0.72891  0.05016  0.99136  1.0000
  C   C3157     1.0  0.75115  0.27398  0.96588  1.0000
  C   C3158     1.0  0.82235  0.31798  0.94275  1.0000
  C   C3159     1.0  0.63928  0.99812  0.95131  1.0000
  H   H2482     1.0  0.70230  0.19796  0.76068  1.0000
  C   C3160     1.0  0.50749  0.14757  0.77083  1.0000
  H   H2483     1.0  0.77173  0.32143  0.96335  1.0000
  P   P108      1.0  0.71778  0.10984  0.98968  1.0000
  C   C3161     1.0  0.63833  0.99523  0.88861  1.0000
  H   H2484     1.0  0.79004  0.10224  0.99013  1.0000
  S   S410      1.0  0.57603  0.18281  0.74503  1.0000
  H   H2485     1.0  0.64050  0.06995  0.97996  1.0000
  C   C3162     1.0  0.92690  0.31479  0.75871  1.0000
  H   H2486     1.0  0.63261  0.12516  0.99209  1.0000
  C   C3163     1.0  0.80083  0.25940  0.74640  1.0000
  C   C3164     1.0  0.55666  0.99527  0.89460  1.0000
  H   H2487     1.0  0.91825  0.28984  0.74684  1.0000
  C   C3165     1.0  0.56768  0.00430  0.96740  1.0000
  H   H2488     1.0  0.60391  0.99571  0.93069  1.0000
  C   C3166     1.0  0.59001  0.00173  0.93771  1.0000
  C   C3167     1.0  0.79926  0.24003  0.74355  1.0000
  H   H2489     1.0  0.92553  0.04074  0.74585  1.0000
  C   C3168     1.0  0.49776  0.18092  0.79072  1.0000
  H   H2490     1.0  0.49751  0.19020  0.84314  1.0000
  C   C3169     1.0  0.84050  0.32453  0.98599  1.0000
  H   H2491     1.0  0.56427  0.00040  0.98299  1.0000
  H   H2492     1.0  0.89256  0.32516  0.95085  1.0000
  C   C3170     1.0  0.99359  0.32484  0.80864  1.0000
  C   C3171     1.0  0.85908  0.32502  0.99205  1.0000
  C   C3172     1.0  0.97371  0.32195  0.81024  1.0000
  C   C3173     1.0  0.58645  0.09215  0.98757  1.0000
  H   H2493     1.0  0.52280  0.22871  0.99104  1.0000
  C   C3174     1.0  0.59982  0.05789  0.99123  1.0000
  H   H2494     1.0  0.74714  0.20732  0.99150  1.0000
  H   H2495     1.0  0.67553  0.12276  0.99208  1.0000
  C   C3175     1.0  0.82507  0.30903  0.74317  1.0000
  H   H2496     1.0  0.81083  0.32646  0.80346  1.0000
  C   C3176     1.0  0.82219  0.32683  0.85940  1.0000
  C   C3177     1.0  0.69983  0.19711  0.99227  1.0000
  S   S411      1.0  0.95667  0.62960  0.03194  1.0000
  Fe  Fe206     1.0  0.81967  0.55621  0.03476  1.0000
  S   S412      1.0  0.78961  0.54606  0.03605  1.0000
  S   S413      1.0  0.82830  0.58577  0.02133  1.0000
  Fe  Fe207     1.0  0.83590  0.51897  0.05746  1.0000
  S   S414      1.0  0.80731  0.50581  0.06122  1.0000
  S   S415      1.0  0.86427  0.50219  0.06552  1.0000
  Fe  Fe208     1.0  0.80548  0.51648  0.02922  1.0000
  C   C3178     1.0  0.80958  0.38065  0.05740  1.0000
  Fe  Fe209     1.0  0.79381  0.53616  0.06783  1.0000
  S   S416      1.0  0.77076  0.53978  0.09426  1.0000
  S   S417      1.0  0.83507  0.52800  0.02547  1.0000
  S   S418      1.0  0.82280  0.54816  0.06663  1.0000
  Fe  Fe210     1.0  0.76195  0.64259  0.20914  1.0000
  S   S419      1.0  0.74470  0.64427  0.18333  1.0000
  C   C3179     1.0  0.87714  0.38292  0.99773  1.0000
  S   S420      1.0  0.73085  0.60123  0.20100  1.0000
  Fe  Fe211     1.0  0.75643  0.61269  0.18121  1.0000
  S   S421      1.0  0.77091  0.60659  0.15068  1.0000
  Fe  Fe212     1.0  0.72068  0.63295  0.20487  1.0000
  Fe  Fe213     1.0  0.90783  0.36625  0.02973  1.0000
  S   S422      1.0  0.77553  0.61180  0.20577  1.0000
  C   C3180     1.0  0.85556  0.65950  0.06600  1.0000
  Fe  Fe214     1.0  0.91757  0.49792  0.14997  1.0000
  S   S423      1.0  0.92727  0.49135  0.18002  1.0000
  S   S424      1.0  0.89254  0.52099  0.14413  1.0000
  Fe  Fe215     1.0  0.94587  0.46550  0.13337  1.0000
  S   S425      1.0  0.95796  0.45656  0.16241  1.0000
  S   S426      1.0  0.95593  0.45265  0.10451  1.0000
  Fe  Fe216     1.0  0.92609  0.45981  0.17535  1.0000
  S   S427      1.0  0.91117  0.43912  0.19949  1.0000
  Fe  Fe217     1.0  0.95805  0.48921  0.16426  1.0000
  H   H2497     1.0  0.82185  0.64402  0.04058  1.0000
  S   S428      1.0  0.91433  0.46676  0.14623  1.0000
  S   S429      1.0  0.94807  0.49777  0.13435  1.0000
  S   S430      1.0  0.76777  0.36689  0.15768  1.0000
  S   S431      1.0  0.75996  0.35893  0.21772  1.0000
  Fe  Fe218     1.0  0.80608  0.38835  0.20551  1.0000
  S   S432      1.0  0.77588  0.40009  0.19725  1.0000
  S   S433      1.0  0.82945  0.40773  0.19054  1.0000
  Fe  Fe219     1.0  0.76429  0.38785  0.22738  1.0000
  Fe  Fe220     1.0  0.95997  0.63770  0.06141  1.0000
  Fe  Fe221     1.0  0.77446  0.37011  0.18833  1.0000
  H   H2498     1.0  0.90587  0.55845  0.12834  1.0000
  H   H2499     1.0  0.98148  0.62975  0.12983  1.0000
  C   C3181     1.0  0.81035  0.64045  0.13982  1.0000
  C   C3182     1.0  0.84897  0.43234  0.02108  1.0000
  C   C3183     1.0  0.85295  0.41458  0.19340  1.0000
  C   C3184     1.0  0.86308  0.42489  0.17731  1.0000
  C   C3185     1.0  0.88100  0.43208  0.17891  1.0000
  C   C3186     1.0  0.88915  0.42912  0.19672  1.0000
  C   C3187     1.0  0.87937  0.41826  0.21276  1.0000
  C   C3188     1.0  0.86134  0.41100  0.21114  1.0000
  H   H2500     1.0  0.85681  0.42790  0.16359  1.0000
  H   H2501     1.0  0.88831  0.44018  0.16640  1.0000
  H   H2502     1.0  0.88565  0.41569  0.22657  1.0000
  H   H2503     1.0  0.82847  0.39865  0.14026  1.0000
  C   C3189     1.0  0.95169  0.42879  0.10027  1.0000
  C   C3190     1.0  0.95638  0.42301  0.08129  1.0000
  C   C3191     1.0  0.95343  0.40413  0.07729  1.0000
  C   C3192     1.0  0.94646  0.39059  0.09244  1.0000
  C   C3193     1.0  0.94419  0.41541  0.11533  1.0000
  H   H2504     1.0  0.96249  0.43315  0.06965  1.0000
  H   H2505     1.0  0.95723  0.39981  0.06267  1.0000
  H   H2506     1.0  0.94067  0.41962  0.13003  1.0000
  C   C3194     1.0  0.87220  0.48401  0.99349  1.0000
  H   H2507     1.0  0.90864  0.54212  0.09813  1.0000
  H   H2508     1.0  0.77348  0.34915  0.12190  1.0000
  C   C3195     1.0  0.86528  0.60967  0.13800  1.0000
  C   C3196     1.0  0.92463  0.38361  0.18751  1.0000
  H   H2509     1.0  0.97581  0.58010  0.09097  1.0000
  S   S434      1.0  0.80493  0.35893  0.19505  1.0000
  S   S435      1.0  0.94429  0.36616  0.08840  1.0000
  Fe  Fe222     1.0  0.79075  0.34999  0.22536  1.0000
  H   H2510     1.0  0.89337  0.56541  0.04345  1.0000
  H   H2511     1.0  0.84781  0.62099  0.01797  1.0000
  H   H2512     1.0  0.72387  0.41446  0.21411  1.0000
  C   C3197     1.0  0.76344  0.34348  0.15242  1.0000
  C   C3198     1.0  0.90238  0.53993  0.21070  1.0000
  C   C3199     1.0  0.87216  0.50819  0.08704  1.0000
  C   C3200     1.0  0.89047  0.49996  0.09255  1.0000
  C   C3201     1.0  0.89672  0.50407  0.11000  1.0000
  C   C3202     1.0  0.88461  0.51633  0.12214  1.0000
  C   C3203     1.0  0.86629  0.52465  0.11665  1.0000
  C   C3204     1.0  0.86019  0.52071  0.09900  1.0000
  H   H2513     1.0  0.89977  0.49012  0.08356  1.0000
  H   H2514     1.0  0.91102  0.49779  0.11391  1.0000
  H   H2515     1.0  0.85664  0.53378  0.12613  1.0000
  H   H2516     1.0  0.84609  0.52704  0.09476  1.0000
  C   C3205     1.0  0.76967  0.55910  0.10937  1.0000
  C   C3206     1.0  0.78053  0.57508  0.10377  1.0000
  C   C3207     1.0  0.78003  0.58975  0.11638  1.0000
  C   C3208     1.0  0.76899  0.58856  0.13488  1.0000
  C   C3209     1.0  0.75787  0.57273  0.14045  1.0000
  C   C3210     1.0  0.75812  0.55815  0.12767  1.0000
  H   H2517     1.0  0.78934  0.57611  0.08971  1.0000
  H   H2518     1.0  0.78834  0.60208  0.11182  1.0000
  H   H2519     1.0  0.74930  0.57160  0.15462  1.0000
  H   H2520     1.0  0.74965  0.54586  0.13213  1.0000
  H   H2521     1.0  0.94510  0.58493  0.06822  1.0000
  C   C3211     1.0  0.93547  0.64831  0.11981  1.0000
  H   H2522     1.0  0.88458  0.41519  0.05708  1.0000
  C   C3212     1.0  0.88943  0.59656  0.03495  1.0000
  C   C3213     1.0  0.88342  0.57764  0.03803  1.0000
  C   C3214     1.0  0.86457  0.57438  0.03431  1.0000
  C   C3215     1.0  0.85171  0.58996  0.02691  1.0000
  C   C3216     1.0  0.85767  0.60893  0.02380  1.0000
  C   C3217     1.0  0.87641  0.61230  0.02807  1.0000
  H   H2523     1.0  0.86014  0.55972  0.03681  1.0000
  H   H2524     1.0  0.66410  0.60095  0.21979  1.0000
  H   H2525     1.0  0.88091  0.62695  0.02565  1.0000
  C   C3218     1.0  0.94188  0.39629  0.11146  1.0000
  C   C3219     1.0  0.84815  0.33018  0.21668  1.0000
  Fe  Fe223     1.0  0.92487  0.62821  0.04272  1.0000
  H   H2526     1.0  0.98831  0.36744  0.04078  1.0000
  C   C3220     1.0  0.88935  0.50959  0.22416  1.0000
  C   C3221     1.0  0.61794  0.37327  0.21944  1.0000
  C   C3222     1.0  0.82252  0.45942  0.04004  1.0000
  C   C3223     1.0  0.81995  0.57854  0.16327  1.0000
  H   H2527     1.0  0.73428  0.33803  0.01761  1.0000
  H   H2528     1.0  0.78921  0.59660  0.04692  1.0000
  H   H2529     1.0  0.97722  0.53649  0.14610  1.0000
  C   C3224     1.0  0.76716  0.33879  0.13305  1.0000
  C   C3225     1.0  0.90785  0.36140  0.17226  1.0000
  H   H2530     1.0  0.81489  0.61682  0.12185  1.0000
  H   H2531     1.0  0.80435  0.63149  0.15260  1.0000
  C   C3226     1.0  0.83984  0.46539  0.02947  1.0000
  C   C3227     1.0  0.88331  0.54890  0.20894  1.0000
  C   C3228     1.0  0.78153  0.44641  0.00440  1.0000
  C   C3229     1.0  0.77088  0.33264  0.04663  1.0000
  C   C3230     1.0  0.87104  0.34571  0.18331  1.0000
  H   H2532     1.0  0.93669  0.38582  0.12330  1.0000
  H   H2533     1.0  0.72393  0.41477  0.00321  1.0000
  C   C3231     1.0  0.86830  0.57478  0.09007  1.0000
  S   S436      1.0  0.73693  0.63348  0.23090  1.0000
  C   C3232     1.0  0.85347  0.38046  0.15077  1.0000
  Fe  Fe224     1.0  0.74894  0.60274  0.22586  1.0000
  S   S437      1.0  0.68866  0.64549  0.20699  1.0000
  C   C3233     1.0  0.75507  0.33009  0.16688  1.0000
  C   C3234     1.0  0.89580  0.47163  0.03241  1.0000
  H   H2534     1.0  0.81036  0.57376  0.19397  1.0000
  H   H2535     1.0  0.92440  0.33324  0.16811  1.0000
  S   S438      1.0  0.90568  0.35152  0.06030  1.0000
  H   H2536     1.0  0.66359  0.48782  0.22471  1.0000
  H   H2537     1.0  0.93036  0.44924  0.06120  1.0000
  C   C3235     1.0  0.86037  0.35813  0.19637  1.0000
  C   C3236     1.0  0.87396  0.37824  0.15109  1.0000
  C   C3237     1.0  0.77193  0.46023  0.15494  1.0000
  C   C3238     1.0  0.77559  0.43979  0.15735  1.0000
  C   C3239     1.0  0.79492  0.43091  0.15679  1.0000
  C   C3240     1.0  0.81058  0.44240  0.15407  1.0000
  C   C3241     1.0  0.80708  0.46290  0.15198  1.0000
  C   C3242     1.0  0.78760  0.47178  0.15223  1.0000
  P   P109      1.0  0.82765  0.47734  0.14817  1.0000
  C   C3243     1.0  0.84103  0.47512  0.16941  1.0000
  C   C3244     1.0  0.84305  0.46954  0.12677  1.0000
  C   C3245     1.0  0.83451  0.46819  0.10959  1.0000
  C   C3246     1.0  0.84613  0.46210  0.09292  1.0000
  C   C3247     1.0  0.86636  0.45723  0.09330  1.0000
  C   C3248     1.0  0.87495  0.45832  0.11038  1.0000
  C   C3249     1.0  0.86335  0.46422  0.12713  1.0000
  C   C3250     1.0  0.85683  0.48629  0.16901  1.0000
  C   C3251     1.0  0.86750  0.48486  0.18517  1.0000
  C   C3252     1.0  0.86207  0.47270  0.20211  1.0000
  C   C3253     1.0  0.84575  0.46227  0.20298  1.0000
  C   C3254     1.0  0.83521  0.46345  0.18670  1.0000
  C   C3255     1.0  0.81857  0.50294  0.14475  1.0000
  C   C3256     1.0  0.81162  0.51278  0.16128  1.0000
  C   C3257     1.0  0.80475  0.53266  0.15914  1.0000
  C   C3258     1.0  0.80471  0.54282  0.14046  1.0000
  C   C3259     1.0  0.81118  0.53308  0.12394  1.0000
  C   C3260     1.0  0.81796  0.51317  0.12602  1.0000
  H   H2538     1.0  0.75695  0.46714  0.15510  1.0000
  H   H2539     1.0  0.76349  0.43079  0.15956  1.0000
  H   H2540     1.0  0.79782  0.41506  0.15868  1.0000
  H   H2541     1.0  0.82545  0.43529  0.15381  1.0000
  H   H2542     1.0  0.78438  0.48757  0.15017  1.0000
  H   H2543     1.0  0.81893  0.47237  0.10892  1.0000
  H   H2544     1.0  0.83966  0.46200  0.07940  1.0000
  H   H2545     1.0  0.87547  0.45334  0.08013  1.0000
  H   H2546     1.0  0.89073  0.45503  0.11053  1.0000
  H   H2547     1.0  0.87046  0.46470  0.14012  1.0000
  H   H2548     1.0  0.86121  0.49579  0.15596  1.0000
  H   H2549     1.0  0.88026  0.49285  0.18432  1.0000
  H   H2550     1.0  0.87092  0.47084  0.21428  1.0000
  H   H2551     1.0  0.84192  0.45242  0.21590  1.0000
  H   H2552     1.0  0.82303  0.45474  0.18751  1.0000
  H   H2553     1.0  0.81140  0.50503  0.17581  1.0000
  H   H2554     1.0  0.79936  0.54019  0.17191  1.0000
  H   H2555     1.0  0.79944  0.55820  0.13876  1.0000
  H   H2556     1.0  0.81064  0.54092  0.10945  1.0000
  H   H2557     1.0  0.82277  0.50602  0.11296  1.0000
  H   H2558     1.0  0.86399  0.56041  0.14101  1.0000
  C   C3261     1.0  0.83613  0.59309  0.09304  1.0000
  H   H2559     1.0  0.96557  0.54855  0.10803  1.0000
  S   S439      1.0  0.92888  0.63385  0.07305  1.0000
  H   H2560     1.0  0.84847  0.42356  0.12134  1.0000
  H   H2561     1.0  0.79806  0.38822  0.06661  1.0000
  C   C3262     1.0  0.92718  0.56233  0.08132  1.0000
  C   C3263     1.0  0.81842  0.44000  0.04107  1.0000
  C   C3264     1.0  0.82426  0.51693  0.21183  1.0000
  C   C3265     1.0  0.99441  0.52489  0.16960  1.0000
  C   C3266     1.0  0.92572  0.63163  0.12560  1.0000
  H   H2562     1.0  0.75701  0.61145  0.06163  1.0000
  C   C3267     1.0  0.69605  0.50150  0.23395  1.0000
  C   C3268     1.0  0.86480  0.60992  0.08116  1.0000
  S   S440      1.0  0.98335  0.61912  0.07685  1.0000
  H   H2563     1.0  0.84691  0.39530  0.00226  1.0000
  H   H2564     1.0  0.75402  0.40737  0.02013  1.0000
  H   H2565     1.0  0.84344  0.61483  0.16237  1.0000
  C   C3269     1.0  0.71803  0.47810  0.21578  1.0000
  C   C3270     1.0  0.93657  0.58738  0.09893  1.0000
  C   C3271     1.0  0.96596  0.63021  0.12846  1.0000
  C   C3272     1.0  0.92013  0.45103  0.05022  1.0000
  C   C3273     1.0  0.82223  0.57080  0.18256  1.0000
  C   C3274     1.0  0.79093  0.32881  0.04838  1.0000
  P   P110      1.0  0.92400  0.59188  0.13837  1.0000
  H   H2566     1.0  0.85171  0.40436  0.06107  1.0000
  H   H2567     1.0  0.95893  0.57961  0.19792  1.0000
  C   C3275     1.0  0.87669  0.59209  0.08334  1.0000
  H   H2568     1.0  0.92522  0.42091  0.04400  1.0000
  C   C3276     1.0  0.84430  0.39684  0.14016  1.0000
  C   C3277     1.0  0.81630  0.63218  0.12227  1.0000
  H   H2569     1.0  0.69025  0.43051  0.20887  1.0000
  C   C3278     1.0  0.89189  0.34021  0.14300  1.0000
  P   P111      1.0  0.67890  0.52352  0.23418  1.0000
  S   S441      1.0  0.88287  0.38774  0.02052  1.0000
  C   C3279     1.0  0.85228  0.56328  0.15261  1.0000
  H   H2570     1.0  0.96067  0.54338  0.19944  1.0000
  H   H2571     1.0  0.96510  0.59972  0.13822  1.0000
  H   H2572     1.0  0.91025  0.63253  0.12386  1.0000
  H   H2573     1.0  0.79308  0.38608  0.03238  1.0000
  C   C3280     1.0  0.84211  0.36324  0.05188  1.0000
  C   C3281     1.0  0.82750  0.37281  0.06447  1.0000
  H   H2574     1.0  0.98633  0.59329  0.02065  1.0000
  P   P112      1.0  0.83238  0.37581  0.08903  1.0000
  C   C3282     1.0  0.83099  0.35287  0.10467  1.0000
  C   C3283     1.0  0.85678  0.38349  0.08642  1.0000
  C   C3284     1.0  0.87094  0.37464  0.09862  1.0000
  C   C3285     1.0  0.88990  0.38061  0.09589  1.0000
  C   C3286     1.0  0.89473  0.39551  0.08122  1.0000
  C   C3287     1.0  0.88078  0.40413  0.06888  1.0000
  C   C3288     1.0  0.86203  0.39796  0.07126  1.0000
  C   C3289     1.0  0.82386  0.35278  0.12462  1.0000
  H   H2575     1.0  0.97338  0.39931  0.02592  1.0000
  H   H2576     1.0  0.84253  0.33425  0.08186  1.0000
  C   C3290     1.0  0.68332  0.53943  0.21168  1.0000
  C   C3291     1.0  0.83988  0.64946  0.06271  1.0000
  C   C3292     1.0  0.81438  0.39484  0.09830  1.0000
  C   C3293     1.0  0.79594  0.39004  0.10739  1.0000
  C   C3294     1.0  0.78161  0.40461  0.11384  1.0000
  C   C3295     1.0  0.78527  0.42423  0.11072  1.0000
  C   C3296     1.0  0.80341  0.42923  0.10146  1.0000
  C   C3297     1.0  0.81797  0.41464  0.09538  1.0000
  C   C3298     1.0  0.94126  0.36991  0.18788  1.0000
  H   H2577     1.0  0.92981  0.54861  0.14874  1.0000
  C   C3299     1.0  0.72274  0.33605  0.09828  1.0000
  H   H2578     1.0  0.85630  0.35755  0.05671  1.0000
  S   S442      1.0  0.93820  0.37449  0.02987  1.0000
  H   H2579     1.0  0.86751  0.36309  0.11009  1.0000
  H   H2580     1.0  0.90104  0.37360  0.10496  1.0000
  H   H2581     1.0  0.90943  0.39999  0.07908  1.0000
  H   H2582     1.0  0.82001  0.60628  0.05560  1.0000
  C   C3300     1.0  0.94109  0.35178  0.18087  1.0000
  H   H2583     1.0  0.82021  0.36631  0.13128  1.0000
  H   H2584     1.0  0.92027  0.51320  0.21919  1.0000
  C   C3301     1.0  0.98667  0.39219  0.01866  1.0000
  C   C3302     1.0  0.99519  0.53419  0.10692  1.0000
  H   H2585     1.0  0.95392  0.34108  0.18134  1.0000
  H   H2586     1.0  0.79251  0.37504  0.10950  1.0000
  H   H2587     1.0  0.76763  0.40060  0.12126  1.0000
  H   H2588     1.0  0.77406  0.43557  0.11547  1.0000
  H   H2589     1.0  0.80612  0.44447  0.09888  1.0000
  H   H2590     1.0  0.83182  0.41905  0.08829  1.0000
  H   H2591     1.0  0.85037  0.35438  0.02299  1.0000
  H   H2592     1.0  0.89240  0.59164  0.07909  1.0000
  H   H2593     1.0  0.87765  0.65335  0.14246  1.0000
  C   C3303     1.0  0.88499  0.60374  0.13216  1.0000
  H   H2594     1.0  0.71601  0.32777  0.12918  1.0000
  C   C3304     1.0  0.83173  0.42644  0.03164  1.0000
  H   H2595     1.0  0.99053  0.52067  0.11464  1.0000
  H   H2596     1.0  0.80481  0.43558  0.04890  1.0000
  H   H2597     1.0  0.69098  0.35629  0.13380  1.0000
  H   H2598     1.0  0.85805  0.51014  0.22789  1.0000
  H   H2599     1.0  0.77087  0.43813  0.01353  1.0000
  P   P113      1.0  0.73242  0.34687  0.05838  1.0000
  C   C3305     1.0  0.71873  0.34972  0.08209  1.0000
  C   C3306     1.0  0.99510  0.37424  0.02706  1.0000
  H   H2600     1.0  0.70533  0.33308  0.17810  1.0000
  H   H2601     1.0  0.78151  0.36802  0.00957  1.0000
  H   H2602     1.0  0.89510  0.39003  0.18001  1.0000
  C   C3307     1.0  0.78615  0.34263  0.07928  1.0000
  C   C3308     1.0  0.76607  0.34695  0.07739  1.0000
  C   C3309     1.0  0.70451  0.36579  0.08480  1.0000
  C   C3310     1.0  0.69452  0.36811  0.10339  1.0000
  H   H2603     1.0  0.69416  0.56140  0.23771  1.0000
  C   C3311     1.0  0.75823  0.34148  0.06123  1.0000
  C   C3312     1.0  0.71206  0.37534  0.19581  1.0000
  C   C3313     1.0  0.72927  0.36903  0.04176  1.0000
  C   C3314     1.0  0.71219  0.37340  0.03215  1.0000
  C   C3315     1.0  0.71023  0.38990  0.01837  1.0000
  C   C3316     1.0  0.72530  0.40212  0.01408  1.0000
  C   C3317     1.0  0.74227  0.39797  0.02370  1.0000
  C   C3318     1.0  0.74421  0.38158  0.03760  1.0000
  H   H2604     1.0  0.72074  0.56102  0.18349  1.0000
  C   C3319     1.0  0.70249  0.54415  0.20514  1.0000
  C   C3320     1.0  0.64605  0.39081  0.23533  1.0000
  C   C3321     1.0  0.65622  0.59701  0.23403  1.0000
  C   C3322     1.0  0.70576  0.49573  0.21613  1.0000
  H   H2605     1.0  0.89182  0.49431  0.22996  1.0000
  H   H2606     1.0  0.75678  0.35432  0.08864  1.0000
  H   H2607     1.0  0.70115  0.37662  0.07268  1.0000
  H   H2608     1.0  0.68359  0.38055  0.10542  1.0000
  H   H2609     1.0  0.75589  0.63663  0.08464  1.0000
  S   S443      1.0  0.94920  0.32854  0.04779  1.0000
  H   H2610     1.0  0.60100  0.40166  0.21889  1.0000
  H   H2611     1.0  0.70049  0.36392  0.03517  1.0000
  H   H2612     1.0  0.85916  0.42167  0.01399  1.0000
  H   H2613     1.0  0.63593  0.58108  0.22262  1.0000
  S   S444      1.0  0.91705  0.33845  0.01593  1.0000
  H   H2614     1.0  0.75750  0.37867  0.04483  1.0000
  C   C3323     1.0  0.67125  0.56118  0.18435  1.0000
  C   C3324     1.0  0.90792  0.37932  0.17991  1.0000
  H   H2615     1.0  0.95421  0.37332  0.19372  1.0000
  H   H2616     1.0  0.72430  0.36186  0.16992  1.0000
  C   C3325     1.0  0.80943  0.50460  0.21752  1.0000
  C   C3326     1.0  0.66770  0.54809  0.20116  1.0000
  H   H2617     1.0  0.88709  0.48569  0.03012  1.0000
  H   H2618     1.0  0.86810  0.54628  0.17467  1.0000
  C   C3327     1.0  0.70596  0.55727  0.18837  1.0000
  H   H2619     1.0  0.85382  0.40300  0.22366  1.0000
  Fe  Fe225     1.0  0.94799  0.34553  0.01766  1.0000
  C   C3328     1.0  0.90370  0.43756  0.02658  1.0000
  C   C3329     1.0  0.92438  0.34744  0.17324  1.0000
  H   H2620     1.0  0.79221  0.34611  0.09200  1.0000
  H   H2621     1.0  0.78658  0.64680  0.09317  1.0000
  H   H2622     1.0  0.99265  0.44873  0.12634  1.0000
  C   C3330     1.0  0.84015  0.57038  0.22751  1.0000
  H   H2623     1.0  0.91165  0.48156  0.05358  1.0000
  C   C3331     1.0  0.76993  0.63021  0.07816  1.0000
  C   C3332     1.0  0.61454  0.39307  0.22256  1.0000
  C   C3333     1.0  0.65144  0.49771  0.23043  1.0000
  C   C3334     1.0  0.80611  0.61310  0.06196  1.0000
  H   H2624     1.0  0.71470  0.53796  0.21325  1.0000
  C   C3335     1.0  0.80655  0.37925  0.03799  1.0000
  C   C3336     1.0  0.89316  0.45595  0.02218  1.0000
  H   H2625     1.0  0.65917  0.56783  0.17626  1.0000
  C   C3337     1.0  0.82056  0.33515  0.13609  1.0000
  H   H2626     1.0  0.68202  0.33060  0.20819  1.0000
  H   H2627     1.0  0.72039  0.38787  0.19218  1.0000
  H   H2628     1.0  0.65278  0.54483  0.20584  1.0000
  H   H2629     1.0  0.91479  0.54824  0.20622  1.0000
  C   C3338     1.0  0.84806  0.57533  0.09509  1.0000
  H   H2630     1.0  0.84457  0.36958  0.15870  1.0000
  H   H2631     1.0  0.72957  0.45205  0.23273  1.0000
  H   H2632     1.0  0.80531  0.33854  0.00605  1.0000
  C   C3339     1.0  0.83802  0.59003  0.21937  1.0000
  H   H2633     1.0  0.84277  0.48053  0.02889  1.0000
  P   P114      1.0  0.88625  0.35600  0.16240  1.0000
  H   H2634     1.0  0.82044  0.59300  0.09661  1.0000
  H   H2635     1.0  0.70346  0.50447  0.20237  1.0000
  C   C3340     1.0  0.85554  0.41091  0.12959  1.0000
  H   H2636     1.0  0.75217  0.33353  0.18189  1.0000
  H   H2637     1.0  0.69708  0.39314  0.01088  1.0000
  P   P115      1.0  0.84267  0.55056  0.21228  1.0000
  C   C3341     1.0  0.88513  0.39243  0.14040  1.0000
  C   C3342     1.0  0.95559  0.64760  0.12113  1.0000
  C   C3343     1.0  0.69446  0.42711  0.22358  1.0000
  S   S445      1.0  0.91355  0.59945  0.03945  1.0000
  C   C3344     1.0  0.98095  0.54998  0.10321  1.0000
  H   H2638     1.0  0.72526  0.47362  0.20199  1.0000
  C   C3345     1.0  0.91724  0.43516  0.04050  1.0000
  H   H2639     1.0  0.86723  0.60659  0.18723  1.0000
  H   H2640     1.0  0.85509  0.61362  0.12705  1.0000
  H   H2641     1.0  0.94238  0.60058  0.17205  1.0000
  C   C3346     1.0  0.71346  0.41797  0.22652  1.0000
  C   C3347     1.0  0.72039  0.46587  0.23312  1.0000
  C   C3348     1.0  0.83978  0.55958  0.18709  1.0000
  H   H2642     1.0  0.92867  0.64871  0.18632  1.0000
  C   C3349     1.0  0.69035  0.56579  0.17799  1.0000
  C   C3350     1.0  0.78863  0.60759  0.05701  1.0000
  H   H2643     1.0  0.94462  0.59995  0.09863  1.0000
  H   H2644     1.0  0.92716  0.33008  0.10539  1.0000
  C   C3351     1.0  0.83364  0.65170  0.04384  1.0000
  C   C3352     1.0  0.93573  0.55581  0.15938  1.0000
  H   H2645     1.0  0.88124  0.56415  0.20298  1.0000
  C   C3353     1.0  0.93524  0.57632  0.15793  1.0000
  P   P116      1.0  0.82844  0.63325  0.08223  1.0000
  C   C3354     1.0  0.86707  0.53824  0.21461  1.0000
  H   H2646     1.0  0.90118  0.42497  0.01964  1.0000
  C   C3355     1.0  0.68854  0.35757  0.21796  1.0000
  C   C3356     1.0  0.69912  0.37388  0.21300  1.0000
  C   C3357     1.0  0.95597  0.65389  0.16909  1.0000
  C   C3358     1.0  0.71427  0.36065  0.18326  1.0000
  C   C3359     1.0  0.70354  0.34447  0.18789  1.0000
  C   C3360     1.0  0.69054  0.34300  0.20509  1.0000
  C   C3361     1.0  0.98864  0.53910  0.15459  1.0000
  C   C3362     1.0  0.83492  0.57475  0.14831  1.0000
  C   C3363     1.0  0.83685  0.60515  0.23132  1.0000
  C   C3364     1.0  0.95646  0.61330  0.13367  1.0000
  H   H2647     1.0  0.90197  0.59608  0.17710  1.0000
  C   C3365     1.0  0.64039  0.58582  0.23566  1.0000
  C   C3366     1.0  0.93718  0.65969  0.17795  1.0000
  H   H2648     1.0  0.98820  0.41454  0.99438  1.0000
  C   C3367     1.0  0.82310  0.64383  0.10529  1.0000
  H   H2649     1.0  0.83639  0.51255  0.20121  1.0000
  H   H2650     1.0  0.76536  0.32859  0.03390  1.0000
  C   C3368     1.0  0.79851  0.33347  0.06484  1.0000
  H   H2651     1.0  0.84153  0.56190  0.10016  1.0000
  C   C3369     1.0  0.92570  0.57996  0.11617  1.0000
  H   H2652     1.0  0.63783  0.34693  0.22171  1.0000
  C   C3370     1.0  0.85467  0.55550  0.17190  1.0000
  C   C3371     1.0  0.89185  0.59962  0.16607  1.0000
  C   C3372     1.0  0.93615  0.61395  0.13260  1.0000
  C   C3373     1.0  0.94297  0.58481  0.17246  1.0000
  C   C3374     1.0  0.85878  0.61043  0.15787  1.0000
  H   H2653     1.0  0.87735  0.56087  0.09092  1.0000
  C   C3375     1.0  0.83882  0.36146  0.03265  1.0000
  C   C3376     1.0  0.89840  0.59856  0.14615  1.0000
  C   C3377     1.0  0.93712  0.57873  0.08157  1.0000
  H   H2654     1.0  0.86089  0.37381  0.19372  1.0000
  H   H2655     1.0  0.92748  0.55578  0.06778  1.0000
  H   H2656     1.0  0.88986  0.60351  0.11669  1.0000
  H   H2657     1.0  0.77830  0.46967  0.02339  1.0000
  C   C3378     1.0  0.80566  0.62715  0.07513  1.0000
  C   C3379     1.0  0.91517  0.56389  0.11558  1.0000
  C   C3380     1.0  0.83617  0.33487  0.09686  1.0000
  H   H2658     1.0  0.82875  0.41137  0.03228  1.0000
  C   C3381     1.0  0.87210  0.60555  0.17188  1.0000
  H   H2659     1.0  0.83535  0.62024  0.22486  1.0000
  H   H2660     1.0  0.96182  0.63858  0.17043  1.0000
  C   C3382     1.0  0.91641  0.55478  0.09839  1.0000
  H   H2661     1.0  0.81192  0.46995  0.04693  1.0000
  C   C3383     1.0  0.87020  0.51860  0.22267  1.0000
  C   C3384     1.0  0.84432  0.61054  0.08574  1.0000
  H   H2662     1.0  0.81912  0.36913  0.01039  1.0000
  C   C3385     1.0  0.85292  0.45192  0.01938  1.0000
  H   H2663     1.0  0.92047  0.35022  0.13294  1.0000
  H   H2664     1.0  0.94549  0.52829  0.17517  1.0000
  C   C3386     1.0  0.94450  0.54410  0.17456  1.0000
  C   C3387     1.0  0.95301  0.55263  0.18832  1.0000
  C   C3388     1.0  0.95212  0.57300  0.18737  1.0000
  S   S446      1.0  0.98332  0.50237  0.17570  1.0000
  H   H2665     1.0  0.83742  0.59387  0.20383  1.0000
  H   H2666     1.0  0.62620  0.41728  0.23244  1.0000
  C   C3389     1.0  0.90950  0.46925  0.04606  1.0000
  C   C3390     1.0  0.98659  0.56771  0.09360  1.0000
  Fe  Fe226     1.0  0.93713  0.35724  0.05963  1.0000
  C   C3391     1.0  0.82562  0.65976  0.23881  1.0000
  C   C3392     1.0  0.99519  0.40080  0.00079  1.0000
  C   C3393     1.0  0.77054  0.61602  0.06522  1.0000
  C   C3394     1.0  0.78742  0.63589  0.08302  1.0000
  H   H2667     1.0  0.81032  0.49065  0.21162  1.0000
  C   C3395     1.0  0.80153  0.43565  0.23810  1.0000
  H   H2668     1.0  0.88481  0.41938  0.12146  1.0000
  C   C3396     1.0  0.69865  0.35445  0.11939  1.0000
  C   C3397     1.0  0.87593  0.40873  0.12981  1.0000
  C   C3398     1.0  0.64924  0.37073  0.23298  1.0000
  H   H2669     1.0  0.81428  0.33531  0.15126  1.0000
  C   C3399     1.0  0.63533  0.36217  0.22443  1.0000
  H   H2670     1.0  0.80646  0.58731  0.15988  1.0000
  S   S447      1.0  0.65694  0.44268  0.23567  1.0000
  C   C3400     1.0  0.65449  0.51580  0.23632  1.0000
  C   C3401     1.0  0.79191  0.52851  0.23798  1.0000
  H   H2671     1.0  0.69308  0.57605  0.16504  1.0000
  H   H2672     1.0  0.87173  0.62290  0.07526  1.0000
  H   H2673     1.0  0.84556  0.65111  0.16279  1.0000
  C   C3402     1.0  0.71273  0.33841  0.11681  1.0000
  C   C3403     1.0  0.82116  0.36966  0.02562  1.0000
  C   C3404     1.0  0.77932  0.35757  0.99981  1.0000
  H   H2674     1.0  0.90102  0.39073  0.13983  1.0000
  C   C3405     1.0  0.78580  0.46430  0.01010  1.0000
  C   C3406     1.0  0.84901  0.35040  0.21299  1.0000
  P   P117      1.0  0.87506  0.45910  0.00493  1.0000
  C   C3407     1.0  0.90968  0.34073  0.13074  1.0000
  C   C3408     1.0  0.82344  0.53478  0.21983  1.0000
  H   H2675     1.0  0.92467  0.39761  0.19313  1.0000
  H   H2676     1.0  0.99249  0.56779  0.13924  1.0000
  S   S448      1.0  0.79459  0.37837  0.23667  1.0000
  C   C3409     1.0  0.79286  0.34097  0.99760  1.0000
  S   S449      1.0  0.80229  0.49995  0.00275  1.0000
  C   C3410     1.0  0.90543  0.52024  0.21814  1.0000
  H   H2677     1.0  0.69724  0.38549  0.22245  1.0000
  H   H2678     1.0  0.84070  0.36014  0.22291  1.0000
  H   H2679     1.0  0.83298  0.58067  0.13340  1.0000
  C   C3411     1.0  0.87769  0.32882  0.13869  1.0000
  H   H2680     1.0  0.81393  0.32975  0.06645  1.0000
  P   P118      1.0  0.67145  0.35635  0.23991  1.0000
  H   H2681     1.0  0.60705  0.36655  0.21320  1.0000
  C   C3412     1.0  0.68080  0.43165  0.23963  1.0000
  H   H2682     1.0  0.86099  0.65787  0.08026  1.0000
  C   C3413     1.0  0.62868  0.40185  0.23031  1.0000
  H   H2683     1.0  0.81117  0.42945  0.22625  1.0000
  H   H2684     1.0  0.86348  0.32889  0.14731  1.0000
  H   H2685     1.0  0.77521  0.42753  0.22868  1.0000
  C   C3414     1.0  0.63246  0.49200  0.23207  1.0000
  H   H2686     1.0  0.80526  0.64209  0.22929  1.0000
  C   C3415     1.0  0.61641  0.50421  0.23957  1.0000
  C   C3416     1.0  0.80858  0.65674  0.23056  1.0000
  C   C3417     1.0  0.85732  0.65711  0.16836  1.0000
  C   C3418     1.0  0.87539  0.65834  0.15694  1.0000
  H   H2687     1.0  0.63022  0.47793  0.22775  1.0000
  C   C3419     1.0  0.80691  0.54071  0.23261  1.0000
  C   C3420     1.0  0.79331  0.51037  0.23060  1.0000
  H   H2688     1.0  0.60174  0.49958  0.24120  1.0000
  H   H2689     1.0  0.94111  0.60201  0.00397  1.0000
  C   C3421     1.0  0.79897  0.47566  0.99811  1.0000
  H   H2690     1.0  0.65691  0.39803  0.24107  1.0000
  C   C3422     1.0  0.91347  0.32949  0.11490  1.0000
  H   H2691     1.0  0.78180  0.50088  0.23478  1.0000
  H   H2692     1.0  0.74130  0.51363  0.23731  1.0000
  C   C3423     1.0  0.78129  0.43455  0.23944  1.0000
  H   H2693     1.0  0.80528  0.55486  0.23822  1.0000
  H   H2694     1.0  0.88791  0.66012  0.22368  1.0000
  S   S450      1.0  0.91647  0.65997  0.03303  1.0000
  H   H2695     1.0  0.53503  0.57443  0.44919  1.0000
  C   C3424     1.0  0.73020  0.51588  0.28626  1.0000
  Fe  Fe227     1.0  0.65731  0.55679  0.37140  1.0000
  S   S451      1.0  0.67989  0.56810  0.38661  1.0000
  S   S452      1.0  0.62502  0.56891  0.37240  1.0000
  Fe  Fe228     1.0  0.68841  0.52644  0.35342  1.0000
  S   S453      1.0  0.71273  0.53549  0.36784  1.0000
  S   S454      1.0  0.69747  0.50632  0.33016  1.0000
  Fe  Fe229     1.0  0.69015  0.53596  0.39448  1.0000
  S   S455      1.0  0.69442  0.52365  0.42617  1.0000
  Fe  Fe230     1.0  0.69970  0.56606  0.35810  1.0000
  S   S456      1.0  0.71465  0.59039  0.33874  1.0000
  S   S457      1.0  0.66658  0.52489  0.38034  1.0000
  S   S458      1.0  0.67635  0.55668  0.34276  1.0000
  C   C3425     1.0  0.77281  0.64165  0.28291  1.0000
  H   H2696     1.0  0.67724  0.32760  0.43106  1.0000
  H   H2697     1.0  0.74060  0.33740  0.45496  1.0000
  Fe  Fe231     1.0  0.62874  0.44301  0.30643  1.0000
  S   S459      1.0  0.63201  0.46772  0.28255  1.0000
  S   S460      1.0  0.64249  0.43964  0.33444  1.0000
  Fe  Fe232     1.0  0.60108  0.42439  0.28627  1.0000
  H   H2698     1.0  0.59267  0.50898  0.32596  1.0000
  S   S461      1.0  0.58365  0.39848  0.28956  1.0000
  Fe  Fe233     1.0  0.63438  0.44424  0.26238  1.0000
  Fe  Fe234     1.0  0.59910  0.46920  0.28256  1.0000
  H   H2699     1.0  0.52643  0.54089  0.44772  1.0000
  S   S462      1.0  0.63371  0.41941  0.28643  1.0000
  S   S463      1.0  0.59599  0.44617  0.30831  1.0000
  C   C3426     1.0  0.74540  0.50108  0.46200  1.0000
  H   H2700     1.0  0.63981  0.36307  0.33325  1.0000
  Fe  Fe235     1.0  0.62758  0.34934  0.41137  1.0000
  S   S464      1.0  0.64185  0.37556  0.41608  1.0000
  H   H2701     1.0  0.69977  0.38278  0.30505  1.0000
  S   S465      1.0  0.59508  0.35040  0.41871  1.0000
  H   H2702     1.0  0.71132  0.35865  0.24999  1.0000
  C   C3427     1.0  0.58847  0.49885  0.37563  1.0000
  C   C3428     1.0  0.58255  0.57330  0.30268  1.0000
  H   H2703     1.0  0.71178  0.46137  0.26419  1.0000
  C   C3429     1.0  0.74866  0.49027  0.25972  1.0000
  H   H2704     1.0  0.80679  0.34353  0.26725  1.0000
  C   C3430     1.0  0.52361  0.46081  0.38015  1.0000
  S   S466      1.0  0.62807  0.33739  0.38261  1.0000
  H   H2705     1.0  0.63684  0.63326  0.38982  1.0000
  C   C3431     1.0  0.63925  0.37639  0.44150  1.0000
  C   C3432     1.0  0.64943  0.38906  0.44982  1.0000
  C   C3433     1.0  0.64823  0.38860  0.47028  1.0000
  H   H2706     1.0  0.67389  0.61237  0.24933  1.0000
  C   C3434     1.0  0.62559  0.36391  0.47398  1.0000
  C   C3435     1.0  0.62710  0.36409  0.45363  1.0000
  H   H2707     1.0  0.65866  0.39881  0.44053  1.0000
  H   H2708     1.0  0.65629  0.39828  0.47660  1.0000
  H   H2709     1.0  0.52639  0.47709  0.30562  1.0000
  C   C3436     1.0  0.68640  0.55592  0.28721  1.0000
  H   H2710     1.0  0.76682  0.64355  0.25267  1.0000
  C   C3437     1.0  0.52700  0.50976  0.26878  1.0000
  C   C3438     1.0  0.52179  0.52975  0.27121  1.0000
  H   H2711     1.0  0.84085  0.57794  0.27532  1.0000
  C   C3439     1.0  0.79688  0.45208  0.26770  1.0000
  H   H2712     1.0  0.55054  0.39809  0.42017  1.0000
  H   H2713     1.0  0.63683  0.33840  0.25997  1.0000
  S   S467      1.0  0.60169  0.44750  0.26020  1.0000
  C   C3440     1.0  0.57418  0.47453  0.36063  1.0000
  C   C3441     1.0  0.61594  0.44043  0.47897  1.0000
  H   H2714     1.0  0.75545  0.48059  0.24911  1.0000
  H   H2715     1.0  0.53925  0.63006  0.44768  1.0000
  C   C3442     1.0  0.58166  0.38406  0.31248  1.0000
  C   C3443     1.0  0.56576  0.37292  0.31700  1.0000
  C   C3444     1.0  0.56336  0.36125  0.33496  1.0000
  C   C3445     1.0  0.57715  0.36002  0.34846  1.0000
  C   C3446     1.0  0.59342  0.37085  0.34390  1.0000
  C   C3447     1.0  0.59549  0.38318  0.32605  1.0000
  H   H2716     1.0  0.55507  0.37346  0.30663  1.0000
  H   H2717     1.0  0.83670  0.61260  0.26074  1.0000
  H   H2718     1.0  0.60419  0.36994  0.35421  1.0000
  H   H2719     1.0  0.60781  0.39179  0.32268  1.0000
  C   C3448     1.0  0.69240  0.49892  0.43647  1.0000
  C   C3449     1.0  0.68962  0.49461  0.45699  1.0000
  C   C3450     1.0  0.68972  0.47505  0.46581  1.0000
  C   C3451     1.0  0.69311  0.45950  0.45420  1.0000
  C   C3452     1.0  0.69551  0.46380  0.43367  1.0000
  C   C3453     1.0  0.69490  0.48337  0.42483  1.0000
  H   H2720     1.0  0.68755  0.50651  0.46611  1.0000
  C   C3454     1.0  0.67744  0.53857  0.29005  1.0000
  H   H2721     1.0  0.69827  0.45188  0.42457  1.0000
  H   H2722     1.0  0.69720  0.48640  0.40906  1.0000
  C   C3455     1.0  0.68167  0.48829  0.33142  1.0000
  C   C3456     1.0  0.67982  0.47981  0.31447  1.0000
  C   C3457     1.0  0.66761  0.46489  0.31536  1.0000
  C   C3458     1.0  0.65753  0.45832  0.33327  1.0000
  C   C3459     1.0  0.65944  0.46675  0.35024  1.0000
  C   C3460     1.0  0.67137  0.48195  0.34926  1.0000
  H   H2723     1.0  0.68797  0.48464  0.30073  1.0000
  H   H2724     1.0  0.66661  0.45796  0.30236  1.0000
  H   H2725     1.0  0.65162  0.46163  0.36408  1.0000
  H   H2726     1.0  0.67297  0.48839  0.36238  1.0000
  C   C3461     1.0  0.72381  0.58656  0.31413  1.0000
  C   C3462     1.0  0.72455  0.60267  0.29965  1.0000
  C   C3463     1.0  0.73255  0.60026  0.28024  1.0000
  C   C3464     1.0  0.74034  0.58172  0.27509  1.0000
  C   C3465     1.0  0.73981  0.56563  0.28959  1.0000
  C   C3466     1.0  0.73127  0.56793  0.30890  1.0000
  H   H2727     1.0  0.71894  0.61711  0.30337  1.0000
  H   H2728     1.0  0.73299  0.61285  0.26941  1.0000
  H   H2729     1.0  0.74626  0.55135  0.28591  1.0000
  H   H2730     1.0  0.73101  0.55539  0.31989  1.0000
  H   H2731     1.0  0.53919  0.32954  0.44476  1.0000
  C   C3467     1.0  0.54726  0.44680  0.40262  1.0000
  C   C3468     1.0  0.51312  0.45470  0.41487  1.0000
  C   C3469     1.0  0.51707  0.64133  0.29964  1.0000
  H   H2732     1.0  0.68446  0.34474  0.45840  1.0000
  C   C3470     1.0  0.55963  0.51098  0.27861  1.0000
  C   C3471     1.0  0.60835  0.42276  0.48598  1.0000
  H   H2733     1.0  0.72180  0.65902  0.36632  1.0000
  H   H2734     1.0  0.54373  0.52665  0.40632  1.0000
  C   C3472     1.0  0.60781  0.63400  0.38096  1.0000
  C   C3473     1.0  0.59437  0.62292  0.37496  1.0000
  C   C3474     1.0  0.59969  0.60294  0.37252  1.0000
  C   C3475     1.0  0.61847  0.59387  0.37621  1.0000
  C   C3476     1.0  0.63169  0.60487  0.38273  1.0000
  C   C3477     1.0  0.62636  0.62481  0.38512  1.0000
  H   H2735     1.0  0.58016  0.62996  0.37167  1.0000
  H   H2736     1.0  0.58944  0.59463  0.36726  1.0000
  H   H2737     1.0  0.64611  0.59810  0.38573  1.0000
  H   H2738     1.0  0.53016  0.44495  0.29220  1.0000
  C   C3478     1.0  0.75945  0.35894  0.35127  1.0000
  C   C3479     1.0  0.67426  0.37946  0.29119  1.0000
  H   H2739     1.0  0.68772  0.47196  0.48158  1.0000
  S   S468      1.0  0.58362  0.50036  0.28356  1.0000
  H   H2740     1.0  0.69070  0.34467  0.36356  1.0000
  C   C3480     1.0  0.54806  0.38318  0.42579  1.0000
  H   H2741     1.0  0.58590  0.38253  0.48067  1.0000
  H   H2742     1.0  0.59242  0.50426  0.38853  1.0000
  S   S469      1.0  0.57273  0.34525  0.37094  1.0000
  H   H2743     1.0  0.51856  0.55451  0.40025  1.0000
  C   C3481     1.0  0.84000  0.58129  0.25970  1.0000
  C   C3482     1.0  0.67459  0.52911  0.27399  1.0000
  C   C3483     1.0  0.50877  0.46143  0.39584  1.0000
  C   C3484     1.0  0.50536  0.63278  0.40632  1.0000
  H   H2744     1.0  0.54963  0.48507  0.27048  1.0000
  H   H2745     1.0  0.56295  0.61251  0.26260  1.0000
  H   H2746     1.0  0.65156  0.37456  0.27423  1.0000
  C   C3485     1.0  0.71889  0.41350  0.24553  1.0000
  H   H2747     1.0  0.65038  0.34200  0.29633  1.0000
  S   S470      1.0  0.75097  0.57804  0.25087  1.0000
  H   H2748     1.0  0.51366  0.65812  0.44327  1.0000
  H   H2749     1.0  0.60441  0.64495  0.25572  1.0000
  H   H2750     1.0  0.81208  0.33662  0.30244  1.0000
  H   H2751     1.0  0.57843  0.53251  0.40777  1.0000
  C   C3486     1.0  0.78245  0.63007  0.29777  1.0000
  H   H2752     1.0  0.77911  0.53329  0.24771  1.0000
  C   C3487     1.0  0.68636  0.42735  0.25858  1.0000
  C   C3488     1.0  0.53235  0.44739  0.41825  1.0000
  H   H2753     1.0  0.61887  0.35451  0.44747  1.0000
  H   H2754     1.0  0.74617  0.36101  0.32438  1.0000
  P   P119      1.0  0.54887  0.39470  0.46299  1.0000
  C   C3489     1.0  0.69833  0.48891  0.25127  1.0000
  C   C3490     1.0  0.90505  0.66024  0.24722  1.0000
  C   C3491     1.0  0.63474  0.62479  0.33634  1.0000
  C   C3492     1.0  0.54291  0.35058  0.41943  1.0000
  H   H2755     1.0  0.60058  0.52200  0.35579  1.0000
  C   C3493     1.0  0.54581  0.50040  0.27247  1.0000
  H   H2756     1.0  0.58046  0.45655  0.44911  1.0000
  H   H2757     1.0  0.65452  0.64537  0.28627  1.0000
  H   H2758     1.0  0.57290  0.64459  0.27748  1.0000
  C   C3494     1.0  0.73233  0.64360  0.34120  1.0000
  H   H2759     1.0  0.78263  0.63537  0.31187  1.0000
  H   H2760     1.0  0.69298  0.65883  0.26820  1.0000
  C   C3495     1.0  0.49902  0.64165  0.33193  1.0000
  H   H2761     1.0  0.53133  0.59376  0.32185  1.0000
  C   C3496     1.0  0.74376  0.36306  0.33983  1.0000
  Fe  Fe236     1.0  0.59598  0.33573  0.39147  1.0000
  C   C3497     1.0  0.71040  0.47116  0.25082  1.0000
  C   C3498     1.0  0.74058  0.50903  0.25290  1.0000
  C   C3499     1.0  0.73760  0.36751  0.37988  1.0000
  H   H2762     1.0  0.83544  0.64740  0.24406  1.0000
  H   H2763     1.0  0.56208  0.44108  0.40558  1.0000
  C   C3500     1.0  0.74148  0.64499  0.32198  1.0000
  C   C3501     1.0  0.54694  0.37716  0.44605  1.0000
  C   C3502     1.0  0.53852  0.57666  0.39942  1.0000
  H   H2764     1.0  0.53998  0.48023  0.33629  1.0000
  C   C3503     1.0  0.51043  0.65552  0.33638  1.0000
  C   C3504     1.0  0.74796  0.48430  0.27994  1.0000
  H   H2765     1.0  0.56514  0.53920  0.28540  1.0000
  H   H2766     1.0  0.59813  0.60917  0.26801  1.0000
  H   H2767     1.0  0.66743  0.51578  0.27661  1.0000
  C   C3505     1.0  0.63658  0.37572  0.48235  1.0000
  C   C3506     1.0  0.56821  0.40971  0.45267  1.0000
  C   C3507     1.0  0.57890  0.48185  0.37740  1.0000
  H   H2768     1.0  0.54296  0.60359  0.42626  1.0000
  C   C3508     1.0  0.84130  0.56611  0.24775  1.0000
  C   C3509     1.0  0.67667  0.63621  0.30568  1.0000
  C   C3510     1.0  0.66126  0.64906  0.29849  1.0000
  H   H2769     1.0  0.66399  0.38559  0.30258  1.0000
  C   C3511     1.0  0.56858  0.60147  0.27366  1.0000
  C   C3512     1.0  0.50347  0.43253  0.48516  1.0000
  C   C3513     1.0  0.50598  0.58520  0.46135  1.0000
  H   H2770     1.0  0.60669  0.53155  0.25121  1.0000
  H   H2771     1.0  0.71830  0.65383  0.29118  1.0000
  C   C3514     1.0  0.55582  0.58915  0.28479  1.0000
  C   C3515     1.0  0.61289  0.45601  0.49052  1.0000
  C   C3516     1.0  0.50309  0.64747  0.41883  1.0000
  H   H2772     1.0  0.75323  0.44087  0.25586  1.0000
  C   C3517     1.0  0.58146  0.44124  0.44669  1.0000
  C   C3518     1.0  0.66730  0.37340  0.27495  1.0000
  H   H2773     1.0  0.72191  0.33078  0.29257  1.0000
  C   C3519     1.0  0.58843  0.59955  0.27680  1.0000
  H   H2774     1.0  0.72286  0.52573  0.29661  1.0000
  H   H2775     1.0  0.67296  0.53226  0.30479  1.0000
  C   C3520     1.0  0.65569  0.32908  0.30542  1.0000
  C   C3521     1.0  0.66550  0.35185  0.34777  1.0000
  C   C3522     1.0  0.65093  0.36643  0.34181  1.0000
  C   C3523     1.0  0.65056  0.38535  0.34710  1.0000
  C   C3524     1.0  0.66455  0.38965  0.35860  1.0000
  C   C3525     1.0  0.67909  0.37496  0.36494  1.0000
  C   C3526     1.0  0.67952  0.35611  0.35918  1.0000
  P   P120      1.0  0.69758  0.38014  0.37964  1.0000
  C   C3527     1.0  0.72173  0.37160  0.36852  1.0000
  C   C3528     1.0  0.69597  0.40629  0.38083  1.0000
  C   C3529     1.0  0.71010  0.41761  0.37017  1.0000
  C   C3530     1.0  0.70866  0.43781  0.37140  1.0000
  C   C3531     1.0  0.69319  0.44679  0.38331  1.0000
  C   C3532     1.0  0.67907  0.43564  0.39393  1.0000
  C   C3533     1.0  0.68039  0.41548  0.39267  1.0000
  H   H2776     1.0  0.71373  0.50179  0.48926  1.0000
  C   C3534     1.0  0.74166  0.49622  0.42859  1.0000
  C   C3535     1.0  0.58884  0.50147  0.34039  1.0000
  H   H2777     1.0  0.77395  0.35369  0.34468  1.0000
  C   C3536     1.0  0.72498  0.36944  0.34837  1.0000
  C   C3537     1.0  0.69421  0.36826  0.40453  1.0000
  C   C3538     1.0  0.68672  0.34997  0.40862  1.0000
  C   C3539     1.0  0.56277  0.57519  0.29939  1.0000
  H   H2778     1.0  0.72341  0.36997  0.27834  1.0000
  C   C3540     1.0  0.69586  0.36877  0.43949  1.0000
  C   C3541     1.0  0.69920  0.37733  0.42017  1.0000
  C   C3542     1.0  0.67926  0.65779  0.33011  1.0000
  C   C3543     1.0  0.54157  0.46601  0.33084  1.0000
  H   H2779     1.0  0.63930  0.39673  0.34240  1.0000
  H   H2780     1.0  0.66386  0.40447  0.36237  1.0000
  H   H2781     1.0  0.60576  0.63911  0.33292  1.0000
  H   H2782     1.0  0.72222  0.41096  0.36089  1.0000
  H   H2783     1.0  0.71946  0.44658  0.36307  1.0000
  H   H2784     1.0  0.69211  0.46243  0.38427  1.0000
  H   H2785     1.0  0.66711  0.44263  0.40320  1.0000
  H   H2786     1.0  0.66928  0.40701  0.40096  1.0000
  H   H2787     1.0  0.72789  0.62962  0.34813  1.0000
  C   C3544     1.0  0.52958  0.63057  0.43633  1.0000
  C   C3545     1.0  0.60267  0.65172  0.26927  1.0000
  C   C3546     1.0  0.63003  0.58112  0.25400  1.0000
  H   H2788     1.0  0.71306  0.37257  0.33925  1.0000
  H   H2789     1.0  0.68255  0.34256  0.39714  1.0000
  H   H2790     1.0  0.68523  0.32833  0.29134  1.0000
  C   C3547     1.0  0.80931  0.44446  0.25221  1.0000
  H   H2791     1.0  0.69891  0.37633  0.45149  1.0000
  H   H2792     1.0  0.70525  0.39128  0.41760  1.0000
  C   C3548     1.0  0.55443  0.53093  0.28093  1.0000
  H   H2793     1.0  0.71824  0.33907  0.48575  1.0000
  C   C3549     1.0  0.77654  0.45068  0.26931  1.0000
  P   P121      1.0  0.76013  0.46082  0.28894  1.0000
  C   C3550     1.0  0.74246  0.44397  0.29938  1.0000
  C   C3551     1.0  0.77425  0.46439  0.30840  1.0000
  C   C3552     1.0  0.77775  0.44924  0.32344  1.0000
  C   C3553     1.0  0.78865  0.45204  0.33851  1.0000
  C   C3554     1.0  0.79621  0.46990  0.33862  1.0000
  C   C3555     1.0  0.79301  0.48495  0.32357  1.0000
  C   C3556     1.0  0.78217  0.48220  0.30844  1.0000
  C   C3557     1.0  0.72547  0.45053  0.31120  1.0000
  C   C3558     1.0  0.71255  0.43730  0.32040  1.0000
  C   C3559     1.0  0.71634  0.41745  0.31788  1.0000
  C   C3560     1.0  0.73328  0.41069  0.30633  1.0000
  C   C3561     1.0  0.74635  0.42385  0.29721  1.0000
  C   C3562     1.0  0.63825  0.52807  0.24364  1.0000
  H   H2794     1.0  0.80325  0.45881  0.27844  1.0000
  H   H2795     1.0  0.77210  0.43526  0.32359  1.0000
  H   H2796     1.0  0.79122  0.44033  0.35013  1.0000
  H   H2797     1.0  0.80457  0.47207  0.35037  1.0000
  H   H2798     1.0  0.79887  0.49881  0.32367  1.0000
  H   H2799     1.0  0.72215  0.46577  0.31365  1.0000
  H   H2800     1.0  0.69956  0.44243  0.32963  1.0000
  H   H2801     1.0  0.70605  0.40744  0.32495  1.0000
  H   H2802     1.0  0.73624  0.39532  0.30415  1.0000
  H   H2803     1.0  0.75948  0.41814  0.28857  1.0000
  C   C3563     1.0  0.75637  0.36118  0.37127  1.0000
  C   C3564     1.0  0.70539  0.41856  0.26146  1.0000
  H   H2804     1.0  0.55281  0.56571  0.30809  1.0000
  C   C3565     1.0  0.54364  0.35773  0.45283  1.0000
  C   C3566     1.0  0.58654  0.39730  0.38235  1.0000
  C   C3567     1.0  0.60654  0.39950  0.38115  1.0000
  C   C3568     1.0  0.61321  0.41760  0.37417  1.0000
  C   C3569     1.0  0.59995  0.43349  0.36814  1.0000
  C   C3570     1.0  0.57977  0.43148  0.36952  1.0000
  C   C3571     1.0  0.57318  0.41320  0.37662  1.0000
  P   P122      1.0  0.56224  0.45222  0.36309  1.0000
  C   C3572     1.0  0.53377  0.46430  0.31344  1.0000
  C   C3573     1.0  0.68533  0.64037  0.32177  1.0000
  C   C3574     1.0  0.54769  0.54150  0.40489  1.0000
  H   H2805     1.0  0.58153  0.38307  0.38727  1.0000
  H   H2806     1.0  0.61693  0.38707  0.38530  1.0000
  H   H2807     1.0  0.62876  0.41924  0.37305  1.0000
  H   H2808     1.0  0.60561  0.44720  0.36228  1.0000
  H   H2809     1.0  0.55773  0.41119  0.37751  1.0000
  H   H2810     1.0  0.76854  0.35784  0.38014  1.0000
  H   H2811     1.0  0.57552  0.47427  0.39181  1.0000
  H   H2812     1.0  0.56163  0.41862  0.34006  1.0000
  C   C3575     1.0  0.54230  0.62075  0.36465  1.0000
  C   C3576     1.0  0.55116  0.62559  0.34566  1.0000
  C   C3577     1.0  0.54755  0.61557  0.33028  1.0000
  C   C3578     1.0  0.53503  0.60078  0.33388  1.0000
  H   H2813     1.0  0.56037  0.63747  0.34279  1.0000
  H   H2814     1.0  0.55387  0.61972  0.31545  1.0000
  C   C3579     1.0  0.68781  0.35093  0.44340  1.0000
  C   C3580     1.0  0.58465  0.40156  0.44114  1.0000
  C   C3581     1.0  0.59905  0.41328  0.43207  1.0000
  C   C3582     1.0  0.59743  0.43312  0.43474  1.0000
  H   H2815     1.0  0.58641  0.38613  0.43908  1.0000
  H   H2816     1.0  0.61157  0.40690  0.42302  1.0000
  H   H2817     1.0  0.60875  0.44206  0.42777  1.0000
  C   C3583     1.0  0.70772  0.37054  0.27762  1.0000
  C   C3584     1.0  0.53564  0.54025  0.27736  1.0000
  C   C3585     1.0  0.59564  0.58510  0.29101  1.0000
  C   C3586     1.0  0.56724  0.54474  0.40557  1.0000
  P   P123      1.0  0.62141  0.58195  0.29457  1.0000
  C   C3587     1.0  0.63557  0.58734  0.27099  1.0000
  C   C3588     1.0  0.62625  0.59841  0.31145  1.0000
  C   C3589     1.0  0.61230  0.61410  0.31639  1.0000
  H   H2818     1.0  0.67605  0.43098  0.27104  1.0000
  C   C3590     1.0  0.50251  0.63438  0.31372  1.0000
  S   S471      1.0  0.52210  0.63100  0.27744  1.0000
  C   C3591     1.0  0.64440  0.59607  0.31921  1.0000
  H   H2819     1.0  0.53193  0.55562  0.27914  1.0000
  C   C3592     1.0  0.62709  0.55632  0.30343  1.0000
  C   C3593     1.0  0.62412  0.54176  0.29192  1.0000
  C   C3594     1.0  0.62767  0.52189  0.29868  1.0000
  C   C3595     1.0  0.63412  0.51634  0.31713  1.0000
  C   C3596     1.0  0.63638  0.53068  0.32906  1.0000
  C   C3597     1.0  0.63256  0.55056  0.32240  1.0000
  C   C3598     1.0  0.56695  0.42958  0.45572  1.0000
  H   H2820     1.0  0.58760  0.56243  0.31414  1.0000
  H   H2821     1.0  0.59810  0.61624  0.31084  1.0000
  H   H2822     1.0  0.50158  0.45513  0.42698  1.0000
  H   H2823     1.0  0.65547  0.58428  0.31537  1.0000
  H   H2824     1.0  0.65613  0.60400  0.28169  1.0000
  H   H2825     1.0  0.61838  0.54571  0.27800  1.0000
  H   H2826     1.0  0.62508  0.51079  0.28973  1.0000
  H   H2827     1.0  0.63693  0.50092  0.32236  1.0000
  H   H2828     1.0  0.64095  0.52641  0.34359  1.0000
  H   H2829     1.0  0.63353  0.56123  0.33233  1.0000
  C   C3599     1.0  0.53338  0.55738  0.40165  1.0000
  H   H2830     1.0  0.61742  0.57298  0.25479  1.0000
  C   C3600     1.0  0.54601  0.36992  0.41257  1.0000
  H   H2831     1.0  0.74386  0.63200  0.31433  1.0000
  C   C3601     1.0  0.74198  0.47606  0.43397  1.0000
  H   H2832     1.0  0.54743  0.41586  0.30981  1.0000
  H   H2833     1.0  0.61607  0.35439  0.48316  1.0000
  H   H2834     1.0  0.66571  0.33710  0.34396  1.0000
  C   C3602     1.0  0.54160  0.34455  0.43953  1.0000
  H   H2835     1.0  0.51977  0.46601  0.36559  1.0000
  C   C3603     1.0  0.55830  0.57969  0.39960  1.0000
  H   H2836     1.0  0.78557  0.48270  0.47459  1.0000
  C   C3604     1.0  0.59326  0.50878  0.35715  1.0000
  C   C3605     1.0  0.77341  0.63462  0.26461  1.0000
  C   C3606     1.0  0.78223  0.61575  0.26168  1.0000
  C   C3607     1.0  0.79086  0.60393  0.27684  1.0000
  C   C3608     1.0  0.79130  0.61121  0.29478  1.0000
  C   C3609     1.0  0.57377  0.37864  0.49132  1.0000
  S   S472      1.0  0.69591  0.43453  0.46452  1.0000
  C   C3610     1.0  0.68053  0.36587  0.25990  1.0000
  C   C3611     1.0  0.73861  0.49731  0.29315  1.0000
  H   H2837     1.0  0.54716  0.37439  0.39693  1.0000
  H   H2838     1.0  0.56285  0.59435  0.39681  1.0000
  C   C3612     1.0  0.74370  0.46838  0.45343  1.0000
  C   C3613     1.0  0.55432  0.38225  0.48658  1.0000
  H   H2839     1.0  0.53566  0.44211  0.43298  1.0000
  H   H2840     1.0  0.51646  0.50150  0.26392  1.0000
  H   H2841     1.0  0.54183  0.34021  0.40910  1.0000
  C   C3614     1.0  0.53179  0.61569  0.42392  1.0000
  H   H2842     1.0  0.84326  0.55103  0.25425  1.0000
  H   H2843     1.0  0.73802  0.49336  0.30885  1.0000
  S   S473      1.0  0.49802  0.54110  0.26618  1.0000
  H   H2844     1.0  0.63801  0.63495  0.34596  1.0000
  H   H2845     1.0  0.79704  0.58908  0.27469  1.0000
  H   H2846     1.0  0.79805  0.60206  0.30653  1.0000
  C   C3615     1.0  0.52548  0.40958  0.46651  1.0000
  C   C3616     1.0  0.54300  0.45343  0.38337  1.0000
  H   H2847     1.0  0.55482  0.43619  0.46496  1.0000
  H   H2848     1.0  0.73931  0.50227  0.41373  1.0000
  C   C3617     1.0  0.68360  0.34137  0.42797  1.0000
  H   H2849     1.0  0.68151  0.62267  0.29922  1.0000
  H   H2850     1.0  0.74241  0.52441  0.43847  1.0000
  C   C3618     1.0  0.52673  0.59544  0.35292  1.0000
  H   H2851     1.0  0.74649  0.51103  0.47268  1.0000
  C   C3619     1.0  0.58495  0.65155  0.28146  1.0000
  P   P124      1.0  0.52092  0.59735  0.39318  1.0000
  C   C3620     1.0  0.61662  0.62726  0.32874  1.0000
  C   C3621     1.0  0.83773  0.60082  0.25149  1.0000
  H   H2852     1.0  0.61874  0.46974  0.48503  1.0000
  C   C3622     1.0  0.69444  0.37790  0.29258  1.0000
  C   C3623     1.0  0.55360  0.43149  0.33315  1.0000
  C   C3624     1.0  0.57965  0.48430  0.34207  1.0000
  C   C3625     1.0  0.51090  0.40952  0.45392  1.0000
  H   H2853     1.0  0.73552  0.36919  0.39539  1.0000
  C   C3626     1.0  0.52775  0.65610  0.30360  1.0000
  C   C3627     1.0  0.66172  0.60348  0.25074  1.0000
  C   C3628     1.0  0.65153  0.59865  0.26914  1.0000
  C   C3629     1.0  0.52158  0.42117  0.48220  1.0000
  C   C3630     1.0  0.53586  0.44623  0.30589  1.0000
  H   H2854     1.0  0.55079  0.35295  0.33831  1.0000
  C   C3631     1.0  0.69221  0.56404  0.26824  1.0000
  H   H2855     1.0  0.50983  0.59993  0.46147  1.0000
  H   H2856     1.0  0.74329  0.45281  0.45718  1.0000
  C   C3632     1.0  0.51514  0.64640  0.43388  1.0000
  C   C3633     1.0  0.74335  0.50872  0.44259  1.0000
  H   H2857     1.0  0.78190  0.61008  0.24781  1.0000
  H   H2858     1.0  0.51322  0.40060  0.44185  1.0000
  H   H2859     1.0  0.61053  0.41076  0.47692  1.0000
  H   H2860     1.0  0.62433  0.44197  0.46466  1.0000
  H   H2861     1.0  0.74272  0.33837  0.26141  1.0000
  H   H2862     1.0  0.69053  0.49242  0.26508  1.0000
  H   H2863     1.0  0.54275  0.35260  0.46830  1.0000
  C   C3634     1.0  0.76886  0.44206  0.25492  1.0000
  H   H2864     1.0  0.58786  0.56634  0.40258  1.0000
  C   C3635     1.0  0.54562  0.42983  0.31582  1.0000
  H   H2865     1.0  0.51750  0.58356  0.35548  1.0000
  C   C3636     1.0  0.64843  0.60891  0.33197  1.0000
  C   C3637     1.0  0.74538  0.48085  0.46765  1.0000
  H   H2866     1.0  0.69660  0.63000  0.32796  1.0000
  C   C3638     1.0  0.53011  0.60557  0.36842  1.0000
  C   C3639     1.0  0.70080  0.36441  0.26138  1.0000
  H   H2867     1.0  0.69924  0.57749  0.26603  1.0000
  H   H2868     1.0  0.57701  0.47879  0.32874  1.0000
  C   C3640     1.0  0.55173  0.44966  0.34081  1.0000
  C   C3641     1.0  0.51964  0.61670  0.40879  1.0000
  C   C3642     1.0  0.52024  0.57085  0.45422  1.0000
  H   H2869     1.0  0.72575  0.53658  0.26095  1.0000
  C   C3643     1.0  0.57255  0.56382  0.40280  1.0000
  H   H2870     1.0  0.66223  0.60661  0.33842  1.0000
  H   H2871     1.0  0.74006  0.46646  0.42323  1.0000
  C   C3644     1.0  0.73153  0.52188  0.26618  1.0000
  H   H2872     1.0  0.77997  0.49400  0.29684  1.0000
  C   C3645     1.0  0.68108  0.53673  0.25485  1.0000
  H   H2873     1.0  0.68901  0.56298  0.29969  1.0000
  H   H2874     1.0  0.70955  0.41551  0.27616  1.0000
  H   H2875     1.0  0.54498  0.62886  0.37635  1.0000
  H   H2876     1.0  0.54047  0.59057  0.28220  1.0000
  C   C3646     1.0  0.66737  0.33139  0.24886  1.0000
  H   H2877     1.0  0.82504  0.44513  0.25128  1.0000
  H   H2878     1.0  0.72569  0.43883  0.48898  1.0000
  C   C3647     1.0  0.68943  0.55463  0.25212  1.0000
  S   S474      1.0  0.74254  0.40227  0.25010  1.0000
  C   C3648     1.0  0.51538  0.55193  0.45336  1.0000
  C   C3649     1.0  0.80325  0.32978  0.27532  1.0000
  H   H2879     1.0  0.81112  0.49923  0.48627  1.0000
  Fe  Fe237     1.0  0.49761  0.61254  0.27681  1.0000
  H   H2880     1.0  0.89565  0.65125  0.25728  1.0000
  C   C3650     1.0  0.74020  0.43272  0.49261  1.0000
  H   H2881     1.0  0.53250  0.42124  0.49225  1.0000
  C   C3651     1.0  0.78338  0.48709  0.48930  1.0000
  S   S475      1.0  0.60263  0.65959  0.38199  1.0000
  H   H2882     1.0  0.64036  0.54203  0.24812  1.0000
  C   C3652     1.0  0.61927  0.52228  0.24527  1.0000
  C   C3653     1.0  0.72888  0.66015  0.35140  1.0000
  C   C3654     1.0  0.74469  0.41237  0.49502  1.0000
  Fe  Fe238     1.0  0.57760  0.41009  0.64892  1.0000
  S   S476      1.0  0.55766  0.41333  0.67714  1.0000
  S   S477      1.0  0.60119  0.43041  0.63983  1.0000
  Fe  Fe239     1.0  0.55860  0.37550  0.64033  1.0000
  S   S478      1.0  0.53688  0.37621  0.66700  1.0000
  S   S479      1.0  0.56008  0.35072  0.62190  1.0000
  Fe  Fe240     1.0  0.53337  0.40909  0.65941  1.0000
  C   C3655     1.0  0.52811  0.41904  0.53713  1.0000
  Fe  Fe241     1.0  0.56288  0.38028  0.68209  1.0000
  S   S480      1.0  0.56948  0.36080  0.70988  1.0000
  S   S481      1.0  0.55312  0.40783  0.63094  1.0000
  S   S482      1.0  0.58486  0.37775  0.65566  1.0000
  Fe  Fe242     1.0  0.69960  0.38787  0.52834  1.0000
  S   S483      1.0  0.66924  0.38894  0.54438  1.0000
  S   S484      1.0  0.72487  0.36916  0.54213  1.0000
  Fe  Fe243     1.0  0.66868  0.42146  0.53851  1.0000
  S   S485      1.0  0.65966  0.44177  0.56195  1.0000
  S   S486      1.0  0.69982  0.42066  0.52420  1.0000
  H   H2883     1.0  0.80663  0.50934  0.51993  1.0000
  P   P125      1.0  0.58388  0.43191  0.54154  1.0000
  H   H2884     1.0  0.57772  0.37817  0.59485  1.0000
  H   H2885     1.0  0.51731  0.59263  0.58062  1.0000
  C   C3656     1.0  0.62044  0.34858  0.72352  1.0000
  C   C3657     1.0  0.74078  0.34979  0.69816  1.0000
  H   H2886     1.0  0.51702  0.45772  0.67148  1.0000
  C   C3658     1.0  0.95329  0.46895  0.70039  1.0000
  S   S487      1.0  0.65578  0.42407  0.50981  1.0000
  C   C3659     1.0  0.54274  0.35725  0.60524  1.0000
  C   C3660     1.0  0.51559  0.37936  0.59358  1.0000
  C   C3661     1.0  0.52917  0.37382  0.60724  1.0000
  H   H2887     1.0  0.55604  0.40263  0.54101  1.0000
  H   H2888     1.0  0.52884  0.38219  0.61951  1.0000
  C   C3662     1.0  0.77067  0.33384  0.68190  1.0000
  C   C3663     1.0  0.52749  0.45440  0.53356  1.0000
  C   C3664     1.0  0.79791  0.49640  0.49589  1.0000
  C   C3665     1.0  0.61148  0.33169  0.61894  1.0000
  S   S488      1.0  0.68965  0.38745  0.49870  1.0000
  C   C3666     1.0  0.59617  0.43559  0.51694  1.0000
  H   H2889     1.0  0.69993  0.35596  0.57950  1.0000
  H   H2890     1.0  0.55145  0.59743  0.58432  1.0000
  H   H2891     1.0  0.50925  0.44792  0.72336  1.0000
  C   C3667     1.0  0.95014  0.47444  0.68078  1.0000
  C   C3668     1.0  0.64419  0.43608  0.58375  1.0000
  C   C3669     1.0  0.63136  0.42139  0.58605  1.0000
  C   C3670     1.0  0.61798  0.41911  0.60324  1.0000
  C   C3671     1.0  0.61766  0.43143  0.61810  1.0000
  C   C3672     1.0  0.63089  0.44559  0.61582  1.0000
  C   C3673     1.0  0.64396  0.44793  0.59882  1.0000
  H   H2892     1.0  0.63142  0.41220  0.57445  1.0000
  H   H2893     1.0  0.60783  0.40810  0.60489  1.0000
  H   H2894     1.0  0.63079  0.45510  0.62719  1.0000
  H   H2895     1.0  0.65372  0.45932  0.59719  1.0000
  C   C3674     1.0  0.72665  0.34322  0.54511  1.0000
  H   H2896     1.0  0.50208  0.59487  0.64287  1.0000
  C   C3675     1.0  0.58032  0.40134  0.57135  1.0000
  H   H2897     1.0  0.59969  0.48220  0.59592  1.0000
  C   C3676     1.0  0.76591  0.33484  0.63596  1.0000
  H   H2898     1.0  0.55494  0.46565  0.53517  1.0000
  C   C3677     1.0  0.68852  0.48310  0.53119  1.0000
  C   C3678     1.0  0.53214  0.59812  0.63192  1.0000
  H   H2899     1.0  0.69873  0.45787  0.55011  1.0000
  C   C3679     1.0  0.72012  0.46407  0.52532  1.0000
  C   C3680     1.0  0.70222  0.46753  0.53689  1.0000
  H   H2900     1.0  0.59309  0.40640  0.51018  1.0000
  C   C3681     1.0  0.57445  0.45324  0.57376  1.0000
  H   H2901     1.0  0.79702  0.34785  0.68302  1.0000
  C   C3682     1.0  0.51271  0.59543  0.62995  1.0000
  C   C3683     1.0  0.50707  0.59340  0.61148  1.0000
  C   C3684     1.0  0.49857  0.42021  0.72153  1.0000
  H   H2902     1.0  0.75732  0.34425  0.64597  1.0000
  C   C3685     1.0  0.50165  0.46151  0.66940  1.0000
  C   C3686     1.0  0.62593  0.35588  0.70417  1.0000
  H   H2903     1.0  0.65884  0.40442  0.61862  1.0000
  C   C3687     1.0  0.69133  0.36615  0.58875  1.0000
  H   H2904     1.0  0.55318  0.33341  0.58804  1.0000
  Fe  Fe244     1.0  0.68696  0.42061  0.49568  1.0000
  C   C3688     1.0  0.58622  0.38327  0.58142  1.0000
  C   C3689     1.0  0.67630  0.35991  0.60290  1.0000
  H   H2905     1.0  0.52870  0.34276  0.56424  1.0000
  H   H2906     1.0  0.56546  0.35773  0.53839  1.0000
  C   C3690     1.0  0.54265  0.34611  0.58968  1.0000
  H   H2907     1.0  0.56115  0.60097  0.61703  1.0000
  H   H2908     1.0  0.94911  0.47946  0.71100  1.0000
  C   C3691     1.0  0.55796  0.43395  0.53898  1.0000
  H   H2909     1.0  0.88983  0.34611  0.72690  1.0000
  Fe  Fe245     1.0  0.65928  0.39128  0.51444  1.0000
  C   C3692     1.0  0.68319  0.39961  0.59653  1.0000
  H   H2910     1.0  0.82797  0.32780  0.71596  1.0000
  C   C3693     1.0  0.54300  0.36773  0.51923  1.0000
  H   H2911     1.0  0.60031  0.46608  0.51787  1.0000
  H   H2912     1.0  0.70977  0.34075  0.52149  1.0000
  C   C3694     1.0  0.66818  0.39362  0.61059  1.0000
  C   C3695     1.0  0.79539  0.50209  0.51485  1.0000
  C   C3696     1.0  0.51522  0.36793  0.57833  1.0000
  H   H2913     1.0  0.75355  0.35079  0.61066  1.0000
  C   C3697     1.0  0.51076  0.46203  0.58699  1.0000
  H   H2914     1.0  0.53412  0.32921  0.70040  1.0000
  C   C3698     1.0  0.95693  0.40506  0.73256  1.0000
  C   C3699     1.0  0.54823  0.41717  0.53914  1.0000
  C   C3700     1.0  0.71821  0.33286  0.53272  1.0000
  C   C3701     1.0  0.54610  0.59883  0.61549  1.0000
  C   C3702     1.0  0.98667  0.45616  0.73505  1.0000
  C   C3703     1.0  0.77288  0.43685  0.49990  1.0000
  C   C3704     1.0  0.72440  0.47608  0.50779  1.0000
  C   C3705     1.0  0.56237  0.36453  0.52395  1.0000
  H   H2915     1.0  0.65459  0.35533  0.57052  1.0000
  H   H2916     1.0  0.50807  0.33510  0.72768  1.0000
  C   C3706     1.0  0.57845  0.46528  0.58736  1.0000
  C   C3707     1.0  0.73748  0.33277  0.55974  1.0000
  C   C3708     1.0  0.66143  0.33625  0.54770  1.0000
  H   H2917     1.0  0.94392  0.41148  0.72583  1.0000
  H   H2918     1.0  0.74405  0.34075  0.56933  1.0000
  H   H2919     1.0  0.96894  0.43209  0.66176  1.0000
  C   C3709     1.0  0.77176  0.36312  0.69786  1.0000
  C   C3710     1.0  0.52879  0.35140  0.57625  1.0000
  H   H2920     1.0  0.50219  0.43915  0.53292  1.0000
  H   H2921     1.0  0.65460  0.34657  0.53679  1.0000
  C   C3711     1.0  0.54063  0.59681  0.59706  1.0000
  P   P126      1.0  0.96616  0.44333  0.73152  1.0000
  H   H2922     1.0  0.52458  0.46070  0.57772  1.0000
  H   H2923     1.0  0.50099  0.55772  0.63486  1.0000
  C   C3712     1.0  0.64380  0.34860  0.69446  1.0000
  H   H2924     1.0  0.51942  0.46881  0.53142  1.0000
  C   C3713     1.0  0.76618  0.48345  0.50165  1.0000
  H   H2925     1.0  0.50046  0.49072  0.67806  1.0000
  C   C3714     1.0  0.51778  0.43765  0.53434  1.0000
  C   C3715     1.0  0.61028  0.46925  0.56929  1.0000
  C   C3716     1.0  0.59632  0.47338  0.58505  1.0000
  H   H2926     1.0  0.73369  0.40291  0.49325  1.0000
  C   C3717     1.0  0.59846  0.42035  0.50484  1.0000
  H   H2927     1.0  0.65252  0.37000  0.62427  1.0000
  H   H2928     1.0  0.53637  0.59968  0.64622  1.0000
  H   H2929     1.0  0.67447  0.48539  0.53998  1.0000
  H   H2930     1.0  0.68225  0.50755  0.50961  1.0000
  C   C3718     1.0  0.69484  0.38586  0.58573  1.0000
  C   C3719     1.0  0.60889  0.39727  0.54753  1.0000
  C   C3720     1.0  0.75151  0.36392  0.70340  1.0000
  C   C3721     1.0  0.59144  0.40832  0.55410  1.0000
  C   C3722     1.0  0.61449  0.37899  0.55741  1.0000
  H   H2931     1.0  0.57164  0.34012  0.67579  1.0000
  C   C3723     1.0  0.64660  0.33288  0.61870  1.0000
  H   H2932     1.0  0.68543  0.41501  0.59364  1.0000
  H   H2933     1.0  0.61838  0.40276  0.53495  1.0000
  H   H2934     1.0  0.95327  0.46541  0.65167  1.0000
  H   H2935     1.0  0.61832  0.45238  0.54497  1.0000
  C   C3724     1.0  0.96183  0.45000  0.70626  1.0000
  H   H2936     1.0  0.56716  0.40987  0.57716  1.0000
  H   H2937     1.0  0.73044  0.45178  0.52994  1.0000
  H   H2938     1.0  0.62775  0.37044  0.55193  1.0000
  H   H2939     1.0  0.49946  0.65333  0.51863  1.0000
  H   H2940     1.0  0.53107  0.36332  0.52997  1.0000
  H   H2941     1.0  0.62449  0.47483  0.56797  1.0000
  C   C3725     1.0  0.63030  0.33136  0.60882  1.0000
  C   C3726     1.0  0.49649  0.61097  0.49902  1.0000
  H   H2942     1.0  0.59284  0.36707  0.51347  1.0000
  H   H2943     1.0  0.64810  0.35451  0.67954  1.0000
  H   H2944     1.0  0.50497  0.39207  0.59522  1.0000
  P   P127      1.0  0.74760  0.47136  0.49296  1.0000
  H   H2945     1.0  0.77639  0.50282  0.54196  1.0000
  S   S489      1.0  0.63583  0.37412  0.50787  1.0000
  C   C3727     1.0  0.95954  0.38476  0.73758  1.0000
  H   H2946     1.0  0.94348  0.48907  0.67634  1.0000
  H   H2947     1.0  0.61623  0.36717  0.69675  1.0000
  C   C3728     1.0  0.66469  0.37391  0.61376  1.0000
  C   C3729     1.0  0.57644  0.33592  0.70622  1.0000
  H   H2948     1.0  0.60755  0.35794  0.58213  1.0000
  C   C3730     1.0  0.84552  0.33564  0.73689  1.0000
  H   H2949     1.0  0.78006  0.37411  0.70191  1.0000
  C   C3731     1.0  0.92556  0.45123  0.74094  1.0000
  H   H2950     1.0  0.70618  0.39061  0.57450  1.0000
  C   C3732     1.0  0.58841  0.44906  0.55782  1.0000
  H   H2951     1.0  0.72508  0.35045  0.70245  1.0000
  C   C3733     1.0  0.95568  0.46113  0.66688  1.0000
  C   C3734     1.0  0.60315  0.37196  0.57434  1.0000
  H   H2952     1.0  0.92400  0.44851  0.72614  1.0000
  C   C3735     1.0  0.78134  0.34816  0.68713  1.0000
  H   H2953     1.0  0.56802  0.46779  0.60008  1.0000
  C   C3736     1.0  0.60660  0.45669  0.55605  1.0000
  H   H2954     1.0  0.52389  0.37851  0.49716  1.0000
  H   H2955     1.0  0.56768  0.32934  0.50241  1.0000
  C   C3737     1.0  0.54755  0.45257  0.53579  1.0000
  C   C3738     1.0  0.66161  0.34122  0.56670  1.0000
  H   H2956     1.0  0.56079  0.44662  0.57616  1.0000
  H   H2957     1.0  0.74413  0.37552  0.71174  1.0000
  H   H2958     1.0  0.66970  0.32822  0.69613  1.0000
  H   H2959     1.0  0.94862  0.37563  0.73481  1.0000
  H   H2960     1.0  0.75072  0.48641  0.53058  1.0000
  H   H2961     1.0  0.52054  0.40601  0.53790  1.0000
  C   C3739     1.0  0.69289  0.49549  0.51409  1.0000
  C   C3740     1.0  0.49701  0.44063  0.72042  1.0000
  C   C3741     1.0  0.96767  0.43681  0.69218  1.0000
  C   C3742     1.0  0.60273  0.45373  0.50932  1.0000
  C   C3743     1.0  0.62488  0.33463  0.64907  1.0000
  H   H2962     1.0  0.97480  0.42230  0.69622  1.0000
  H   H2963     1.0  0.52135  0.47923  0.60680  1.0000
  C   C3744     1.0  0.50896  0.47246  0.60334  1.0000
  C   C3745     1.0  0.97069  0.41699  0.73679  1.0000
  H   H2964     1.0  0.51205  0.41164  0.72542  1.0000
  H   H2965     1.0  0.85161  0.34729  0.72697  1.0000
  H   H2966     1.0  0.50408  0.59636  0.49868  1.0000
  H   H2967     1.0  0.79161  0.41009  0.50641  1.0000
  C   C3746     1.0  0.63264  0.33382  0.73314  1.0000
  C   C3747     1.0  0.76379  0.48911  0.52072  1.0000
  H   H2968     1.0  0.51737  0.62022  0.51600  1.0000
  P   P128      1.0  0.67068  0.33471  0.60530  1.0000
  H   H2969     1.0  0.50049  0.44140  0.49728  1.0000
  C   C3748     1.0  0.52120  0.59409  0.59503  1.0000
  C   C3749     1.0  0.96449  0.44235  0.67257  1.0000
  C   C3750     1.0  0.57776  0.36984  0.50995  1.0000
  C   C3751     1.0  0.76374  0.33865  0.61591  1.0000
  H   H2970     1.0  0.49987  0.33996  0.64674  1.0000
  C   C3752     1.0  0.75422  0.44513  0.49502  1.0000
  C   C3753     1.0  0.50393  0.62434  0.50913  1.0000
  H   H2971     1.0  0.49682  0.44427  0.57064  1.0000
  C   C3754     1.0  0.77835  0.49842  0.52725  1.0000
  H   H2972     1.0  0.78396  0.44600  0.50202  1.0000
  H   H2973     1.0  0.65616  0.33548  0.64692  1.0000
  C   C3755     1.0  0.57628  0.32973  0.68776  1.0000
  S   S490      1.0  0.50157  0.42339  0.65959  1.0000
  H   H2974     1.0  0.50284  0.33431  0.61178  1.0000
  C   C3756     1.0  0.71083  0.49212  0.50252  1.0000
  C   C3757     1.0  0.53898  0.37642  0.50060  1.0000
  H   H2975     1.0  0.62256  0.33602  0.66466  1.0000
  H   H2976     1.0  0.71395  0.33280  0.60299  1.0000
  C   C3758     1.0  0.65602  0.33372  0.70398  1.0000
  H   H2977     1.0  0.85084  0.33051  0.64804  1.0000
  C   C3759     1.0  0.75030  0.33482  0.68742  1.0000
  H   H2978     1.0  0.59403  0.33407  0.64660  1.0000
  C   C3760     1.0  0.77730  0.41646  0.50244  1.0000
  C   C3761     1.0  0.89996  0.33724  0.73600  1.0000
  H   H2979     1.0  0.63191  0.33035  0.59327  1.0000
  S   S491      1.0  0.49688  0.37354  0.56274  1.0000
  H   H2980     1.0  0.81543  0.33233  0.64461  1.0000
  C   C3762     1.0  0.64380  0.33421  0.63901  1.0000
  C   C3763     1.0  0.67101  0.32817  0.58069  1.0000
  H   H2981     1.0  0.60653  0.35428  0.73096  1.0000
  C   C3764     1.0  0.60875  0.33343  0.63899  1.0000
  H   H2982     1.0  0.59884  0.33101  0.61121  1.0000
  C   C3765     1.0  0.76318  0.40422  0.50009  1.0000
  H   H2983     1.0  0.77305  0.32966  0.58707  1.0000
  H   H2984     1.0  0.76644  0.38842  0.50236  1.0000
  H   H2985     1.0  0.98379  0.34985  0.94786  1.0000
  Fe  Fe246     1.0  0.91704  0.40686  0.81072  1.0000
  S   S492      1.0  0.93488  0.40652  0.78094  1.0000
  S   S493      1.0  0.88795  0.42600  0.81366  1.0000
  Fe  Fe247     1.0  0.94754  0.37912  0.83013  1.0000
  S   S494      1.0  0.96700  0.37668  0.80218  1.0000
  S   S495      1.0  0.95744  0.36105  0.85694  1.0000
  Fe  Fe248     1.0  0.96099  0.40968  0.79729  1.0000
  C   C3766     1.0  0.85941  0.33072  0.87043  1.0000
  Fe  Fe249     1.0  0.93932  0.37370  0.78883  1.0000
  S   S496      1.0  0.94257  0.41198  0.82624  1.0000
  S   S497      1.0  0.92036  0.37421  0.81762  1.0000
  Fe  Fe250     1.0  0.79590  0.40414  0.95098  1.0000
  S   S498      1.0  0.82472  0.41044  0.93396  1.0000
  S   S499      1.0  0.78320  0.41780  0.97922  1.0000
  Fe  Fe251     1.0  0.79103  0.37061  0.92544  1.0000
  S   S500      1.0  0.81967  0.37467  0.90699  1.0000
  S   S501      1.0  0.77360  0.34447  0.92463  1.0000
  Fe  Fe252     1.0  0.83126  0.37788  0.93518  1.0000
  S   S502      1.0  0.86042  0.36310  0.94234  1.0000
  Fe  Fe253     1.0  0.81058  0.40689  0.90716  1.0000
  S   S503      1.0  0.81549  0.42887  0.88052  1.0000
  S   S504      1.0  0.80376  0.37141  0.95389  1.0000
  S   S505      1.0  0.78067  0.40300  0.92391  1.0000
  H   H2986     1.0  0.75716  0.46689  0.96425  1.0000
  H   H2987     1.0  0.97614  0.43863  0.83298  1.0000
  S   S506      1.0  0.98936  0.42550  0.78954  1.0000
  H   H2988     1.0  0.98594  0.38306  0.90523  1.0000
  H   H2989     1.0  0.85933  0.44365  0.92227  1.0000
  C   C3767     1.0  0.79208  0.50931  0.88301  1.0000
  H   H2990     1.0  0.76707  0.33874  0.85504  1.0000
  C   C3768     1.0  0.90860  0.45516  0.75378  1.0000
  H   H2991     1.0  0.98692  0.34418  0.88235  1.0000
  C   C3769     1.0  0.98702  0.40825  0.74620  1.0000
  C   C3770     1.0  0.87790  0.33778  0.79322  1.0000
  H   H2992     1.0  0.81840  0.47691  0.97108  1.0000
  C   C3771     1.0  0.99291  0.38708  0.91720  1.0000
  C   C3772     1.0  0.98065  0.36755  0.85966  1.0000
  C   C3773     1.0  0.77393  0.33128  0.97376  1.0000
  H   H2993     1.0  0.81105  0.44555  0.96138  1.0000
  C   C3774     1.0  0.98233  0.38845  0.93563  1.0000
  C   C3775     1.0  0.96351  0.58596  0.98575  1.0000
  C   C3776     1.0  0.88035  0.38772  0.89527  1.0000
  H   H2994     1.0  0.95980  0.45125  0.77257  1.0000
  C   C3777     1.0  0.86861  0.42555  0.83314  1.0000
  C   C3778     1.0  0.85470  0.44205  0.83373  1.0000
  C   C3779     1.0  0.83876  0.44272  0.84838  1.0000
  C   C3780     1.0  0.83626  0.42685  0.86270  1.0000
  C   C3781     1.0  0.84999  0.41009  0.86214  1.0000
  C   C3782     1.0  0.86621  0.40945  0.84739  1.0000
  H   H2995     1.0  0.85625  0.45446  0.82274  1.0000
  H   H2996     1.0  0.82822  0.45565  0.84855  1.0000
  H   H2997     1.0  0.84793  0.39764  0.87291  1.0000
  H   H2998     1.0  0.87661  0.39647  0.84686  1.0000
  H   H2999     1.0  0.96855  0.56242  0.90917  1.0000
  C   C3783     1.0  0.89139  0.37328  0.98504  1.0000
  C   C3784     1.0  0.88624  0.36755  0.96777  1.0000
  C   C3785     1.0  0.86693  0.37173  0.96305  1.0000
  C   C3786     1.0  0.85282  0.38203  0.97531  1.0000
  C   C3787     1.0  0.99161  0.39282  0.95127  1.0000
  H   H3000     1.0  0.85997  0.42013  0.95433  1.0000
  H   H3001     1.0  0.68521  0.35845  0.77150  1.0000
  H   H3002     1.0  0.83785  0.38531  0.97170  1.0000
  C   C3788     1.0  0.76050  0.34792  0.97591  1.0000
  C   C3789     1.0  0.76859  0.33256  0.90456  1.0000
  C   C3790     1.0  0.79040  0.43955  0.98668  1.0000
  H   H3003     1.0  0.81245  0.51468  0.83554  1.0000
  H   H3004     1.0  0.83289  0.33986  0.81983  1.0000
  C   C3791     1.0  0.98961  0.38795  0.75115  1.0000
  H   H3005     1.0  0.86180  0.34013  0.76000  1.0000
  C   C3792     1.0  0.89663  0.39494  0.88393  1.0000
  H   H3006     1.0  0.75318  0.44285  0.94150  1.0000
  C   C3793     1.0  0.98348  0.60573  0.96147  1.0000
  C   C3794     1.0  0.90133  0.43774  0.97914  1.0000
  H   H3007     1.0  0.93576  0.34843  0.89169  1.0000
  C   C3795     1.0  0.76514  0.46771  0.94972  1.0000
  H   H3008     1.0  0.97019  0.58658  0.93222  1.0000
  H   H3009     1.0  0.78703  0.56932  0.95664  1.0000
  C   C3796     1.0  0.88373  0.35529  0.79756  1.0000
  C   C3797     1.0  0.87139  0.36702  0.81005  1.0000
  C   C3798     1.0  0.85320  0.36116  0.81823  1.0000
  C   C3799     1.0  0.85934  0.33208  0.80078  1.0000
  C   C3800     1.0  0.88592  0.51448  0.98104  1.0000
  C   C3801     1.0  0.98074  0.63990  0.92278  1.0000
  H   H3010     1.0  0.88254  0.46169  0.93626  1.0000
  C   C3802     1.0  0.93517  0.35499  0.93968  1.0000
  C   C3803     1.0  0.68900  0.34380  0.76714  1.0000
  C   C3804     1.0  0.93277  0.35948  0.91980  1.0000
  H   H3011     1.0  0.89701  0.46042  0.78333  1.0000
  C   C3805     1.0  0.98242  0.56795  0.91018  1.0000
  H   H3012     1.0  0.89707  0.35957  0.95825  1.0000
  C   C3806     1.0  0.67710  0.33631  0.75540  1.0000
  H   H3013     1.0  0.89775  0.35985  0.79090  1.0000
  H   H3014     1.0  0.87583  0.38076  0.81324  1.0000
  H   H3015     1.0  0.84366  0.37032  0.82791  1.0000
  C   C3807     1.0  0.90610  0.42506  0.96453  1.0000
  C   C3808     1.0  0.77128  0.34101  0.88513  1.0000
  C   C3809     1.0  0.94425  0.45023  0.74744  1.0000
  C   C3810     1.0  0.86278  0.48826  0.93697  1.0000
  H   H3016     1.0  0.77982  0.49192  0.95451  1.0000
  H   H3017     1.0  0.98666  0.57399  0.96552  1.0000
  C   C3811     1.0  0.80930  0.50517  0.89243  1.0000
  C   C3812     1.0  0.99235  0.35663  0.87317  1.0000
  H   H3018     1.0  0.77222  0.44421  0.90850  1.0000
  H   H3019     1.0  0.98329  0.39308  0.96557  1.0000
  C   C3813     1.0  0.84433  0.49758  0.93288  1.0000
  C   C3814     1.0  0.81157  0.51221  0.85139  1.0000
  C   C3815     1.0  0.90398  0.36423  0.86953  1.0000
  H   H3020     1.0  0.86626  0.33829  0.98907  1.0000
  H   H3021     1.0  0.92113  0.38872  0.86236  1.0000
  C   C3816     1.0  0.90845  0.38317  0.87110  1.0000
  H   H3022     1.0  0.89996  0.40969  0.88490  1.0000
  C   C3817     1.0  0.76564  0.33167  0.86990  1.0000
  H   H3023     1.0  0.84120  0.50158  0.88795  1.0000
  C   C3818     1.0  0.79448  0.53950  0.91994  1.0000
  C   C3819     1.0  0.85512  0.45865  0.92545  1.0000
  H   H3024     1.0  0.84070  0.51281  0.93538  1.0000
  H   H3025     1.0  0.81468  0.35687  0.86530  1.0000
  C   C3820     1.0  0.88903  0.32736  0.92008  1.0000
  H   H3026     1.0  0.79333  0.54034  0.90440  1.0000
  C   C3821     1.0  0.82768  0.50479  0.88112  1.0000
  C   C3822     1.0  0.98592  0.46503  0.79715  1.0000
  C   C3823     1.0  0.80821  0.46846  0.98065  1.0000
  C   C3824     1.0  0.83656  0.46780  0.92163  1.0000
  C   C3825     1.0  0.94563  0.45285  0.76703  1.0000
  C   C3826     1.0  0.99547  0.34375  0.95659  1.0000
  H   H3027     1.0  0.80732  0.50817  0.95937  1.0000
  C   C3827     1.0  0.92867  0.45687  0.77981  1.0000
  H   H3028     1.0  0.97773  0.63712  0.96311  1.0000
  H   H3029     1.0  0.91365  0.35536  0.85976  1.0000
  H   H3030     1.0  0.97673  0.42070  0.89456  1.0000
  H   H3031     1.0  0.89646  0.34049  0.91697  1.0000
  H   H3032     1.0  0.83680  0.51870  0.97708  1.0000
  C   C3828     1.0  0.97874  0.58730  0.97046  1.0000
  C   C3829     1.0  0.94189  0.33591  0.94691  1.0000
  C   C3830     1.0  0.86731  0.52310  0.97670  1.0000
  H   H3033     1.0  0.96030  0.42327  0.86423  1.0000
  C   C3831     1.0  0.86819  0.46884  0.93320  1.0000
  H   H3034     1.0  0.71447  0.33787  0.78316  1.0000
  C   C3832     1.0  0.78702  0.46871  0.91294  1.0000
  C   C3833     1.0  0.93742  0.34493  0.90711  1.0000
  H   H3035     1.0  0.74841  0.35091  0.96691  1.0000
  C   C3834     1.0  0.97875  0.65759  0.91065  1.0000
  C   C3835     1.0  0.82877  0.50823  0.86067  1.0000
  C   C3836     1.0  0.95827  0.62132  0.98393  1.0000
  H   H3036     1.0  0.92739  0.37420  0.91417  1.0000
  H   H3037     1.0  0.77698  0.35509  0.88193  1.0000
  H   H3038     1.0  0.83366  0.33762  0.97820  1.0000
  C   C3837     1.0  0.77820  0.48190  0.94411  1.0000
  C   C3838     1.0  0.84468  0.34663  0.87025  1.0000
  H   H3039     1.0  0.89478  0.40832  0.94477  1.0000
  C   C3839     1.0  0.91016  0.45796  0.77321  1.0000
  H   H3040     1.0  0.79830  0.53812  0.97571  1.0000
  C   C3840     1.0  0.76295  0.45412  0.93694  1.0000
  H   H3041     1.0  0.98377  0.49575  0.80143  1.0000
  C   C3841     1.0  0.80411  0.45052  0.97506  1.0000
  H   H3042     1.0  0.93184  0.36624  0.94961  1.0000
  C   C3842     1.0  0.88157  0.44365  0.98531  1.0000
  H   H3043     1.0  0.94358  0.33282  0.96236  1.0000
  H   H3044     1.0  0.77989  0.51576  0.85537  1.0000
  C   C3843     1.0  0.79323  0.51282  0.86256  1.0000
  H   H3045     1.0  0.92132  0.41988  0.96038  1.0000
  C   C3844     1.0  0.79730  0.53858  0.96009  1.0000
  H   H3046     1.0  0.86317  0.36346  0.90243  1.0000
  H   H3047     1.0  0.86522  0.53841  0.97093  1.0000
  C   C3845     1.0  0.85131  0.51204  0.98014  1.0000
  C   C3846     1.0  0.78952  0.55659  0.92929  1.0000
  C   C3847     1.0  0.86675  0.43792  0.97561  1.0000
  C   C3848     1.0  0.88754  0.35692  0.88078  1.0000
  H   H3048     1.0  0.82680  0.45964  0.91541  1.0000
  C   C3849     1.0  0.97369  0.62272  0.96891  1.0000
  C   C3850     1.0  0.98367  0.42744  0.88096  1.0000
  C   C3851     1.0  0.84713  0.34380  0.81357  1.0000
  H   H3049     1.0  0.90289  0.48848  0.99264  1.0000
  C   C3852     1.0  0.98361  0.47376  0.74384  1.0000
  C   C3853     1.0  0.80088  0.52176  0.93065  1.0000
  H   H3050     1.0  0.92985  0.45844  0.79503  1.0000
  H   H3051     1.0  0.77777  0.50956  0.89147  1.0000
  H   H3052     1.0  0.85140  0.44284  0.97962  1.0000
  C   C3854     1.0  0.91059  0.34644  0.74793  1.0000
  C   C3855     1.0  0.79091  0.55612  0.94936  1.0000
  C   C3856     1.0  0.98760  0.38377  0.84806  1.0000
  C   C3857     1.0  0.78929  0.48252  0.92565  1.0000
  H   H3053     1.0  0.79576  0.46833  0.89882  1.0000
  H   H3054     1.0  0.87107  0.39676  0.90524  1.0000
  C   C3858     1.0  0.83096  0.48733  0.92539  1.0000
  C   C3859     1.0  0.92439  0.33528  0.75918  1.0000
  H   H3055     1.0  0.84298  0.50759  0.85199  1.0000
  P   P129      1.0  0.80761  0.49952  0.91877  1.0000
  H   H3056     1.0  0.87294  0.49616  0.94295  1.0000
  C   C3860     1.0  0.97431  0.42903  0.86390  1.0000
  H   H3057     1.0  0.90856  0.36220  0.74793  1.0000
  C   C3861     1.0  0.82612  0.34463  0.86491  1.0000
  H   H3058     1.0  0.78457  0.57022  0.92099  1.0000
  H   H3059     1.0  0.97036  0.46401  0.80093  1.0000
  S   S507      1.0  0.93982  0.34610  0.77296  1.0000
  C   C3862     1.0  0.77375  0.45477  0.91847  1.0000
  C   C3863     1.0  0.87579  0.36888  0.89358  1.0000
  C   C3864     1.0  0.98347  0.58153  0.92339  1.0000
  C   C3865     1.0  0.89119  0.41862  0.95566  1.0000
  H   H3060     1.0  0.84729  0.36061  0.87428  1.0000
  C   C3866     1.0  0.87156  0.42521  0.96108  1.0000
  C   C3867     1.0  0.99121  0.33986  0.97702  1.0000
  C   C3868     1.0  0.80232  0.52153  0.95078  1.0000
  H   H3061     1.0  0.97873  0.39234  0.83763  1.0000
  H   H3062     1.0  0.96339  0.32900  0.82105  1.0000
  C   C3869     1.0  0.98322  0.43769  0.84630  1.0000
  H   H3063     1.0  0.96715  0.38527  0.93806  1.0000
  C   C3870     1.0  0.76325  0.36113  0.98886  1.0000
  C   C3871     1.0  0.70552  0.33225  0.77367  1.0000
  C   C3872     1.0  0.97585  0.37622  0.74691  1.0000
  H   H3064     1.0  0.91305  0.44255  0.98589  1.0000
  H   H3065     1.0  0.89419  0.45558  0.74886  1.0000
  P   P130      1.0  0.88236  0.33188  0.88042  1.0000
  H   H3066     1.0  0.96763  0.63375  0.92986  1.0000
  C   C3873     1.0  0.99363  0.48307  0.79755  1.0000
  H   H3067     1.0  0.96901  0.47983  0.74911  1.0000
  H   H3068     1.0  0.90639  0.37024  0.98854  1.0000
  H   H3069     1.0  0.83186  0.32905  0.91311  1.0000
  C   C3874     1.0  0.85141  0.33137  0.75572  1.0000
  H   H3070     1.0  0.89830  0.52310  0.97847  1.0000
  H   H3071     1.0  0.66417  0.34537  0.75087  1.0000
  H   H3072     1.0  0.75325  0.37440  0.98998  1.0000
  H   H3073     1.0  0.95034  0.63454  0.98917  1.0000
  H   H3074     1.0  0.84131  0.48420  0.99109  1.0000
  C   C3875     1.0  0.79039  0.32785  0.98433  1.0000
  H   H3075     1.0  0.62805  0.32837  0.74815  1.0000
  H   H3076     1.0  0.89050  0.33155  0.83791  1.0000
  C   C3876     1.0  0.88842  0.49492  0.98923  1.0000
  H   H3077     1.0  0.82919  0.32890  0.94868  1.0000
  H   H3078     1.0  0.88763  0.32900  0.78334  1.0000
  S   S508      1.0  0.96688  0.34686  0.98779  1.0000
  C   C3877     1.0  0.85382  0.49253  0.98833  1.0000
  H   H3079     1.0  0.97747  0.36055  0.75130  1.0000
  C   C3878     1.0  0.85796  0.38771  0.99262  1.0000
  H   H3080     1.0  0.95962  0.57178  0.99251  1.0000
  C   C3879     1.0  0.95309  0.60298  0.99228  1.0000
  Fe  Fe254     1.0  0.64711  0.96104  0.06231  1.0000
  S   S509      1.0  0.67774  0.96949  0.05924  1.0000
  Fe  Fe255     1.0  0.86161  0.71304  0.24010  1.0000
  Fe  Fe256     1.0  0.65829  0.92692  0.03864  1.0000
  S   S510      1.0  0.69000  0.93331  0.03313  1.0000
  S   S511      1.0  0.65000  0.89833  0.03074  1.0000
  Fe  Fe257     1.0  0.68684  0.93735  0.06538  1.0000
  S   S512      1.0  0.71003  0.92331  0.08535  1.0000
  Fe  Fe258     1.0  0.67766  0.96509  0.02733  1.0000
  H   H3081     1.0  0.79993  0.87871  0.20226  1.0000
  S   S513      1.0  0.65602  0.92934  0.07090  1.0000
  S   S514      1.0  0.64614  0.95824  0.03049  1.0000
  Fe  Fe259     1.0  0.51779  0.84217  0.05452  1.0000
  S   S515      1.0  0.52203  0.81114  0.04735  1.0000
  C   C3880     1.0  0.82692  0.87726  0.24074  1.0000
  Fe  Fe260     1.0  0.55198  0.85485  0.02623  1.0000
  S   S516      1.0  0.55928  0.82440  0.01684  1.0000
  S   S517      1.0  0.56398  0.88397  0.01564  1.0000
  Fe  Fe261     1.0  0.52634  0.82438  0.01580  1.0000
  C   C3881     1.0  0.85844  0.67361  0.03208  1.0000
  Fe  Fe262     1.0  0.55393  0.81394  0.04936  1.0000
  S   S518      1.0  0.57191  0.79014  0.06782  1.0000
  S   S519      1.0  0.51980  0.85524  0.02341  1.0000
  S   S520      1.0  0.54915  0.84436  0.05824  1.0000
  H   H3082     1.0  0.49779  0.83825  0.24141  1.0000
  S   S521      1.0  0.72941  0.86840  0.19834  1.0000
  H   H3083     1.0  0.74126  0.95033  0.23052  1.0000
  H   H3084     1.0  0.96848  0.69842  0.14826  1.0000
  Fe  Fe263     1.0  0.72702  0.90117  0.19759  1.0000
  S   S522      1.0  0.70643  0.92121  0.17838  1.0000
  C   C3882     1.0  0.93336  0.67850  0.24063  1.0000
  C   C3883     1.0  0.78357  0.82138  0.21676  1.0000
  C   C3884     1.0  0.72963  0.82679  0.16928  1.0000
  C   C3885     1.0  0.63220  0.86869  0.09966  1.0000
  C   C3886     1.0  0.71377  0.84279  0.12765  1.0000
  C   C3887     1.0  0.66520  0.81016  0.11235  1.0000
  S   S523      1.0  0.90519  0.73305  0.15351  1.0000
  C   C3888     1.0  0.51102  0.75749  0.22794  1.0000
  C   C3889     1.0  0.98983  0.95281  0.23109  1.0000
  C   C3890     1.0  0.63516  0.95200  0.12945  1.0000
  S   S524      1.0  0.63443  0.78393  0.17582  1.0000
  H   H3085     1.0  0.52648  0.79622  0.09741  1.0000
  S   S525      1.0  0.61106  0.74582  0.19281  1.0000
  Fe  Fe264     1.0  0.64196  0.75390  0.19122  1.0000
  H   H3086     1.0  0.67588  0.83782  0.11366  1.0000
  Fe  Fe265     1.0  0.60319  0.77698  0.17980  1.0000
  S   S526      1.0  0.58132  0.79173  0.15873  1.0000
  S   S527      1.0  0.59666  0.78810  0.20958  1.0000
  H   H3087     1.0  0.83825  0.66502  0.01406  1.0000
  H   H3088     1.0  0.76933  0.82875  0.22134  1.0000
  S   S528      1.0  0.89903  0.68073  0.08452  1.0000
  C   C3891     1.0  0.51247  0.80213  0.10450  1.0000
  C   C3892     1.0  0.89044  0.66657  0.16389  1.0000
  C   C3893     1.0  0.56274  0.74328  0.14232  1.0000
  H   H3089     1.0  0.64141  0.89564  0.17395  1.0000
  C   C3894     1.0  0.65999  0.91007  0.21125  1.0000
  H   H3090     1.0  0.67163  0.76987  0.14535  1.0000
  H   H3091     1.0  0.53484  0.94799  0.12352  1.0000
  H   H3092     1.0  0.55445  0.91306  0.06101  1.0000
  C   C3895     1.0  0.50163  0.80936  0.19672  1.0000
  C   C3896     1.0  0.85422  0.66425  0.18667  1.0000
  H   H3093     1.0  0.77421  0.79606  0.10903  1.0000
  H   H3094     1.0  0.63409  0.71902  0.23105  1.0000
  C   C3897     1.0  0.66017  0.70004  0.19551  1.0000
  H   H3095     1.0  0.71424  0.67620  0.19423  1.0000
  H   H3096     1.0  0.64509  0.70661  0.19576  1.0000
  H   H3097     1.0  0.62448  0.88252  0.23400  1.0000
  C   C3898     1.0  0.68874  0.83870  0.23646  1.0000
  C   C3899     1.0  0.90352  0.71722  0.13530  1.0000
  C   C3900     1.0  0.92007  0.71306  0.12182  1.0000
  C   C3901     1.0  0.91913  0.70167  0.10638  1.0000
  C   C3902     1.0  0.90148  0.69449  0.10409  1.0000
  C   C3903     1.0  0.88494  0.69861  0.11756  1.0000
  C   C3904     1.0  0.88594  0.70987  0.13304  1.0000
  H   H3098     1.0  0.93368  0.71890  0.12317  1.0000
  H   H3099     1.0  0.93194  0.69877  0.09603  1.0000
  H   H3100     1.0  0.87117  0.69332  0.11580  1.0000
  H   H3101     1.0  0.87286  0.71351  0.14263  1.0000
  C   C3905     1.0  0.71073  0.86192  0.11824  1.0000
  H   H3102     1.0  0.73682  0.80396  0.21469  1.0000
  H   H3103     1.0  0.78567  0.81750  0.16187  1.0000
  H   H3104     1.0  0.57112  0.86857  0.12743  1.0000
  H   H3105     1.0  0.65993  0.89322  0.12433  1.0000
  H   H3106     1.0  0.85823  0.74626  0.16866  1.0000
  C   C3906     1.0  0.51982  0.87658  0.12501  1.0000
  H   H3107     1.0  0.49641  0.79676  0.08148  1.0000
  H   H3108     1.0  0.92528  0.72327  0.19562  1.0000
  H   H3109     1.0  0.91473  0.76005  0.18758  1.0000
  H   H3110     1.0  0.88140  0.77171  0.17366  1.0000
  P   P131      1.0  0.60854  0.85931  0.10198  1.0000
  H   H3111     1.0  0.65234  0.67086  0.20547  1.0000
  H   H3112     1.0  0.54418  0.88178  0.07770  1.0000
  C   C3907     1.0  0.52837  0.85931  0.11740  1.0000
  C   C3908     1.0  0.52061  0.85277  0.10177  1.0000
  H   H3113     1.0  0.54079  0.85090  0.12363  1.0000
  H   H3114     1.0  0.52708  0.83940  0.09599  1.0000
  C   C3909     1.0  0.57515  0.79126  0.09291  1.0000
  C   C3910     1.0  0.56627  0.80681  0.10321  1.0000
  C   C3911     1.0  0.56875  0.80693  0.12317  1.0000
  C   C3912     1.0  0.58051  0.79176  0.13305  1.0000
  C   C3913     1.0  0.59003  0.77656  0.12259  1.0000
  C   C3914     1.0  0.58701  0.77612  0.10277  1.0000
  H   H3115     1.0  0.55738  0.81870  0.09582  1.0000
  H   H3116     1.0  0.56153  0.81889  0.13100  1.0000
  H   H3117     1.0  0.59911  0.76478  0.12996  1.0000
  H   H3118     1.0  0.59405  0.76406  0.09495  1.0000
  H   H3119     1.0  0.65572  0.93497  0.19007  1.0000
  H   H3120     1.0  0.65851  0.81509  0.09896  1.0000
  C   C3915     1.0  0.65187  0.88384  0.16910  1.0000
  C   C3916     1.0  0.57208  0.87241  0.08888  1.0000
  H   H3121     1.0  0.86586  0.67971  0.20696  1.0000
  C   C3917     1.0  0.70792  0.92146  0.11139  1.0000
  C   C3918     1.0  0.69102  0.92908  0.12250  1.0000
  C   C3919     1.0  0.69066  0.92868  0.14302  1.0000
  C   C3920     1.0  0.70698  0.92022  0.15271  1.0000
  C   C3921     1.0  0.72351  0.91180  0.14170  1.0000
  C   C3922     1.0  0.72403  0.91260  0.12116  1.0000
  H   H3122     1.0  0.67852  0.93585  0.11517  1.0000
  H   H3123     1.0  0.67778  0.93519  0.15139  1.0000
  H   H3124     1.0  0.73616  0.90522  0.14892  1.0000
  H   H3125     1.0  0.73720  0.90666  0.11274  1.0000
  C   C3923     1.0  0.62569  0.89477  0.02750  1.0000
  C   C3924     1.0  0.62105  0.87561  0.02702  1.0000
  H   H3126     1.0  0.81851  0.68768  0.12443  1.0000
  C   C3925     1.0  0.58760  0.88785  0.02082  1.0000
  C   C3926     1.0  0.59225  0.90707  0.02112  1.0000
  C   C3927     1.0  0.61118  0.91052  0.02470  1.0000
  C   C3928     1.0  0.51837  0.97931  0.10201  1.0000
  C   C3929     1.0  0.64917  0.98756  0.21503  1.0000
  S   S529      1.0  0.75760  0.86665  0.23441  1.0000
  H   H3127     1.0  0.61470  0.92533  0.02486  1.0000
  C   C3930     1.0  0.81313  0.70257  0.17470  1.0000
  C   C3931     1.0  0.82845  0.70810  0.16076  1.0000
  C   C3932     1.0  0.82622  0.72600  0.14907  1.0000
  C   C3933     1.0  0.80864  0.73837  0.15128  1.0000
  C   C3934     1.0  0.79316  0.73291  0.16530  1.0000
  C   C3935     1.0  0.79559  0.71492  0.17698  1.0000
  P   P132      1.0  0.77025  0.74860  0.16838  1.0000
  C   C3936     1.0  0.76372  0.75128  0.19413  1.0000
  C   C3937     1.0  0.77346  0.77248  0.15536  1.0000
  C   C3938     1.0  0.77851  0.78767  0.16496  1.0000
  C   C3939     1.0  0.77189  0.77567  0.13511  1.0000
  C   C3940     1.0  0.74392  0.75489  0.20172  1.0000
  C   C3941     1.0  0.73899  0.75758  0.22151  1.0000
  H   H3128     1.0  0.72369  0.76054  0.22718  1.0000
  C   C3942     1.0  0.77346  0.75301  0.22649  1.0000
  C   C3943     1.0  0.77848  0.75045  0.20669  1.0000
  C   C3944     1.0  0.75065  0.73856  0.15889  1.0000
  C   C3945     1.0  0.75158  0.71842  0.15704  1.0000
  C   C3946     1.0  0.73598  0.71082  0.15034  1.0000
  C   C3947     1.0  0.71933  0.72322  0.14548  1.0000
  C   C3948     1.0  0.71828  0.74324  0.14726  1.0000
  C   C3949     1.0  0.73386  0.75092  0.15387  1.0000
  H   H3129     1.0  0.81473  0.68875  0.18386  1.0000
  H   H3130     1.0  0.84208  0.69857  0.15899  1.0000
  H   H3131     1.0  0.83816  0.73036  0.13833  1.0000
  H   H3132     1.0  0.80736  0.75219  0.14211  1.0000
  H   H3133     1.0  0.78381  0.71035  0.18780  1.0000
  H   H3134     1.0  0.78022  0.78562  0.18048  1.0000
  H   H3135     1.0  0.76849  0.76401  0.12732  1.0000
  H   H3136     1.0  0.73220  0.75580  0.19245  1.0000
  C   C3950     1.0  0.68044  0.97322  0.20024  1.0000
  C   C3951     1.0  0.81125  0.66042  0.14064  1.0000
  H   H3137     1.0  0.59564  0.83137  0.22339  1.0000
  H   H3138     1.0  0.79390  0.74811  0.20122  1.0000
  H   H3139     1.0  0.76409  0.70838  0.16095  1.0000
  H   H3140     1.0  0.73658  0.69521  0.14936  1.0000
  H   H3141     1.0  0.70698  0.71723  0.14089  1.0000
  H   H3142     1.0  0.70514  0.75268  0.14396  1.0000
  H   H3143     1.0  0.73259  0.76644  0.15548  1.0000
  S   S530      1.0  0.50294  0.97379  0.17793  1.0000
  C   C3952     1.0  0.81258  0.81832  0.19340  1.0000
  H   H3144     1.0  0.75422  0.82265  0.18646  1.0000
  C   C3953     1.0  0.65734  0.82872  0.21826  1.0000
  C   C3954     1.0  0.81999  0.80128  0.20464  1.0000
  H   H3145     1.0  0.63227  0.86338  0.02897  1.0000
  C   C3955     1.0  0.70980  0.80608  0.20136  1.0000
  H   H3146     1.0  0.57733  0.89104  0.16631  1.0000
  C   C3956     1.0  0.55103  0.95888  0.03927  1.0000
  H   H3147     1.0  0.69904  0.98452  0.10042  1.0000
  C   C3957     1.0  0.56454  0.90337  0.06954  1.0000
  C   C3958     1.0  0.51579  0.79861  0.18471  1.0000
  H   H3148     1.0  0.60500  0.94214  0.23014  1.0000
  H   H3149     1.0  0.74820  0.98050  0.16151  1.0000
  H   H3150     1.0  0.90400  0.66812  0.15440  1.0000
  C   C3959     1.0  0.52646  0.82914  0.16808  1.0000
  C   C3960     1.0  0.52843  0.80865  0.17060  1.0000
  S   S531      1.0  0.87647  0.76365  0.21876  1.0000
  H   H3151     1.0  0.82097  0.82371  0.18000  1.0000
  C   C3961     1.0  0.71067  0.97138  0.12708  1.0000
  H   H3152     1.0  0.70200  0.79840  0.21392  1.0000
  H   H3153     1.0  0.86580  0.68274  0.02027  1.0000
  C   C3962     1.0  0.83025  0.67882  0.23985  1.0000
  H   H3154     1.0  0.80620  0.85876  0.23318  1.0000
  H   H3155     1.0  0.49674  0.75449  0.22485  1.0000
  C   C3963     1.0  0.59107  0.93168  0.18240  1.0000
  C   C3964     1.0  0.95977  0.68758  0.15664  1.0000
  H   H3156     1.0  0.50489  0.73328  0.19542  1.0000
  H   H3157     1.0  0.53604  0.83680  0.15696  1.0000
  H   H3158     1.0  0.53984  0.80079  0.16152  1.0000
  C   C3965     1.0  0.60548  0.96124  0.20282  1.0000
  H   H3159     1.0  0.58119  0.91928  0.01855  1.0000
  H   H3160     1.0  0.55493  0.74522  0.19146  1.0000
  H   H3161     1.0  0.51074  0.96530  0.07788  1.0000
  C   C3966     1.0  0.55064  0.96034  0.05932  1.0000
  C   C3967     1.0  0.72312  0.86791  0.10161  1.0000
  C   C3968     1.0  0.73857  0.85496  0.09423  1.0000
  C   C3969     1.0  0.74159  0.83586  0.10337  1.0000
  C   C3970     1.0  0.72919  0.82975  0.11997  1.0000
  H   H3162     1.0  0.72068  0.88262  0.09430  1.0000
  H   H3163     1.0  0.74807  0.85975  0.08130  1.0000
  H   H3164     1.0  0.75339  0.82579  0.09738  1.0000
  H   H3165     1.0  0.73149  0.81480  0.12673  1.0000
  C   C3971     1.0  0.66383  0.79107  0.12129  1.0000
  C   C3972     1.0  0.62114  0.80331  0.08625  1.0000
  C   C3973     1.0  0.61776  0.80574  0.06655  1.0000
  C   C3974     1.0  0.61104  0.82419  0.05783  1.0000
  C   C3975     1.0  0.60790  0.84026  0.06873  1.0000
  C   C3976     1.0  0.61107  0.83797  0.08863  1.0000
  C   C3977     1.0  0.61754  0.81926  0.09734  1.0000
  C   C3978     1.0  0.60043  0.85283  0.12765  1.0000
  C   C3979     1.0  0.61342  0.84135  0.13970  1.0000
  C   C3980     1.0  0.60724  0.83552  0.15933  1.0000
  C   C3981     1.0  0.58812  0.84135  0.16722  1.0000
  C   C3982     1.0  0.57531  0.85334  0.15558  1.0000
  C   C3983     1.0  0.58142  0.85918  0.13592  1.0000
  H   H3166     1.0  0.62579  0.78886  0.09312  1.0000
  H   H3167     1.0  0.61963  0.79320  0.05821  1.0000
  H   H3168     1.0  0.60798  0.82596  0.04266  1.0000
  H   H3169     1.0  0.60290  0.85444  0.06158  1.0000
  H   H3170     1.0  0.61963  0.81666  0.11267  1.0000
  H   H3171     1.0  0.56771  0.85824  0.09513  1.0000
  H   H3172     1.0  0.62831  0.83667  0.13386  1.0000
  H   H3173     1.0  0.61717  0.82626  0.16843  1.0000
  H   H3174     1.0  0.58323  0.83638  0.18229  1.0000
  H   H3175     1.0  0.56052  0.85804  0.16173  1.0000
  H   H3176     1.0  0.68757  0.86477  0.21607  1.0000
  H   H3177     1.0  0.98724  0.94592  0.17641  1.0000
  C   C3984     1.0  0.91190  0.67824  0.21509  1.0000
  H   H3178     1.0  0.67691  0.89856  0.17196  1.0000
  H   H3179     1.0  0.54103  0.96455  0.15412  1.0000
  C   C3985     1.0  0.81387  0.87165  0.22883  1.0000
  P   P133      1.0  0.90617  0.68646  0.19028  1.0000
  H   H3180     1.0  0.62984  0.86494  0.16674  1.0000
  C   C3986     1.0  0.62660  0.95118  0.16471  1.0000
  C   C3987     1.0  0.94112  0.69345  0.16578  1.0000
  C   C3988     1.0  0.54160  0.97796  0.16050  1.0000
  C   C3989     1.0  0.89766  0.71265  0.18762  1.0000
  C   C3990     1.0  0.87802  0.71969  0.17981  1.0000
  C   C3991     1.0  0.87187  0.74144  0.17493  1.0000
  C   C3992     1.0  0.88535  0.75629  0.17788  1.0000
  C   C3993     1.0  0.90484  0.74946  0.18598  1.0000
  C   C3994     1.0  0.91096  0.72781  0.19074  1.0000
  C   C3995     1.0  0.66430  0.67978  0.20093  1.0000
  H   H3181     1.0  0.62796  0.87948  0.12819  1.0000
  H   H3182     1.0  0.78250  0.82304  0.12635  1.0000
  H   H3183     1.0  0.93606  0.70882  0.16454  1.0000
  H   H3184     1.0  0.86844  0.70946  0.17687  1.0000
  C   C3996     1.0  0.59103  0.87725  0.09038  1.0000
  C   C3997     1.0  0.55880  0.88559  0.07881  1.0000
  H   H3185     1.0  0.64049  0.86170  0.06978  1.0000
  C   C3998     1.0  0.81013  0.88300  0.21127  1.0000
  C   C3999     1.0  0.67556  0.71164  0.18942  1.0000
  C   C4000     1.0  0.60204  0.87215  0.02384  1.0000
  C   C4001     1.0  0.86465  0.67161  0.05077  1.0000
  C   C4002     1.0  0.77514  0.79382  0.12468  1.0000
  C   C4003     1.0  0.52421  0.76600  0.21314  1.0000
  H   H3186     1.0  0.69932  0.67694  0.23546  1.0000
  Fe  Fe266     1.0  0.92269  0.66585  0.06323  1.0000
  C   C4004     1.0  0.54735  0.76594  0.23705  1.0000
  H   H3187     1.0  0.78494  0.75244  0.23603  1.0000
  C   C4005     1.0  0.64539  0.86664  0.16479  1.0000
  H   H3188     1.0  0.65373  0.83788  0.15600  1.0000
  C   C4006     1.0  0.69504  0.70292  0.18922  1.0000
  C   C4007     1.0  0.64475  0.86788  0.08212  1.0000
  C   C4008     1.0  0.65902  0.85134  0.15863  1.0000
  C   C4009     1.0  0.58613  0.85501  0.24115  1.0000
  Fe  Fe267     1.0  0.94908  0.66170  0.02417  1.0000
  H   H3189     1.0  0.61142  0.89914  0.08119  1.0000
  C   C4010     1.0  0.59668  0.89525  0.08105  1.0000
  S   S532      1.0  0.67112  0.73698  0.18181  1.0000
  H   H3190     1.0  0.70123  0.87186  0.16098  1.0000
  C   C4011     1.0  0.67522  0.82296  0.12064  1.0000
  H   H3191     1.0  0.69872  0.87223  0.12337  1.0000
  C   C4012     1.0  0.58345  0.90823  0.07069  1.0000
  C   C4013     1.0  0.66269  0.87590  0.07998  1.0000
  H   H3192     1.0  0.67196  0.87587  0.06612  1.0000
  C   C4014     1.0  0.56567  0.73964  0.16214  1.0000
  S   S533      1.0  0.77580  0.67037  0.21107  1.0000
  H   H3193     1.0  0.77521  0.95774  0.17440  1.0000
  H   H3194     1.0  0.64210  0.97014  0.17881  1.0000
  C   C4015     1.0  0.58984  0.93820  0.10430  1.0000
  C   C4016     1.0  0.67926  0.85331  0.15652  1.0000
  Fe  Fe268     1.0  0.72535  0.86827  0.23101  1.0000
  C   C4017     1.0  0.63772  0.87797  0.11486  1.0000
  H   H3195     1.0  0.57041  0.95616  0.19129  1.0000
  C   C4018     1.0  0.92958  0.67957  0.17647  1.0000
  C   C4019     1.0  0.67196  0.88553  0.16788  1.0000
  C   C4020     1.0  0.51164  0.80963  0.12251  1.0000
  H   H3196     1.0  0.58809  0.92183  0.06310  1.0000
  P   P134      1.0  0.69693  0.83392  0.14797  1.0000
  H   H3197     1.0  0.68444  0.81205  0.18547  1.0000
  Fe  Fe269     1.0  0.88246  0.73563  0.20143  1.0000
  H   H3198     1.0  0.66940  0.72417  0.22738  1.0000
  S   S534      1.0  0.75950  0.90189  0.19806  1.0000
  C   C4021     1.0  0.81726  0.69479  0.23359  1.0000
  C   C4022     1.0  0.79606  0.67286  0.22360  1.0000
  C   C4023     1.0  0.68567  0.87030  0.16175  1.0000
  S   S535      1.0  0.72069  0.90120  0.23051  1.0000
  H   H3199     1.0  0.70701  0.71187  0.18507  1.0000
  C   C4024     1.0  0.56114  0.92830  0.12508  1.0000
  C   C4025     1.0  0.68433  0.81666  0.13778  1.0000
  S   S536      1.0  0.49690  0.91598  0.18638  1.0000
  C   C4026     1.0  0.80917  0.79438  0.22201  1.0000
  C   C4027     1.0  0.60166  0.98065  0.19451  1.0000
  C   C4028     1.0  0.66823  0.88479  0.09528  1.0000
  H   H3200     1.0  0.65576  0.78122  0.11507  1.0000
  H   H3201     1.0  0.54430  0.90867  0.17376  1.0000
  H   H3202     1.0  0.65883  0.95664  0.21777  1.0000
  S   S537      1.0  0.78523  0.84979  0.18534  1.0000
  H   H3203     1.0  0.81602  0.90887  0.19193  1.0000
  H   H3204     1.0  0.96318  0.66049  0.11631  1.0000
  C   C4029     1.0  0.70998  0.82350  0.16861  1.0000
  C   C4030     1.0  0.67291  0.78464  0.13829  1.0000
  C   C4031     1.0  0.68336  0.79727  0.14640  1.0000
  C   C4032     1.0  0.78168  0.80583  0.15446  1.0000
  C   C4033     1.0  0.88757  0.67357  0.18243  1.0000
  C   C4034     1.0  0.58105  0.92473  0.11836  1.0000
  C   C4035     1.0  0.62811  0.92309  0.20075  1.0000
  C   C4036     1.0  0.75375  0.75670  0.23389  1.0000
  C   C4037     1.0  0.66513  0.81581  0.23327  1.0000
  Fe  Fe270     1.0  0.60705  0.75766  0.22236  1.0000
  C   C4038     1.0  0.66544  0.84639  0.21233  1.0000
  H   H3205     1.0  0.65698  0.97105  0.11675  1.0000
  C   C4039     1.0  0.69996  0.81364  0.18507  1.0000
  H   H3206     1.0  0.57321  0.73666  0.13137  1.0000
  C   C4040     1.0  0.61951  0.90806  0.21321  1.0000
  H   H3207     1.0  0.49890  0.68365  0.23749  1.0000
  C   C4041     1.0  0.77993  0.80894  0.13438  1.0000
  C   C4042     1.0  0.62413  0.94491  0.14663  1.0000
  C   C4043     1.0  0.65576  0.88585  0.11271  1.0000
  Fe  Fe271     1.0  0.76132  0.86895  0.20162  1.0000
  H   H3208     1.0  0.55406  0.91760  0.13545  1.0000
  H   H3209     1.0  0.66122  0.98258  0.14842  1.0000
  H   H3210     1.0  0.87674  0.67930  0.05337  1.0000
  C   C4044     1.0  0.71273  0.97360  0.14655  1.0000
  H   H3211     1.0  0.58539  0.96480  0.08529  1.0000
  H   H3212     1.0  0.73746  0.83542  0.15744  1.0000
  C   C4045     1.0  0.79443  0.82851  0.19955  1.0000
  S   S538      1.0  0.63852  0.76421  0.22112  1.0000
  H   H3213     1.0  0.71413  0.97327  0.21807  1.0000
  H   H3214     1.0  0.71959  0.96134  0.15552  1.0000
  H   H3215     1.0  0.63316  0.94734  0.11546  1.0000
  C   C4046     1.0  0.74263  0.95698  0.21546  1.0000
  C   C4047     1.0  0.97183  0.95041  0.22451  1.0000
  H   H3216     1.0  0.57146  0.98144  0.14794  1.0000
  C   C4048     1.0  0.64861  0.96545  0.13013  1.0000
  H   H3217     1.0  0.93815  0.69332  0.21171  1.0000
  H   H3218     1.0  0.79025  0.70436  0.22102  1.0000
  C   C4049     1.0  0.73926  0.81959  0.18580  1.0000
  H   H3219     1.0  0.85222  0.80214  0.23237  1.0000
  C   C4050     1.0  0.66246  0.97108  0.21162  1.0000
  C   C4051     1.0  0.81925  0.90003  0.20543  1.0000
  H   H3220     1.0  0.83922  0.91904  0.21266  1.0000
  C   C4052     1.0  0.50401  0.88751  0.11645  1.0000
  Fe  Fe272     1.0  0.62850  0.79358  0.20590  1.0000
  C   C4053     1.0  0.72941  0.80914  0.20177  1.0000
  H   H3221     1.0  0.67574  0.91074  0.21041  1.0000
  H   H3222     1.0  0.61363  0.93478  0.14559  1.0000
  H   H3223     1.0  0.65936  0.85653  0.20099  1.0000
  H   H3224     1.0  0.69046  0.79173  0.15934  1.0000
  C   C4054     1.0  0.83230  0.90570  0.21710  1.0000
  C   C4055     1.0  0.57597  0.90510  0.17205  1.0000
  C   C4056     1.0  0.64008  0.96484  0.16518  1.0000
  C   C4057     1.0  0.82373  0.66396  0.10621  1.0000
  H   H3225     1.0  0.83403  0.79355  0.19992  1.0000
  S   S539      1.0  0.85020  0.72931  0.21325  1.0000
  H   H3226     1.0  0.59866  0.85738  0.02322  1.0000
  H   H3227     1.0  0.51060  0.85566  0.17773  1.0000
  H   H3228     1.0  0.57832  0.86385  0.22991  1.0000
  C   C4058     1.0  0.97092  0.94795  0.20486  1.0000
  H   H3229     1.0  0.60521  0.93543  0.09875  1.0000
  C   C4059     1.0  0.68381  0.67098  0.20023  1.0000
  C   C4060     1.0  0.64851  0.92383  0.19970  1.0000
  H   H3230     1.0  0.60707  0.90540  0.17190  1.0000
  C   C4061     1.0  0.55733  0.91503  0.17625  1.0000
  S   S540      1.0  0.52774  0.88397  0.14596  1.0000
  H   H3231     1.0  0.60331  0.98421  0.17875  1.0000
  C   C4062     1.0  0.51108  0.98665  0.11987  1.0000
  H   H3232     1.0  0.68188  0.89153  0.09331  1.0000
  C   C4063     1.0  0.72875  0.97790  0.18853  1.0000
  P   P135      1.0  0.54400  0.97999  0.09287  1.0000
  C   C4064     1.0  0.53621  0.76140  0.17050  1.0000
  C   C4065     1.0  0.75990  0.95264  0.20325  1.0000
  C   C4066     1.0  0.55549  0.93336  0.18327  1.0000
  H   H3233     1.0  0.54101  0.94119  0.18629  1.0000
  S   S541      1.0  0.81763  0.77331  0.23685  1.0000
  S   S542      1.0  0.95461  0.67026  0.05354  1.0000
  C   C4067     1.0  0.74638  0.97387  0.17654  1.0000
  C   C4068     1.0  0.53328  0.76478  0.15056  1.0000
  C   C4069     1.0  0.76180  0.96113  0.18383  1.0000
  C   C4070     1.0  0.72840  0.68272  0.24000  1.0000
  P   P136      1.0  0.61285  0.94182  0.18723  1.0000
  C   C4071     1.0  0.68138  0.85114  0.22100  1.0000
  H   H3234     1.0  0.77179  0.94265  0.20887  1.0000
  H   H3235     1.0  0.57837  0.73007  0.16657  1.0000
  C   C4072     1.0  0.59277  0.91334  0.17513  1.0000
  H   H3236     1.0  0.52505  0.80975  0.12917  1.0000
  C   C4073     1.0  0.55241  0.74854  0.17623  1.0000
  C   C4074     1.0  0.69916  0.68269  0.19449  1.0000
  C   C4075     1.0  0.54218  0.77066  0.21798  1.0000
  C   C4076     1.0  0.57228  0.94178  0.18615  1.0000
  C   C4077     1.0  0.51217  0.83976  0.17987  1.0000
  H   H3237     1.0  0.60382  0.90720  0.21444  1.0000
  P   P137      1.0  0.51806  0.77219  0.18832  1.0000
  C   C4078     1.0  0.68062  0.82097  0.24259  1.0000
  S   S543      1.0  0.63696  0.82400  0.20706  1.0000
  C   C4079     1.0  0.57863  0.95504  0.09682  1.0000
  C   C4080     1.0  0.50402  0.86316  0.09412  1.0000
  S   S544      1.0  0.62296  0.97652  0.08104  1.0000
  C   C4081     1.0  0.86909  0.67286  0.19346  1.0000
  C   C4082     1.0  0.50552  0.97153  0.09142  1.0000
  C   C4083     1.0  0.60255  0.95700  0.22330  1.0000
  C   C4084     1.0  0.79093  0.80441  0.22794  1.0000
  Fe  Fe273     1.0  0.50305  0.90569  0.15646  1.0000
  C   C4085     1.0  0.70588  0.99139  0.15422  1.0000
  C   C4086     1.0  0.80020  0.69182  0.22567  1.0000
  C   C4087     1.0  0.92872  0.68413  0.22147  1.0000
  H   H3238     1.0  0.58953  0.91136  0.12372  1.0000
  H   H3239     1.0  0.63526  0.98592  0.22383  1.0000
  C   C4088     1.0  0.65127  0.89538  0.22376  1.0000
  C   C4089     1.0  0.81808  0.67213  0.12389  1.0000
  H   H3240     1.0  0.52070  0.77431  0.14588  1.0000
  H   H3241     1.0  0.96705  0.98996  0.23856  1.0000
  H   H3242     1.0  0.73142  0.69012  0.22537  1.0000
  H   H3243     1.0  0.55426  0.94465  0.03377  1.0000
  C   C4090     1.0  0.52517  0.98557  0.17236  1.0000
  H   H3244     1.0  0.55323  0.94708  0.06911  1.0000
  S   S545      1.0  0.89286  0.71862  0.23036  1.0000
  C   C4091     1.0  0.72718  0.96975  0.20823  1.0000
  C   C4092     1.0  0.55887  0.98767  0.15695  1.0000
  Fe  Fe274     1.0  0.75360  0.89960  0.23116  1.0000
  C   C4093     1.0  0.63110  0.89419  0.22453  1.0000
  C   C4094     1.0  0.70092  0.98646  0.11542  1.0000
  H   H3245     1.0  0.54461  0.75907  0.12108  1.0000
  C   C4095     1.0  0.55014  0.94549  0.11808  1.0000
  H   H3246     1.0  0.71654  0.95787  0.12104  1.0000
  C   C4096     1.0  0.98797  0.94775  0.19166  1.0000
  C   C4097     1.0  0.55876  0.95901  0.10385  1.0000
  C   C4098     1.0  0.65098  0.97195  0.14797  1.0000
  H   H3247     1.0  0.82803  0.67355  0.09325  1.0000
  Fe  Fe275     1.0  0.84665  0.75514  0.23045  1.0000
  H   H3248     1.0  0.55237  0.77768  0.20687  1.0000
  H   H3249     1.0  0.52075  0.99242  0.12848  1.0000
  C   C4099     1.0  0.54659  0.75591  0.13652  1.0000
  H   H3250     1.0  0.66017  0.88488  0.23285  1.0000
  H   H3251     1.0  0.69044  0.96027  0.19734  1.0000
  C   C4100     1.0  0.96729  0.66785  0.15844  1.0000
  C   C4101     1.0  0.54690  0.97565  0.02640  1.0000
  H   H3252     1.0  0.95696  0.94625  0.19984  1.0000
  H   H3253     1.0  0.83213  0.83345  0.23630  1.0000
  C   C4102     1.0  0.66292  0.71654  0.24080  1.0000
  C   C4103     1.0  0.83620  0.89436  0.23465  1.0000
  C   C4104     1.0  0.59245  0.99134  0.22678  1.0000
  H   H3254     1.0  0.82008  0.70951  0.23523  1.0000
  H   H3255     1.0  0.65895  0.80212  0.23790  1.0000
  H   H3256     1.0  0.95849  0.95045  0.23458  1.0000
  C   C4105     1.0  0.90047  0.66570  0.22801  1.0000
  H   H3257     1.0  0.56151  0.76905  0.24050  1.0000
  C   C4106     1.0  0.64303  0.71365  0.24286  1.0000
  H   H3258     1.0  0.98184  0.66336  0.15148  1.0000
  C   C4107     1.0  0.59578  0.83665  0.23752  1.0000
  S   S546      1.0  0.68865  0.99123  0.00685  1.0000
  C   C4108     1.0  0.49994  0.82986  0.19436  1.0000
  C   C4109     1.0  0.84293  0.66367  0.02862  1.0000
  H   H3259     1.0  0.54699  0.97439  0.01091  1.0000
  S   S547      1.0  0.96060  0.67323  0.99298  1.0000
  H   H3260     1.0  0.57917  0.99079  0.10878  1.0000
  H   H3261     1.0  0.78242  0.79904  0.24128  1.0000
  S   S548      1.0  0.49932  0.93551  0.14014  1.0000
  H   H3262     1.0  0.92751  0.66166  0.11380  1.0000
  H   H3263     1.0  0.84010  0.66370  0.19543  1.0000
  H   H3264     1.0  0.49802  0.90143  0.12126  1.0000
  H   H3265     1.0  0.58561  0.98342  0.03649  1.0000
  H   H3266     1.0  0.80622  0.66688  0.15416  1.0000
  C   C4110     1.0  0.54645  0.97866  0.06667  1.0000
  C   C4111     1.0  0.68556  0.99199  0.19288  1.0000
  C   C4112     1.0  0.59608  0.97202  0.23522  1.0000
  Fe  Fe276     1.0  0.94056  0.83910  0.36171  1.0000
  S   S549      1.0  0.93031  0.81349  0.38169  1.0000
  S   S550      1.0  0.92557  0.86936  0.35404  1.0000
  H   H3267     1.0  0.90673  0.98918  0.31768  1.0000
  H   H3268     1.0  0.66009  0.68449  0.32914  1.0000
  H   H3269     1.0  0.91339  0.81993  0.31037  1.0000
  Fe  Fe277     1.0  0.94119  0.79627  0.35592  1.0000
  S   S551      1.0  0.92107  0.77562  0.34679  1.0000
  Fe  Fe278     1.0  0.96151  0.80801  0.39020  1.0000
  C   C4113     1.0  0.50661  0.74450  0.32151  1.0000
  S   S552      1.0  0.94986  0.82234  0.33571  1.0000
  H   H3270     1.0  0.99023  0.88567  0.34901  1.0000
  Fe  Fe279     1.0  0.84423  0.96243  0.34460  1.0000
  S   S553      1.0  0.81455  0.97968  0.34462  1.0000
  S   S554      1.0  0.87150  0.97048  0.32597  1.0000
  Fe  Fe280     1.0  0.83100  0.93221  0.37659  1.0000
  S   S555      1.0  0.80009  0.94735  0.38001  1.0000
  S   S556      1.0  0.84211  0.90326  0.39250  1.0000
  Fe  Fe281     1.0  0.80295  0.95020  0.34679  1.0000
  S   S557      1.0  0.77800  0.94120  0.33163  1.0000
  Fe  Fe282     1.0  0.81439  0.97560  0.37772  1.0000
  C   C4114     1.0  0.71039  0.67520  0.24561  1.0000
  S   S558      1.0  0.83292  0.93357  0.34392  1.0000
  S   S559      1.0  0.84492  0.95982  0.37706  1.0000
  C   C4115     1.0  0.53450  0.75683  0.25155  1.0000
  H   H3271     1.0  0.73178  0.69096  0.35026  1.0000
  H   H3272     1.0  0.82949  0.83297  0.41893  1.0000
  C   C4116     1.0  0.61574  0.67043  0.29149  1.0000
  S   S560      1.0  0.90975  0.75887  0.25986  1.0000
  C   C4117     1.0  0.92141  0.66673  0.25357  1.0000
  H   H3273     1.0  0.99201  0.87454  0.41497  1.0000
  H   H3274     1.0  0.68645  0.81122  0.25444  1.0000
  S   S561      1.0  0.85622  0.73842  0.25821  1.0000
  H   H3275     1.0  0.59533  0.67747  0.31680  1.0000
  C   C4118     1.0  0.64606  0.69660  0.27538  1.0000
  C   C4119     1.0  0.93470  0.75697  0.39474  1.0000
  Fe  Fe283     1.0  0.55287  0.71402  0.35866  1.0000
  S   S562      1.0  0.70727  0.84570  0.24886  1.0000
  S   S563      1.0  0.55778  0.74118  0.33685  1.0000
  Fe  Fe284     1.0  0.53730  0.69913  0.40165  1.0000
  S   S564      1.0  0.52432  0.70574  0.43262  1.0000
  P   P138      1.0  0.75872  0.66473  0.28768  1.0000
  C   C4120     1.0  0.67436  0.70975  0.25609  1.0000
  H   H3276     1.0  0.90460  0.92707  0.37839  1.0000
  S   S565      1.0  0.56690  0.70720  0.38695  1.0000
  S   S566      1.0  0.52282  0.70914  0.37422  1.0000
  H   H3277     1.0  0.61905  0.70204  0.26145  1.0000
  H   H3278     1.0  0.49853  0.69664  0.32551  1.0000
  H   H3279     1.0  0.98353  0.90748  0.39815  1.0000
  C   C4121     1.0  0.84761  0.84090  0.25952  1.0000
  C   C4122     1.0  0.86064  0.88149  0.27642  1.0000
  S   S567      1.0  0.54415  0.66772  0.39567  1.0000
  H   H3280     1.0  0.88942  0.81174  0.40146  1.0000
  C   C4123     1.0  0.87494  0.81768  0.39763  1.0000
  C   C4124     1.0  0.66233  0.85856  0.30547  1.0000
  C   C4125     1.0  0.81352  0.85332  0.33322  1.0000
  H   H3281     1.0  0.74761  0.95694  0.26550  1.0000
  C   C4126     1.0  0.92421  0.94101  0.32870  1.0000
  C   C4127     1.0  0.80727  0.69492  0.28183  1.0000
  C   C4128     1.0  0.58314  0.73875  0.27206  1.0000
  C   C4129     1.0  0.57953  0.72141  0.28418  1.0000
  C   C4130     1.0  0.57160  0.72194  0.30391  1.0000
  C   C4131     1.0  0.56710  0.73985  0.31181  1.0000
  C   C4132     1.0  0.57030  0.75723  0.29957  1.0000
  C   C4133     1.0  0.57824  0.75671  0.27981  1.0000
  H   H3282     1.0  0.58294  0.70744  0.27828  1.0000
  H   H3283     1.0  0.56912  0.70846  0.31302  1.0000
  H   H3284     1.0  0.56663  0.77118  0.30541  1.0000
  H   H3285     1.0  0.58023  0.77017  0.27047  1.0000
  H   H3286     1.0  0.87193  0.98508  0.39194  1.0000
  C   C4134     1.0  0.74375  0.67953  0.32311  1.0000
  C   C4135     1.0  0.95993  0.96640  0.28471  1.0000
  C   C4136     1.0  0.66193  0.85547  0.28592  1.0000
  H   H3287     1.0  0.92331  0.95366  0.35569  1.0000
  H   H3288     1.0  0.91242  0.94733  0.44316  1.0000
  H   H3289     1.0  0.60928  0.74869  0.31766  1.0000
  H   H3290     1.0  0.80916  0.72584  0.27411  1.0000
  H   H3291     1.0  0.98546  0.88456  0.26979  1.0000
  P   P139      1.0  0.99084  0.95600  0.25651  1.0000
  P   P140      1.0  0.63525  0.68338  0.29743  1.0000
  C   C4137     1.0  0.79821  0.86854  0.33191  1.0000
  H   H3292     1.0  0.97148  0.78084  0.32420  1.0000
  C   C4138     1.0  0.99407  0.80313  0.45088  1.0000
  H   H3293     1.0  0.81877  0.82569  0.28459  1.0000
  H   H3294     1.0  0.84491  0.97672  0.29363  1.0000
  C   C4139     1.0  0.83760  0.83318  0.38782  1.0000
  C   C4140     1.0  0.59782  0.67020  0.30359  1.0000
  H   H3295     1.0  0.74793  0.69358  0.31638  1.0000
  C   C4141     1.0  0.77784  0.93296  0.30813  1.0000
  C   C4142     1.0  0.79325  0.93520  0.29316  1.0000
  C   C4143     1.0  0.79175  0.92971  0.27438  1.0000
  C   C4144     1.0  0.77492  0.92182  0.27032  1.0000
  C   C4145     1.0  0.75985  0.91887  0.28549  1.0000
  C   C4146     1.0  0.76126  0.92456  0.30420  1.0000
  H   H3296     1.0  0.80606  0.94170  0.29586  1.0000
  H   H3297     1.0  0.80352  0.93205  0.26279  1.0000
  H   H3298     1.0  0.74678  0.91293  0.28264  1.0000
  H   H3299     1.0  0.74923  0.92279  0.31565  1.0000
  C   C4147     1.0  0.97313  0.89674  0.39940  1.0000
  C   C4148     1.0  0.98957  0.89743  0.27516  1.0000
  C   C4149     1.0  0.62135  0.72042  0.30898  1.0000
  C   C4150     1.0  0.94083  0.92538  0.35653  1.0000
  C   C4151     1.0  0.84117  0.82957  0.40749  1.0000
  H   H3300     1.0  0.98109  0.98205  0.39335  1.0000
  H   H3301     1.0  0.78609  0.89668  0.34116  1.0000
  C   C4152     1.0  0.91714  0.77239  0.32238  1.0000
  C   C4153     1.0  0.90183  0.76164  0.31935  1.0000
  C   C4154     1.0  0.89891  0.75783  0.30031  1.0000
  C   C4155     1.0  0.91150  0.76450  0.28407  1.0000
  C   C4156     1.0  0.92655  0.77556  0.28710  1.0000
  C   C4157     1.0  0.92926  0.77963  0.30607  1.0000
  H   H3302     1.0  0.89229  0.75603  0.33182  1.0000
  H   H3303     1.0  0.88726  0.74933  0.29826  1.0000
  H   H3304     1.0  0.93634  0.78085  0.27467  1.0000
  H   H3305     1.0  0.94094  0.78808  0.30805  1.0000
  C   C4158     1.0  0.90217  0.87797  0.36487  1.0000
  C   C4159     1.0  0.89185  0.86688  0.38007  1.0000
  C   C4160     1.0  0.87339  0.87467  0.38857  1.0000
  C   C4161     1.0  0.86524  0.89355  0.38187  1.0000
  C   C4162     1.0  0.87559  0.90452  0.36661  1.0000
  C   C4163     1.0  0.89396  0.89677  0.35817  1.0000
  H   H3306     1.0  0.89816  0.85242  0.38538  1.0000
  H   H3307     1.0  0.86544  0.86613  0.40038  1.0000
  H   H3308     1.0  0.86960  0.91916  0.36148  1.0000
  H   H3309     1.0  0.90191  0.90547  0.34650  1.0000
  C   C4164     1.0  0.79501  0.67985  0.28493  1.0000
  C   C4165     1.0  0.94463  0.74292  0.38311  1.0000
  C   C4166     1.0  0.50112  0.69951  0.44456  1.0000
  C   C4167     1.0  0.79787  0.88479  0.34225  1.0000
  H   H3310     1.0  0.93735  0.73821  0.37170  1.0000
  H   H3311     1.0  0.98189  0.91665  0.24991  1.0000
  H   H3312     1.0  0.84531  0.82410  0.30845  1.0000
  H   H3313     1.0  0.50625  0.74591  0.25837  1.0000
  H   H3314     1.0  0.75707  0.68511  0.24792  1.0000
  H   H3315     1.0  0.99389  0.74053  0.47254  1.0000
  C   C4168     1.0  0.94165  0.88711  0.39419  1.0000
  H   H3316     1.0  0.52407  0.71748  0.32973  1.0000
  H   H3317     1.0  0.94197  0.93786  0.42089  1.0000
  C   C4169     1.0  0.96615  0.95777  0.38815  1.0000
  H   H3318     1.0  0.91421  0.95276  0.32242  1.0000
  C   C4170     1.0  0.87151  0.82148  0.37792  1.0000
  H   H3319     1.0  0.99031  0.79991  0.26592  1.0000
  C   C4171     1.0  0.99525  0.82927  0.25416  1.0000
  H   H3320     1.0  0.95310  0.96238  0.39740  1.0000
  H   H3321     1.0  0.88351  0.81826  0.36675  1.0000
  H   H3322     1.0  0.74997  0.75908  0.24915  1.0000
  C   C4172     1.0  0.77178  0.97401  0.25562  1.0000
  C   C4173     1.0  0.92914  0.94129  0.34771  1.0000
  H   H3323     1.0  0.66255  0.80386  0.28473  1.0000
  H   H3324     1.0  0.93247  0.99211  0.39530  1.0000
  C   C4174     1.0  0.89211  0.94275  0.42324  1.0000
  C   C4175     1.0  0.99279  0.80367  0.43062  1.0000
  C   C4176     1.0  0.96722  0.94095  0.37837  1.0000
  C   C4177     1.0  0.95487  0.90137  0.39187  1.0000
  C   C4178     1.0  0.66598  0.69985  0.27336  1.0000
  H   H3325     1.0  0.77337  0.73369  0.27205  1.0000
  H   H3326     1.0  0.94969  0.89754  0.31830  1.0000
  Fe  Fe285     1.0  0.57238  0.67614  0.37902  1.0000
  C   C4179     1.0  0.66422  0.67090  0.32266  1.0000
  C   C4180     1.0  0.96412  0.73568  0.38562  1.0000
  C   C4181     1.0  0.72126  0.66217  0.27710  1.0000
  C   C4182     1.0  0.74293  0.67986  0.25287  1.0000
  C   C4183     1.0  0.98761  0.91567  0.26393  1.0000
  S   S568      1.0  0.96928  0.80385  0.42200  1.0000
  H   H3327     1.0  0.51803  0.75350  0.32324  1.0000
  P   P141      1.0  0.83121  0.86287  0.26382  1.0000
  H   H3328     1.0  0.98287  0.73121  0.44253  1.0000
  C   C4184     1.0  0.84067  0.87828  0.27917  1.0000
  C   C4185     1.0  0.82794  0.88840  0.29291  1.0000
  C   C4186     1.0  0.83514  0.90092  0.30413  1.0000
  C   C4187     1.0  0.85506  0.90372  0.30159  1.0000
  C   C4188     1.0  0.86778  0.89411  0.28762  1.0000
  C   C4189     1.0  0.65469  0.66639  0.30713  1.0000
  C   C4190     1.0  0.86271  0.83423  0.27152  1.0000
  C   C4191     1.0  0.87413  0.81634  0.26912  1.0000
  C   C4192     1.0  0.58679  0.86203  0.25918  1.0000
  C   C4193     1.0  0.94667  0.86843  0.40358  1.0000
  C   C4194     1.0  0.74754  0.66290  0.31284  1.0000
  C   C4195     1.0  0.80773  0.85558  0.27505  1.0000
  C   C4196     1.0  0.80605  0.83644  0.28409  1.0000
  C   C4197     1.0  0.78768  0.83088  0.29223  1.0000
  C   C4198     1.0  0.77089  0.84436  0.29138  1.0000
  C   C4199     1.0  0.77247  0.86342  0.28243  1.0000
  C   C4200     1.0  0.79078  0.86895  0.27423  1.0000
  H   H3329     1.0  0.92738  0.89047  0.38879  1.0000
  C   C4201     1.0  0.61192  0.70630  0.34822  1.0000
  H   H3330     1.0  0.81241  0.89823  0.36226  1.0000
  C   C4202     1.0  0.83956  0.79397  0.31159  1.0000
  H   H3331     1.0  0.97179  0.72530  0.37604  1.0000
  H   H3332     1.0  0.81236  0.88708  0.29486  1.0000
  H   H3333     1.0  0.82512  0.90869  0.31462  1.0000
  H   H3334     1.0  0.86056  0.91352  0.31029  1.0000
  H   H3335     1.0  0.83949  0.87174  0.36455  1.0000
  C   C4203     1.0  0.97803  0.87806  0.40899  1.0000
  H   H3336     1.0  0.86543  0.84241  0.28312  1.0000
  H   H3337     1.0  0.88570  0.81115  0.27844  1.0000
  C   C4204     1.0  0.90289  0.98686  0.39226  1.0000
  Fe  Fe286     1.0  0.88641  0.74580  0.24584  1.0000
  C   C4205     1.0  0.82815  0.87067  0.35525  1.0000
  H   H3338     1.0  0.53296  0.67432  0.32527  1.0000
  H   H3339     1.0  0.78642  0.81602  0.29891  1.0000
  H   H3340     1.0  0.75660  0.84000  0.29737  1.0000
  H   H3341     1.0  0.75947  0.87387  0.28146  1.0000
  H   H3342     1.0  0.79174  0.88364  0.26704  1.0000
  C   C4206     1.0  0.83559  0.77831  0.34487  1.0000
  C   C4207     1.0  0.83866  0.79572  0.35197  1.0000
  C   C4208     1.0  0.90259  0.83134  0.31568  1.0000
  C   C4209     1.0  0.90686  0.85078  0.31319  1.0000
  C   C4210     1.0  0.89321  0.86536  0.32068  1.0000
  C   C4211     1.0  0.87528  0.86056  0.33072  1.0000
  H   H3343     1.0  0.83413  0.76382  0.31919  1.0000
  H   H3344     1.0  0.83308  0.76541  0.35502  1.0000
  H   H3345     1.0  0.83853  0.79599  0.36761  1.0000
  H   H3346     1.0  0.92104  0.85447  0.30611  1.0000
  H   H3347     1.0  0.89689  0.88029  0.31948  1.0000
  H   H3348     1.0  0.86529  0.87207  0.33690  1.0000
  S   S569      1.0  0.59325  0.73702  0.24733  1.0000
  S   S570      1.0  0.97043  0.83511  0.37230  1.0000
  C   C4212     1.0  0.64880  0.84338  0.28104  1.0000
  P   P142      1.0  0.94719  0.92580  0.38108  1.0000
  H   H3349     1.0  0.64985  0.85205  0.33531  1.0000
  C   C4213     1.0  0.76697  0.70368  0.27915  1.0000
  C   C4214     1.0  0.73453  0.67811  0.34235  1.0000
  H   H3350     1.0  0.68048  0.77308  0.27485  1.0000
  C   C4215     1.0  0.97899  0.75213  0.31465  1.0000
  H   H3351     1.0  0.50765  0.70490  0.47304  1.0000
  C   C4216     1.0  0.63457  0.70388  0.26011  1.0000
  H   H3352     1.0  0.92793  0.92520  0.30328  1.0000
  C   C4217     1.0  0.94851  0.90985  0.34561  1.0000
  C   C4218     1.0  0.89004  0.93687  0.40503  1.0000
  H   H3353     1.0  0.84022  0.79320  0.29593  1.0000
  H   H3354     1.0  0.88317  0.89654  0.28543  1.0000
  C   C4219     1.0  0.84251  0.81140  0.31867  1.0000
  H   H3355     1.0  0.62284  0.67787  0.33975  1.0000
  H   H3356     1.0  0.78661  0.86784  0.32280  1.0000
  H   H3357     1.0  0.97106  0.76281  0.42181  1.0000
  Fe  Fe287     1.0  0.53116  0.67819  0.36760  1.0000
  C   C4220     1.0  0.92757  0.93834  0.41596  1.0000
  C   C4221     1.0  0.81278  0.88577  0.35400  1.0000
  S   S571      1.0  0.97141  0.78838  0.36621  1.0000
  H   H3358     1.0  0.67200  0.86224  0.27451  1.0000
  H   H3359     1.0  0.91982  0.76302  0.39230  1.0000
  C   C4222     1.0  0.91087  0.94337  0.42877  1.0000
  C   C4223     1.0  0.82868  0.85427  0.34490  1.0000
  C   C4224     1.0  0.98414  0.93604  0.36565  1.0000
  H   H3360     1.0  0.95740  0.89735  0.35209  1.0000
  C   C4225     1.0  0.57018  0.80474  0.32465  1.0000
  C   C4226     1.0  0.57776  0.79111  0.33922  1.0000
  C   C4227     1.0  0.59807  0.78650  0.33906  1.0000
  C   C4228     1.0  0.61082  0.79530  0.32420  1.0000
  C   C4229     1.0  0.60332  0.80882  0.30934  1.0000
  C   C4230     1.0  0.58287  0.81349  0.30968  1.0000
  P   P143      1.0  0.61999  0.81789  0.28895  1.0000
  C   C4231     1.0  0.63619  0.83398  0.29575  1.0000
  C   C4232     1.0  0.63384  0.79605  0.28058  1.0000
  C   C4233     1.0  0.65435  0.79288  0.28059  1.0000
  C   C4234     1.0  0.66461  0.77530  0.27518  1.0000
  C   C4235     1.0  0.65443  0.76069  0.27006  1.0000
  C   C4236     1.0  0.63399  0.76357  0.27042  1.0000
  C   C4237     1.0  0.62374  0.78115  0.27574  1.0000
  C   C4238     1.0  0.60664  0.83206  0.27010  1.0000
  C   C4239     1.0  0.59704  0.85063  0.27358  1.0000
  H   H3361     1.0  0.97576  0.98960  0.34020  1.0000
  C   C4240     1.0  0.51624  0.75280  0.24705  1.0000
  C   C4241     1.0  0.98203  0.96905  0.38582  1.0000
  H   H3362     1.0  0.97984  0.83373  0.25266  1.0000
  H   H3363     1.0  0.55440  0.80807  0.32470  1.0000
  H   H3364     1.0  0.56787  0.78383  0.35043  1.0000
  H   H3365     1.0  0.60388  0.77580  0.35028  1.0000
  H   H3366     1.0  0.62651  0.79118  0.32400  1.0000
  H   H3367     1.0  0.57658  0.82341  0.29821  1.0000
  H   H3368     1.0  0.80152  0.66495  0.28811  1.0000
  H   H3369     1.0  0.62607  0.75230  0.26630  1.0000
  H   H3370     1.0  0.60792  0.78320  0.27612  1.0000
  H   H3371     1.0  0.64871  0.84111  0.26579  1.0000
  H   H3372     1.0  0.62675  0.83049  0.32694  1.0000
  H   H3373     1.0  0.59751  0.85629  0.28746  1.0000
  H   H3374     1.0  0.73510  0.97638  0.29313  1.0000
  C   C4242     1.0  0.58260  0.66070  0.29866  1.0000
  H   H3375     1.0  0.87062  0.87454  0.26533  1.0000
  H   H3376     1.0  0.90729  0.97463  0.38372  1.0000
  H   H3377     1.0  0.98236  0.66652  0.41474  1.0000
  C   C4243     1.0  0.90668  0.93218  0.39210  1.0000
  C   C4244     1.0  0.83615  0.77740  0.32470  1.0000
  C   C4245     1.0  0.61289  0.73333  0.32252  1.0000
  C   C4246     1.0  0.60804  0.72625  0.34210  1.0000
  H   H3378     1.0  0.96608  0.95451  0.29454  1.0000
  C   C4247     1.0  0.62535  0.70035  0.31502  1.0000
  C   C4248     1.0  0.79949  0.71428  0.27708  1.0000
  P   P144      1.0  0.84829  0.83444  0.34740  1.0000
  H   H3379     1.0  0.75137  0.70736  0.27813  1.0000
  C   C4249     1.0  0.96865  0.97039  0.26543  1.0000
  C   C4250     1.0  0.73945  0.66963  0.27157  1.0000
  H   H3380     1.0  0.98074  0.80331  0.46091  1.0000
  H   H3381     1.0  0.82298  0.69152  0.28253  1.0000
  H   H3382     1.0  0.81282  0.98282  0.43079  1.0000
  H   H3383     1.0  0.77732  0.96526  0.24373  1.0000
  H   H3384     1.0  0.60070  0.73610  0.35241  1.0000
  C   C4251     1.0  0.96485  0.86389  0.41100  1.0000
  S   S572      1.0  0.77292  0.91739  0.24575  1.0000
  C   C4252     1.0  0.94425  0.76377  0.40890  1.0000
  H   H3385     1.0  0.67511  0.69471  0.28501  1.0000
  C   C4253     1.0  0.97378  0.74238  0.39991  1.0000
  C   C4254     1.0  0.62046  0.69337  0.33476  1.0000
  H   H3386     1.0  0.86266  0.81929  0.42764  1.0000
  C   C4255     1.0  0.88294  0.99278  0.39683  1.0000
  H   H3387     1.0  0.67261  0.86788  0.30920  1.0000
  H   H3388     1.0  0.62419  0.72608  0.29377  1.0000
  C   C4256     1.0  0.94410  0.90991  0.32636  1.0000
  C   C4257     1.0  0.87087  0.84105  0.33336  1.0000
  C   C4258     1.0  0.88476  0.82643  0.32584  1.0000
  H   H3389     1.0  0.81331  0.84088  0.32522  1.0000
  H   H3390     1.0  0.82299  0.83906  0.38436  1.0000
  C   C4259     1.0  0.77474  0.68410  0.28357  1.0000
  S   S573      1.0  0.85230  0.68250  0.24891  1.0000
  H   H3391     1.0  0.98277  0.85509  0.33766  1.0000
  H   H3392     1.0  0.96686  0.74596  0.32387  1.0000
  C   C4260     1.0  0.93182  0.92542  0.31796  1.0000
  Fe  Fe288     1.0  0.97889  0.81618  0.34788  1.0000
  C   C4261     1.0  0.96374  0.75661  0.41140  1.0000
  H   H3393     1.0  0.93683  0.77516  0.41751  1.0000
  H   H3394     1.0  0.60792  0.70073  0.36335  1.0000
  H   H3395     1.0  0.97492  0.70243  0.41329  1.0000
  H   H3396     1.0  0.68975  0.71216  0.25449  1.0000
  C   C4262     1.0  0.51001  0.72416  0.32528  1.0000
  S   S574      1.0  0.56003  0.68344  0.35006  1.0000
  H   H3397     1.0  0.88221  0.81111  0.32830  1.0000
  C   C4263     1.0  0.77933  0.71866  0.27580  1.0000
  H   H3398     1.0  0.93645  0.85744  0.40499  1.0000
  C   C4264     1.0  0.64955  0.84957  0.32016  1.0000
  C   C4265     1.0  0.84234  0.81236  0.33886  1.0000
  H   H3399     1.0  0.92477  0.66269  0.26853  1.0000
  C   C4266     1.0  0.63650  0.83729  0.31535  1.0000
  C   C4267     1.0  0.85984  0.82188  0.41240  1.0000
  C   C4268     1.0  0.85284  0.82949  0.37285  1.0000
  C   C4269     1.0  0.92562  0.93345  0.39719  1.0000
  H   H3400     1.0  0.96871  0.84933  0.41822  1.0000
  H   H3401     1.0  0.93773  0.97595  0.30709  1.0000
  H   H3402     1.0  0.66238  0.74719  0.26570  1.0000
  C   C4270     1.0  0.98147  0.77186  0.31474  1.0000
  H   H3403     1.0  0.53877  0.75283  0.26623  1.0000
  C   C4271     1.0  0.94356  0.97841  0.29189  1.0000
  H   H3404     1.0  0.59372  0.96868  0.25099  1.0000
  H   H3405     1.0  0.87919  0.79093  0.25320  1.0000
  H   H3406     1.0  0.81027  0.98449  0.28725  1.0000
  H   H3407     1.0  0.57941  0.87633  0.26196  1.0000
  H   H3408     1.0  0.87914  0.94640  0.43322  1.0000
  C   C4272     1.0  0.74794  0.98027  0.28345  1.0000
  C   C4273     1.0  0.96035  0.98629  0.25333  1.0000
  C   C4274     1.0  0.99320  0.93230  0.27079  1.0000
  H   H3409     1.0  0.68611  0.66105  0.34248  1.0000
  H   H3410     1.0  0.98784  0.98012  0.30338  1.0000
  H   H3411     1.0  0.87551  0.93557  0.40106  1.0000
  C   C4275     1.0  0.87858  0.99109  0.33465  1.0000
  C   C4276     1.0  0.70682  0.66496  0.26413  1.0000
  H   H3412     1.0  0.94608  0.68353  0.24549  1.0000
  C   C4277     1.0  0.98970  0.69625  0.40858  1.0000
  C   C4278     1.0  0.75500  0.96929  0.26790  1.0000
  S   S575      1.0  0.50712  0.66245  0.36013  1.0000
  H   H3413     1.0  0.98525  0.92326  0.35773  1.0000
  C   C4279     1.0  0.78154  0.98974  0.25890  1.0000
  H   H3414     1.0  0.56886  0.66071  0.30811  1.0000
  C   C4280     1.0  0.87046  0.80486  0.25493  1.0000
  C   C4281     1.0  0.49686  0.70026  0.46493  1.0000
  H   H3415     1.0  0.99018  0.72515  0.30264  1.0000
  C   C4282     1.0  0.60615  0.82524  0.25184  1.0000
  C   C4283     1.0  0.99207  0.74048  0.30264  1.0000
  H   H3416     1.0  0.53856  0.66194  0.29248  1.0000
  C   C4284     1.0  0.83946  0.99162  0.28858  1.0000
  C   C4285     1.0  0.52456  0.66310  0.32210  1.0000
  H   H3417     1.0  0.63149  0.66136  0.26441  1.0000
  C   C4286     1.0  0.61803  0.66104  0.27427  1.0000
  C   C4287     1.0  0.99389  0.67587  0.40956  1.0000
  H   H3418     1.0  0.61405  0.81141  0.24829  1.0000
  H   H3419     1.0  0.79449  0.99332  0.24923  1.0000
  H   H3420     1.0  0.84615  0.89930  0.24346  1.0000
  C   C4288     1.0  0.85536  0.81124  0.24312  1.0000
  C   C4289     1.0  0.84401  0.82915  0.24536  1.0000
  C   C4290     1.0  0.90923  0.98136  0.69792  1.0000
  C   C4291     1.0  0.97197  0.97155  0.68104  1.0000
  H   H3421     1.0  0.89676  0.94467  0.73304  1.0000
  C   C4292     1.0  0.52547  0.87459  0.73945  1.0000
  C   C4293     1.0  0.50930  0.96097  0.70777  1.0000
  C   C4294     1.0  0.51472  0.96226  0.74151  1.0000
  C   C4295     1.0  0.51768  0.96941  0.72174  1.0000
  H   H3422     1.0  0.52635  0.98161  0.71735  1.0000
  C   C4296     1.0  0.89807  0.96732  0.70874  1.0000
  H   H3423     1.0  0.51164  0.96653  0.69244  1.0000
  C   C4297     1.0  0.90542  0.95557  0.72471  1.0000
  H   H3424     1.0  0.50419  0.86389  0.70062  1.0000
  C   C4298     1.0  0.92786  0.98374  0.70303  1.0000
  H   H3425     1.0  0.90325  0.99018  0.68557  1.0000
  H   H3426     1.0  0.92967  0.94871  0.74223  1.0000
  H   H3427     1.0  0.96032  0.96374  0.67759  1.0000
  H   H3428     1.0  0.99153  0.98739  0.62203  1.0000
  C   C4299     1.0  0.49781  0.94548  0.71362  1.0000
  H   H3429     1.0  0.99467  0.94834  0.67401  1.0000
  C   C4300     1.0  0.92394  0.95785  0.72988  1.0000
  C   C4301     1.0  0.96777  0.99059  0.68674  1.0000
  H   H3430     1.0  0.94949  0.97346  0.72327  1.0000
  H   H3431     1.0  0.88373  0.96551  0.70469  1.0000
  C   C4302     1.0  0.93514  0.97187  0.71909  1.0000
  H   H3432     1.0  0.53253  0.85237  0.71960  1.0000
  C   C4303     1.0  0.99132  0.96265  0.67926  1.0000
  C   C4304     1.0  0.52241  0.86483  0.72368  1.0000
  H   H3433     1.0  0.95659  0.99122  0.64905  1.0000
  C   C4305     1.0  0.50641  0.87130  0.71302  1.0000
  C   C4306     1.0  0.54613  0.88230  0.96958  1.0000
  H   H3434     1.0  0.53800  0.86975  0.74757  1.0000
  H   H3435     1.0  0.54540  0.91303  0.95965  1.0000
  C   C4307     1.0  0.50308  0.94693  0.74744  1.0000
  H   H3436     1.0  0.50617  0.85712  0.98110  1.0000
  H   H3437     1.0  0.50934  0.91815  0.95983  1.0000
  H   H3438     1.0  0.54228  0.85219  0.97996  1.0000
  C   C4308     1.0  0.99542  0.66554  0.90087  1.0000
  H   H3439     1.0  0.64628  0.97599  0.97491  1.0000
  H   H3440     1.0  0.99391  0.67920  0.89142  1.0000
  C   C4309     1.0  0.53506  0.86655  0.97539  1.0000
  C   C4310     1.0  0.53675  0.90082  0.96390  1.0000
  H   H3441     1.0  0.49806  0.86087  0.94655  1.0000
  H   H3442     1.0  0.50108  0.94169  0.76285  1.0000
  H   H3443     1.0  0.56195  0.88019  0.96992  1.0000
  C   C4311     1.0  0.51458  0.86939  0.97599  1.0000
  C   C4312     1.0  0.68808  0.98964  0.96664  1.0000
  H   H3444     1.0  0.60911  0.98656  0.89335  1.0000
  H   H3445     1.0  0.53625  0.97572  0.88906  1.0000
  C   C4313     1.0  0.50501  0.88789  0.97020  1.0000
  H   H3446     1.0  0.96426  0.66511  0.90877  1.0000
  H   H3447     1.0  0.69258  0.97410  0.96929  1.0000
  H   H3448     1.0  0.51515  0.89834  0.75676  1.0000
  C   C4314     1.0  0.51626  0.90364  0.96411  1.0000
  H   H3449     1.0  0.52118  0.96889  0.75232  1.0000
  H   H3450     1.0  0.69021  0.98979  0.93512  1.0000
  H   H3451     1.0  0.97981  0.67820  0.95353  1.0000
  H   H3452     1.0  0.59599  0.98711  0.96602  1.0000
  C   C4315     1.0  0.55334  0.98601  0.86248  1.0000
  H   H3453     1.0  0.50146  0.79816  0.95698  1.0000
  S   S576      1.0  0.51334  0.81432  0.98963  1.0000
  C   C4316     1.0  0.98590  0.67215  0.98368  1.0000
  H   H3454     1.0  0.54622  0.97813  0.85317  1.0000
  H   H3455     1.0  0.64525  0.98051  0.88696  1.0000
  C   C4317     1.0  0.54771  0.98473  0.88269  1.0000
  C   C4318     1.0  0.99119  0.67552  0.96332  1.0000
  C   C4319     1.0  0.64003  0.99092  0.97101  1.0000
  H   H3456     1.0  0.64492  0.98881  0.93991  1.0000
  C   C4320     1.0  0.51246  0.89072  0.74467  1.0000
