data_image0
_chemical_formula_structural       HCHFeS2FeS2FeS2FeSFeS3FeS2CHCHC6H4C2FeH2CHC6H4C3HC2H2SC3HPCH2C3HC7HC3HC3HSCH5CHCH3C2H2C3HC3HC3H6CHCH2CHC2HC2H5CH2C3HC2HC3HC2H3CHCH4CHCHCH2CHCH7C2HCHC3SCSCHC3HC10H3CPHC2H4FeH3C2HC3HPC3HC3HCHPC3HC13H2C2H3C2HCH2C2H2C2H4CH2CHCHCHC2HC3HCH2C3FeS2FeS2FeS2FeSFeS3FeS2HFeS2FeS2Fe2S3CSHFeSPC6H8C9H3C3H2C6H4C6HC10H4SC4HSH2CHC6H3CH2CPHC3H2CHCH3PC8H8C3H3PC2HC4H3SC2SHFeCHC3HSHC2H4SC3H2SH4CPCHC3HC5HC7HCHC2HC5HCHCH2C4H4C2HC2HCH3C2HCH3CH2CHCHCSPC2H2C2HC2HC3HCHC2H4C3HCH3C2H2CH2CH2C3HC2HCHC2FeH2C2H2CH2C4HC2H3C3HC2H2CH3C3HCHC2HC2FeCH4C4FeH2CHC3H2CHC2HC2HCHC4SCFeSHFeS2FeS2FeSFeS3FeS2FeS2FeSFeS3C2SC7H2CHCHC9H5C6H4CHCHC2H3CH2CHCPC5HC12PHC2HCHC3H4CH6C2HCH3CH2C2HC3PCHCHCHSC8H2C3H2CHC2H6CH2CHC3HCHCHCHCHCHC3HCHCH3C2FeC2H2CHC2HCH5C3PH5C2HCH4CHFeH2CSCH2CHFeH2CH2SC2HCHCH2CHCHCH2CHC2HPCHCH2CHC7HCHCHC2HC4PCHC2H2C3PH5CH2CH2C2HC4HC4H3CHCHCH2CFeSFeS2FeS3C4H3C6HC6H4PC17H11C6H4C6H2CH2PHSC2HFeHFeC3H2C6HCH2CH3C2HC4H2SH2C2H2C3H2FeH2CHCSH2CHCHCHCHPH5CH3SC2SCH3C2SCH2C2HC3H2C4HC2HC4HCH3C3H3SCSC2H2CHCH2CHCPCH3C2FeHC3HCFeHCFeSHCHC2H2CHCH2CH2SCSCHSCS2C2HCSC3H2FeCHSCHPCSC5HC2PC2H4CHCHC2H4FeC3SFeS2C6H4CHSH2C2HCHC3H2C2SH2C2HC3HCH2CHCHCH2PCFeHC2SH3C2HFeCHCHCHCHCHCPCHCHC2SHC2HC2HC3HC2H3CH2C2HC2HC3HCHC2HFeCH3CH4CFeS2CHSFeS2CHCHC6H6CHC5HCH2CFeCH3CH2CH4CSCH3CH2CHC2PHCHCH2CHC2HPHCHC4HC3H3C4H2C2SH2C2HC2HPC7H2CHCHCSC2HCH2C4HCHFeS2FeS2CS2FeSHCFeS2FeS2FeSFeS3C7H3C6H4CH2C5HCH5C7H4CFeC4H3C3HC2SC3H2CH2C2FeC2HCHSH2CH2C4H2C5H3CH2C9PC18H21CHSC7HC4HC2HCHC5H4CPH2C3H2CH3C3HPC3H2CHPHC4HSHCH2C2SHCHCH2C2H2CH3C2HC2HC2H2CH3CH3CHCHC2HC2H2SFeH2FeH3C2H2CHFeCHPSHCH2CHC3HC3HCH3C2H2C4PC4HCHC2H2CSCH3C2H2C3H2C4HC7HCH2CHCHC2H2CHCHC3H2C2H8CFeS2FeS2FeSFeS3FeCSCHSFeS2FeS2FeSFeS3C7H4C6H4C6H6C2H2CHCH2C2HSH3CH3C3HFeCHC2H5C13PHC2H6C9H5C2H3C2HC2H6C2H2CH2C3H2CH2C2H2C3H2C3HC2H2PHCHC2H2SHC4H2C6PC4H2CH2CHC6H2CHCHCHC3H2C4HSHCHCH2CHC2HC6PFeSHFeS2FeS2FeSFeS3H2CFeS2FeS2FeSFeSFeS3HS2FeSC9SH2C6PH2C7H4CH2C3HCH2C6H5CHC3H2CH2C9H5C2SH4C2HCPC2PC16HFeH6CH5CHC2HPH2C2HCHCHCHCH2C2HC6HCHCHCHSHCHC2HC7HFeC3H3C2HC3SC3H3CSC5H2C3HC2H8CHCH3C4HCHFeHCH2CHC2HCH3C4HCHC2H2C2HC2H2CH2CH3CH3CHC2HSH2FeHC2H2CHCH3CH3CHC2H2C4HFeS2HCHFeS2FeS2FeSFeS3FeS2H3CHPHCHC3PC4HPC6H5C2H3C8H4CHCHC2HC3H2CH3CH7C3H2CHC2H2C2HCHC6PC15HC2H17CHC4HCH2C2H2CH2CH2CHCHCSCHC2HCHCHCH2CHCH3CSH2CHCH3C3HCHC2HC4H2C2HC4HC2HCH2C11HC4HCPH6C5PC4H2CS2H2CHCH2C3HCHCH3
_chemical_formula_sum              "H1152 C1440 Fe96 S192 P48"
_cell_length_a       58.5682
_cell_length_b       58.5237
_cell_length_c       43.5438
_cell_angle_alpha    90.535
_cell_angle_beta     89.9758
_cell_angle_gamma    120.013

_space_group_name_H-M_alt    "P 1"
_space_group_IT_number       1

loop_
  _space_group_symop_operation_xyz
  'x, y, z'

loop_
  _atom_site_type_symbol
  _atom_site_label
  _atom_site_symmetry_multiplicity
  _atom_site_fract_x
  _atom_site_fract_y
  _atom_site_fract_z
  _atom_site_occupancy
  H   H1        1.0  0.41933  0.02001  0.15683  1.0000
  C   C1        1.0  0.00494  0.29187  0.19676  1.0000
  H   H2        1.0  0.34106  0.13751  0.00506  1.0000
  Fe  Fe1       1.0  0.18969  0.01571  0.34526  1.0000
  S   S1        1.0  0.17632  0.04660  0.34386  1.0000
  S   S2        1.0  0.22943  0.01823  0.34204  1.0000
  Fe  Fe2       1.0  0.15498  0.19941  0.32437  1.0000
  S   S3        1.0  0.17592  0.24126  0.34086  1.0000
  S   S4        1.0  0.11123  0.17667  0.31309  1.0000
  Fe  Fe3       1.0  0.20497  0.19580  0.32752  1.0000
  S   S5        1.0  0.22949  0.23836  0.34412  1.0000
  S   S6        1.0  0.22430  0.17029  0.32098  1.0000
  Fe  Fe4       1.0  0.19517  0.22805  0.37574  1.0000
  S   S7        1.0  0.19324  0.24076  0.42524  1.0000
  Fe  Fe5       1.0  0.20823  0.24811  0.30741  1.0000
  S   S8        1.0  0.22059  0.28534  0.27773  1.0000
  S   S9        1.0  0.17213  0.18550  0.36095  1.0000
  S   S10       1.0  0.18590  0.20623  0.28917  1.0000
  Fe  Fe6       1.0  0.00138  0.21745  0.33104  1.0000
  S   S11       1.0  0.04399  0.23184  0.34360  1.0000
  S   S12       1.0  0.99304  0.25095  0.33182  1.0000
  C   C2        1.0  0.99405  0.28630  0.22651  1.0000
  H   H3        1.0  0.00079  0.15738  0.36419  1.0000
  C   C3        1.0  0.10322  0.20782  0.42865  1.0000
  H   H4        1.0  0.07295  0.27642  0.39499  1.0000
  C   C4        1.0  0.09210  0.19148  0.32216  1.0000
  C   C5        1.0  0.06648  0.18087  0.31005  1.0000
  C   C6        1.0  0.05119  0.19278  0.31657  1.0000
  C   C7        1.0  0.06148  0.21526  0.33543  1.0000
  C   C8        1.0  0.08674  0.22538  0.34815  1.0000
  C   C9        1.0  0.10201  0.21363  0.34146  1.0000
  H   H5        1.0  0.05860  0.16358  0.29530  1.0000
  H   H6        1.0  0.03166  0.18479  0.30678  1.0000
  H   H7        1.0  0.09468  0.24258  0.36305  1.0000
  H   H8        1.0  0.12143  0.22171  0.35133  1.0000
  C   C10       1.0  0.23009  0.99872  0.46625  1.0000
  C   C11       1.0  0.10534  0.00155  0.20235  1.0000
  Fe  Fe7       1.0  0.97046  0.23336  0.28786  1.0000
  H   H9        1.0  0.11677  0.29342  0.47943  1.0000
  H   H10       1.0  0.30902  0.29846  0.32714  1.0000
  C   C12       1.0  0.44081  0.02856  0.11425  1.0000
  H   H11       1.0  0.26471  0.10407  0.41501  1.0000
  C   C13       1.0  0.19063  0.08125  0.33840  1.0000
  C   C14       1.0  0.21675  0.09728  0.32904  1.0000
  C   C15       1.0  0.22675  0.12448  0.32403  1.0000
  C   C16       1.0  0.21086  0.13602  0.32840  1.0000
  C   C17       1.0  0.18487  0.12005  0.33821  1.0000
  C   C18       1.0  0.17484  0.09286  0.34307  1.0000
  H   H12       1.0  0.22917  0.08871  0.32535  1.0000
  H   H13       1.0  0.24690  0.13664  0.31652  1.0000
  H   H14       1.0  0.17234  0.12854  0.34145  1.0000
  H   H15       1.0  0.15457  0.08064  0.35012  1.0000
  C   C19       1.0  0.20165  0.00034  0.23482  1.0000
  C   C20       1.0  0.31210  0.01994  0.13784  1.0000
  C   C21       1.0  0.19372  0.31184  0.17032  1.0000
  H   H16       1.0  0.11072  0.22875  0.43158  1.0000
  C   C22       1.0  0.20150  0.23312  0.46161  1.0000
  C   C23       1.0  0.21543  0.21959  0.46465  1.0000
  H   H17       1.0  0.00504  0.27625  0.18349  1.0000
  H   H18       1.0  0.22118  0.21300  0.44435  1.0000
  S   S13       1.0  0.17976  0.99529  0.39076  1.0000
  C   C24       1.0  0.24721  0.09326  0.45998  1.0000
  C   C25       1.0  0.31262  0.15006  0.99907  1.0000
  C   C26       1.0  0.00808  0.20440  0.21892  1.0000
  H   H19       1.0  0.21177  0.30891  0.12842  1.0000
  P   P1        1.0  0.08334  0.26711  0.22144  1.0000
  C   C27       1.0  0.11006  0.26859  0.24401  1.0000
  H   H20       1.0  0.25398  0.14984  0.46461  1.0000
  H   H21       1.0  0.13822  0.21424  0.40485  1.0000
  C   C28       1.0  0.99870  0.30013  0.45526  1.0000
  C   C29       1.0  0.11461  0.11626  0.45900  1.0000
  C   C30       1.0  0.98487  0.22087  0.46828  1.0000
  H   H22       1.0  0.04359  0.28407  0.12125  1.0000
  C   C31       1.0  0.13163  0.26859  0.22970  1.0000
  C   C32       1.0  0.15230  0.27007  0.24734  1.0000
  C   C33       1.0  0.15132  0.27087  0.27931  1.0000
  C   C34       1.0  0.12953  0.26976  0.29375  1.0000
  C   C35       1.0  0.10888  0.26842  0.27625  1.0000
  C   C36       1.0  0.05525  0.23425  0.22423  1.0000
  C   C37       1.0  0.02989  0.22983  0.21744  1.0000
  H   H23       1.0  0.12788  0.18808  0.47423  1.0000
  C   C38       1.0  0.35422  0.22541  0.41508  1.0000
  C   C39       1.0  0.03644  0.18755  0.23475  1.0000
  C   C40       1.0  0.05839  0.21291  0.23289  1.0000
  H   H24       1.0  0.30453  0.08747  0.02548  1.0000
  C   C41       1.0  0.30720  0.07082  0.02058  1.0000
  C   C42       1.0  0.14139  0.02171  0.15404  1.0000
  C   C43       1.0  0.42203  0.01200  0.13548  1.0000
  H   H25       1.0  0.33799  0.27999  0.43774  1.0000
  S   S14       1.0  0.98026  0.20063  0.28660  1.0000
  C   C44       1.0  0.97692  0.15533  0.43598  1.0000
  H   H26       1.0  0.98299  0.30368  0.44825  1.0000
  H   H27       1.0  0.32211  0.16613  0.01560  1.0000
  H   H28       1.0  0.16908  0.27030  0.23642  1.0000
  H   H29       1.0  0.16732  0.27193  0.29288  1.0000
  H   H30       1.0  0.12858  0.26969  0.31857  1.0000
  C   C45       1.0  0.25066  0.16071  0.44686  1.0000
  H   H31       1.0  0.02686  0.24604  0.21130  1.0000
  C   C46       1.0  0.05024  0.30006  0.27605  1.0000
  H   H32       1.0  0.15347  0.13135  0.39561  1.0000
  H   H33       1.0  0.03891  0.17128  0.24211  1.0000
  H   H34       1.0  0.07764  0.21573  0.23861  1.0000
  C   C47       1.0  0.09280  0.27459  0.18155  1.0000
  C   C48       1.0  0.02461  0.17551  0.40445  1.0000
  H   H35       1.0  0.20548  0.15292  0.39262  1.0000
  H   H36       1.0  0.11430  0.29035  0.09611  1.0000
  C   C49       1.0  0.28501  0.23262  0.31745  1.0000
  C   C50       1.0  0.30475  0.03048  0.03811  1.0000
  C   C51       1.0  0.26170  0.28141  0.44729  1.0000
  H   H37       1.0  0.30044  0.01602  0.05588  1.0000
  C   C52       1.0  0.37355  0.24902  0.42854  1.0000
  C   C53       1.0  0.23937  0.98848  0.00515  1.0000
  C   C54       1.0  0.01130  0.18328  0.22776  1.0000
  H   H38       1.0  0.22329  0.07365  0.38740  1.0000
  C   C55       1.0  0.20074  0.06044  0.46081  1.0000
  C   C56       1.0  0.20046  0.05936  0.42869  1.0000
  C   C57       1.0  0.16156  0.15692  0.43497  1.0000
  H   H39       1.0  0.11211  0.09507  0.41712  1.0000
  H   H40       1.0  0.18443  0.25293  0.48627  1.0000
  H   H41       1.0  0.13029  0.30942  0.19191  1.0000
  H   H42       1.0  0.30124  0.04951  0.13019  1.0000
  H   H43       1.0  0.17979  0.17274  0.42582  1.0000
  H   H44       1.0  0.13363  0.23178  0.48615  1.0000
  C   C58       1.0  0.22770  0.14825  0.42902  1.0000
  H   H45       1.0  0.98365  0.22045  0.41869  1.0000
  C   C59       1.0  0.20301  0.98174  0.46990  1.0000
  H   H46       1.0  0.18238  0.04631  0.41636  1.0000
  H   H47       1.0  0.10644  0.30891  0.43134  1.0000
  C   C60       1.0  0.31423  0.02762  0.00979  1.0000
  H   H48       1.0  0.04975  0.22929  0.40683  1.0000
  C   C61       1.0  0.97432  0.22175  0.43953  1.0000
  C   C62       1.0  0.32334  0.13386  0.99297  1.0000
  H   H49       1.0  0.00230  0.21903  0.46909  1.0000
  C   C63       1.0  0.28861  0.25643  0.46861  1.0000
  C   C64       1.0  0.12500  0.30200  0.14333  1.0000
  H   H50       1.0  0.99712  0.27960  0.41330  1.0000
  H   H51       1.0  0.45276  0.04949  0.11915  1.0000
  H   H52       1.0  0.04285  0.18352  0.39164  1.0000
  H   H53       1.0  0.21337  0.12762  0.43258  1.0000
  H   H54       1.0  0.35090  0.98410  0.05286  1.0000
  C   C65       1.0  0.28405  0.22546  0.34818  1.0000
  H   H55       1.0  0.15536  0.03007  0.13540  1.0000
  H   H56       1.0  0.16489  0.17786  0.47695  1.0000
  C   C66       1.0  0.28217  0.25480  0.43729  1.0000
  C   C67       1.0  0.34845  0.98552  0.02845  1.0000
  C   C68       1.0  0.26003  0.29901  0.23301  1.0000
  H   H57       1.0  0.41751  0.01345  0.02051  1.0000
  C   C69       1.0  0.29523  0.02881  0.12788  1.0000
  C   C70       1.0  0.40680  0.98499  0.12929  1.0000
  H   H58       1.0  0.31416  0.20304  0.39909  1.0000
  C   C71       1.0  0.29381  0.25887  0.30990  1.0000
  C   C72       1.0  0.07804  0.18907  0.43912  1.0000
  C   C73       1.0  0.00076  0.16056  0.38877  1.0000
  H   H59       1.0  0.25816  0.01823  0.10654  1.0000
  C   C74       1.0  0.44821  0.00322  0.01668  1.0000
  C   C75       1.0  0.06998  0.23399  0.44997  1.0000
  H   H60       1.0  0.29833  0.24624  0.47743  1.0000
  H   H61       1.0  0.13251  0.26704  0.20504  1.0000
  H   H62       1.0  0.07055  0.25213  0.10886  1.0000
  C   C76       1.0  0.43569  0.01761  0.00928  1.0000
  H   H63       1.0  0.03838  0.29473  0.29665  1.0000
  C   C77       1.0  0.12904  0.13993  0.47570  1.0000
  H   H64       1.0  0.17150  0.03561  0.18885  1.0000
  H   H65       1.0  0.27836  0.21761  0.29954  1.0000
  H   H66       1.0  0.35899  0.21044  0.40821  1.0000
  H   H67       1.0  0.07531  0.98864  0.16732  1.0000
  C   C78       1.0  0.06894  0.16214  0.43384  1.0000
  H   H68       1.0  0.32468  0.30901  0.99254  1.0000
  C   C79       1.0  0.30113  0.05202  0.04347  1.0000
  H   H69       1.0  0.26297  0.28361  0.24231  1.0000
  C   C80       1.0  0.36525  0.00915  0.01280  1.0000
  H   H70       1.0  0.19387  0.05241  0.28212  1.0000
  H   H71       1.0  0.10694  0.03287  0.27708  1.0000
  C   C81       1.0  0.32246  0.24050  0.41900  1.0000
  H   H72       1.0  0.28694  0.19658  0.45599  1.0000
  C   C82       1.0  0.13248  0.01414  0.20865  1.0000
  H   H73       1.0  0.09691  0.09995  0.46840  1.0000
  H   H74       1.0  0.29403  0.26429  0.28611  1.0000
  H   H75       1.0  0.31707  0.01093  0.00574  1.0000
  H   H76       1.0  0.29397  0.05435  0.06552  1.0000
  H   H77       1.0  0.15080  0.11751  0.28026  1.0000
  H   H78       1.0  0.23784  0.19962  0.38411  1.0000
  H   H79       1.0  0.29106  0.31107  0.19933  1.0000
  C   C83       1.0  0.08467  0.15413  0.41820  1.0000
  C   C84       1.0  0.11431  0.00847  0.14787  1.0000
  H   H80       1.0  0.12154  0.16678  0.39507  1.0000
  C   C85       1.0  0.44433  0.01811  0.08678  1.0000
  H   H81       1.0  0.39328  0.25230  0.43223  1.0000
  C   C86       1.0  0.00673  0.28664  0.43547  1.0000
  C   C87       1.0  0.36753  0.26854  0.43681  1.0000
  C   C88       1.0  0.26554  0.20122  0.41825  1.0000
  S   S15       1.0  0.97871  0.25302  0.24006  1.0000
  C   C89       1.0  0.30454  0.99331  0.13470  1.0000
  S   S16       1.0  0.24433  0.00865  0.42929  1.0000
  C   C90       1.0  0.15290  0.15994  0.46382  1.0000
  H   H82       1.0  0.05243  0.28394  0.48087  1.0000
  C   C91       1.0  0.07734  0.26988  0.41630  1.0000
  C   C92       1.0  0.17805  0.00083  0.23308  1.0000
  C   C93       1.0  0.07592  0.25874  0.15776  1.0000
  H   H83       1.0  0.09114  0.99434  0.22088  1.0000
  C   C94       1.0  0.34213  0.26441  0.43185  1.0000
  C   C95       1.0  0.12333  0.11328  0.43009  1.0000
  C   C96       1.0  0.26848  0.28323  0.47834  1.0000
  C   C97       1.0  0.24184  0.18894  0.40148  1.0000
  C   C98       1.0  0.26275  0.98405  0.11235  1.0000
  C   C99       1.0  0.05856  0.28319  0.26417  1.0000
  C   C100      1.0  0.11718  0.29664  0.17401  1.0000
  C   C101      1.0  0.29125  0.24445  0.37172  1.0000
  C   C102      1.0  0.24687  0.09200  0.42788  1.0000
  C   C103      1.0  0.97692  0.15035  0.40454  1.0000
  H   H84       1.0  0.07732  0.13342  0.41330  1.0000
  H   H85       1.0  0.03142  0.26959  0.42976  1.0000
  H   H86       1.0  0.22190  0.99206  0.04691  1.0000
  C   C104      1.0  0.27076  0.01099  0.11483  1.0000
  P   P2        1.0  0.05613  0.19908  0.45611  1.0000
  H   H87       1.0  0.98601  0.30303  0.26636  1.0000
  C   C105      1.0  0.10185  0.27934  0.46389  1.0000
  C   C106      1.0  0.26939  0.18717  0.44175  1.0000
  H   H88       1.0  0.30791  0.28620  0.38146  1.0000
  H   H89       1.0  0.18867  0.11726  0.25547  1.0000
  H   H90       1.0  0.30454  0.98340  0.24015  1.0000
  H   H91       1.0  0.27726  0.20499  0.35336  1.0000
  Fe  Fe8       1.0  0.21793  0.99581  0.38684  1.0000
  H   H92       1.0  0.19059  0.29323  0.17913  1.0000
  H   H93       1.0  0.26134  0.26454  0.40336  1.0000
  H   H94       1.0  0.05266  0.26478  0.27585  1.0000
  C   C107      1.0  0.26815  0.26692  0.42690  1.0000
  C   C108      1.0  0.07346  0.28963  0.23704  1.0000
  H   H95       1.0  0.10996  0.07528  0.29093  1.0000
  C   C109      1.0  0.00078  0.17011  0.45183  1.0000
  C   C110      1.0  0.15047  0.02470  0.18434  1.0000
  C   C111      1.0  0.32880  0.22122  0.41012  1.0000
  H   H96       1.0  0.27254  0.98776  0.27395  1.0000
  P   P3        1.0  0.28992  0.23532  0.41150  1.0000
  C   C112      1.0  0.22354  0.07493  0.41226  1.0000
  C   C113      1.0  0.22323  0.16246  0.40653  1.0000
  C   C114      1.0  0.06414  0.24299  0.42304  1.0000
  H   H97       1.0  0.00008  0.17359  0.47612  1.0000
  C   C115      1.0  0.04729  0.30985  0.08424  1.0000
  C   C116      1.0  0.11930  0.99652  0.30289  1.0000
  C   C117      1.0  0.99380  0.29291  0.09451  1.0000
  H   H98       1.0  0.04934  0.14740  0.44100  1.0000
  C   C118      1.0  0.30116  0.27099  0.36385  1.0000
  H   H99       1.0  0.31772  0.98645  0.14222  1.0000
  P   P4        1.0  0.14420  0.01971  0.24779  1.0000
  C   C119      1.0  0.14664  0.05070  0.25906  1.0000
  C   C120      1.0  0.09631  0.99846  0.17203  1.0000
  C   C121      1.0  0.02624  0.28110  0.44478  1.0000
  H   H100      1.0  0.99423  0.16372  0.22983  1.0000
  C   C122      1.0  0.02488  0.18037  0.43618  1.0000
  C   C123      1.0  0.10963  0.17291  0.40786  1.0000
  C   C124      1.0  0.30213  0.27810  0.33308  1.0000
  C   C125      1.0  0.16928  0.07478  0.25200  1.0000
  C   C126      1.0  0.17081  0.09873  0.25989  1.0000
  C   C127      1.0  0.14944  0.09889  0.27392  1.0000
  C   C128      1.0  0.12651  0.07508  0.28011  1.0000
  C   C129      1.0  0.12501  0.05107  0.27251  1.0000
  C   C130      1.0  0.17518  0.02005  0.24939  1.0000
  C   C131      1.0  0.19597  0.03825  0.26811  1.0000
  C   C132      1.0  0.21961  0.03785  0.26960  1.0000
  C   C133      1.0  0.22243  0.01886  0.25305  1.0000
  C   C134      1.0  0.12217  0.99240  0.27168  1.0000
  H   H101      1.0  0.16187  0.98587  0.21962  1.0000
  H   H102      1.0  0.38041  0.02582  0.02552  1.0000
  C   C135      1.0  0.08880  0.25237  0.47057  1.0000
  C   C136      1.0  0.14673  0.13365  0.41802  1.0000
  H   H103      1.0  0.23545  0.05179  0.28439  1.0000
  H   H104      1.0  0.25021  0.29006  0.43926  1.0000
  H   H105      1.0  0.12968  0.01612  0.31285  1.0000
  C   C137      1.0  0.11896  0.19970  0.41328  1.0000
  C   C138      1.0  0.10818  0.28606  0.11987  1.0000
  H   H106      1.0  0.18585  0.07516  0.24054  1.0000
  C   C139      1.0  0.03353  0.29146  0.10712  1.0000
  H   H107      1.0  0.33108  0.03361  0.14798  1.0000
  H   H108      1.0  0.24035  0.01784  0.25521  1.0000
  C   C140      1.0  0.42886  0.99097  0.08020  1.0000
  C   C141      1.0  0.18642  0.98325  0.14335  1.0000
  H   H109      1.0  0.99656  0.26839  0.12964  1.0000
  H   H110      1.0  0.10726  0.00639  0.12443  1.0000
  C   C142      1.0  0.09616  0.28808  0.43673  1.0000
  C   C143      1.0  0.08359  0.26453  0.12707  1.0000
  H   H111      1.0  0.98853  0.20131  0.21428  1.0000
  H   H112      1.0  0.09199  0.26693  0.28812  1.0000
  H   H113      1.0  0.05693  0.24177  0.16269  1.0000
  H   H114      1.0  0.45927  0.03122  0.07088  1.0000
  C   C144      1.0  0.99441  0.30687  0.24358  1.0000
  H   H115      1.0  0.38262  0.28700  0.44680  1.0000
  H   H116      1.0  0.23371  0.00054  0.99211  1.0000
  C   C145      1.0  0.23256  0.98347  0.03619  1.0000
  H   H117      1.0  0.18781  0.99308  0.16506  1.0000
  C   C146      1.0  0.03789  0.28909  0.47387  1.0000
  H   H118      1.0  0.18250  0.04838  0.47290  1.0000
  C   C147      1.0  0.31697  0.06821  0.99205  1.0000
  H   H119      1.0  0.26540  0.10675  0.47176  1.0000
  C   C148      1.0  0.22429  0.07706  0.47676  1.0000
  C   C149      1.0  0.24069  0.30363  0.24570  1.0000
  H   H120      1.0  0.07234  0.12520  0.47495  1.0000
  C   C150      1.0  0.00681  0.28278  0.11201  1.0000
  C   C151      1.0  0.20728  0.97978  0.13370  1.0000
  C   C152      1.0  0.00788  0.31157  0.07179  1.0000
  H   H121      1.0  0.20363  0.98498  0.22314  1.0000
  C   C153      1.0  0.01043  0.30841  0.48423  1.0000
  H   H122      1.0  0.22427  0.98638  0.14865  1.0000
  H   H123      1.0  0.02469  0.10040  0.48624  1.0000
  C   C154      1.0  0.36176  0.24076  0.74542  1.0000
  C   C155      1.0  0.28695  0.10469  0.71439  1.0000
  C   C156      1.0  0.32707  0.10354  0.70517  1.0000
  Fe  Fe9       1.0  0.98691  0.19381  0.63591  1.0000
  S   S17       1.0  0.01534  0.17915  0.64813  1.0000
  S   S18       1.0  0.99796  0.23459  0.62096  1.0000
  Fe  Fe10      1.0  0.18138  0.17777  0.65071  1.0000
  S   S19       1.0  0.22461  0.20380  0.64286  1.0000
  S   S20       1.0  0.16239  0.13358  0.65870  1.0000
  Fe  Fe11      1.0  0.17004  0.22369  0.64430  1.0000
  S   S21       1.0  0.21327  0.25285  0.63611  1.0000
  S   S22       1.0  0.14144  0.23985  0.64297  1.0000
  Fe  Fe12      1.0  0.21193  0.22113  0.60466  1.0000
  S   S23       1.0  0.22939  0.22259  0.55698  1.0000
  Fe  Fe13      1.0  0.22213  0.23290  0.67510  1.0000
  S   S24       1.0  0.24484  0.24947  0.72108  1.0000
  S   S25       1.0  0.16868  0.19339  0.61120  1.0000
  S   S26       1.0  0.17880  0.20562  0.68465  1.0000
  Fe  Fe14      1.0  0.21253  0.03064  0.65149  1.0000
  S   S27       1.0  0.24112  0.01862  0.63336  1.0000
  S   S28       1.0  0.22901  0.07503  0.64978  1.0000
  H   H124      1.0  0.12130  0.17077  0.57101  1.0000
  Fe  Fe15      1.0  0.41838  0.11171  0.87992  1.0000
  S   S29       1.0  0.41989  0.09243  0.83557  1.0000
  S   S30       1.0  0.43594  0.15688  0.88258  1.0000
  Fe  Fe16      1.0  0.39151  0.05775  0.91347  1.0000
  S   S31       1.0  0.38968  0.03553  0.87006  1.0000
  S   S32       1.0  0.38269  0.04269  0.96326  1.0000
  Fe  Fe17      1.0  0.43225  0.06797  0.86356  1.0000
  Fe  Fe18      1.0  0.37748  0.06194  0.84544  1.0000
  S   S33       1.0  0.34600  0.05836  0.81012  1.0000
  S   S34       1.0  0.43401  0.08958  0.90717  1.0000
  S   S35       1.0  0.37635  0.08182  0.88985  1.0000
  C   C157      1.0  0.28845  0.10893  0.95595  1.0000
  S   S36       1.0  0.36029  0.27889  0.86330  1.0000
  H   H125      1.0  0.30400  0.10496  0.79825  1.0000
  Fe  Fe19      1.0  0.39747  0.27650  0.86741  1.0000
  S   S37       1.0  0.38558  0.23217  0.86734  1.0000
  P   P5        1.0  0.34242  0.15719  0.77489  1.0000
  C   C158      1.0  0.42153  0.17739  0.87750  1.0000
  C   C159      1.0  0.39441  0.16703  0.87308  1.0000
  C   C160      1.0  0.38392  0.18406  0.86999  1.0000
  C   C161      1.0  0.40027  0.21176  0.87122  1.0000
  C   C162      1.0  0.42739  0.22211  0.87553  1.0000
  C   C163      1.0  0.43787  0.20506  0.87868  1.0000
  H   H126      1.0  0.38153  0.14589  0.87215  1.0000
  H   H127      1.0  0.36295  0.17568  0.86681  1.0000
  H   H128      1.0  0.44031  0.24327  0.87661  1.0000
  H   H129      1.0  0.05673  0.19115  0.72292  1.0000
  H   H130      1.0  0.43496  0.11056  0.74744  1.0000
  H   H131      1.0  0.15564  0.98878  0.53839  1.0000
  H   H132      1.0  0.26007  0.12182  0.95028  1.0000
  H   H133      1.0  0.26451  0.06669  0.49478  1.0000
  C   C164      1.0  0.42953  0.09115  0.75587  1.0000
  C   C165      1.0  0.37287  0.14002  0.95157  1.0000
  C   C166      1.0  0.26678  0.06973  0.51939  1.0000
  C   C167      1.0  0.28325  0.00838  0.73549  1.0000
  C   C168      1.0  0.29701  0.99796  0.75122  1.0000
  C   C169      1.0  0.31606  0.01276  0.77410  1.0000
  C   C170      1.0  0.32191  0.03846  0.78155  1.0000
  C   C171      1.0  0.30814  0.04894  0.76588  1.0000
  C   C172      1.0  0.28893  0.03404  0.74314  1.0000
  H   H134      1.0  0.32615  0.00420  0.78596  1.0000
  H   H135      1.0  0.31242  0.06877  0.77124  1.0000
  H   H136      1.0  0.27128  0.17124  0.56108  1.0000
  C   C173      1.0  0.21664  0.22505  0.52076  1.0000
  C   C174      1.0  0.00571  0.21474  0.73038  1.0000
  C   C175      1.0  0.16271  0.00940  0.54366  1.0000
  H   H137      1.0  0.27603  0.12363  0.88035  1.0000
  H   H138      1.0  0.00904  0.15895  0.71820  1.0000
  C   C176      1.0  0.20952  0.09029  0.64998  1.0000
  C   C177      1.0  0.18254  0.07633  0.65648  1.0000
  C   C178      1.0  0.16831  0.08983  0.65904  1.0000
  C   C179      1.0  0.18089  0.11730  0.65509  1.0000
  C   C180      1.0  0.20777  0.13109  0.64804  1.0000
  C   C181      1.0  0.22193  0.11761  0.64531  1.0000
  H   H139      1.0  0.17278  0.05526  0.66016  1.0000
  H   H140      1.0  0.14751  0.07898  0.66438  1.0000
  H   H141      1.0  0.21773  0.15214  0.64481  1.0000
  H   H142      1.0  0.24272  0.12849  0.64004  1.0000
  C   C182      1.0  0.27765  0.26275  0.73602  1.0000
  C   C183      1.0  0.30002  0.27436  0.71732  1.0000
  C   C184      1.0  0.32555  0.28616  0.73050  1.0000
  C   C185      1.0  0.32924  0.28630  0.76251  1.0000
  C   C186      1.0  0.30687  0.27384  0.78113  1.0000
  C   C187      1.0  0.28135  0.26243  0.76801  1.0000
  H   H143      1.0  0.29769  0.27507  0.69277  1.0000
  C   C188      1.0  0.41890  0.17570  0.79224  1.0000
  C   C189      1.0  0.04248  0.19764  0.72613  1.0000
  C   C190      1.0  0.22977  0.11272  0.52525  1.0000
  C   C191      1.0  0.13850  0.13568  0.53907  1.0000
  C   C192      1.0  0.05038  0.19649  0.64619  1.0000
  C   C193      1.0  0.06512  0.22390  0.64304  1.0000
  C   C194      1.0  0.09292  0.23680  0.64203  1.0000
  C   C195      1.0  0.10633  0.22250  0.64412  1.0000
  C   C196      1.0  0.09157  0.19507  0.64716  1.0000
  C   C197      1.0  0.06379  0.18220  0.64835  1.0000
  H   H144      1.0  0.05508  0.23515  0.64197  1.0000
  H   H145      1.0  0.10414  0.25803  0.63984  1.0000
  H   H146      1.0  0.10157  0.18381  0.64887  1.0000
  H   H147      1.0  0.05259  0.16101  0.65095  1.0000
  S   S38       1.0  0.41777  0.30528  0.82887  1.0000
  C   C198      1.0  0.28493  0.25102  0.93445  1.0000
  C   C199      1.0  0.30066  0.26058  0.90834  1.0000
  C   C200      1.0  0.04656  0.27986  0.70101  1.0000
  C   C201      1.0  0.13078  0.21836  0.50464  1.0000
  H   H148      1.0  0.29838  0.06098  0.52113  1.0000
  S   S39       1.0  0.36213  0.30306  0.77779  1.0000
  H   H149      1.0  0.40892  0.02275  0.79056  1.0000
  H   H150      1.0  0.45585  0.05578  0.78606  1.0000
  C   C202      1.0  0.30370  0.15691  0.85387  1.0000
  H   H151      1.0  0.45885  0.21342  0.88223  1.0000
  C   C203      1.0  0.30071  0.28072  0.89117  1.0000
  C   C204      1.0  0.99054  0.25938  0.80577  1.0000
  C   C205      1.0  0.07034  0.29346  0.65271  1.0000
  C   C206      1.0  0.15041  0.01647  0.56632  1.0000
  C   C207      1.0  0.13061  0.22600  0.53510  1.0000
  C   C208      1.0  0.05088  0.29804  0.64071  1.0000
  H   H152      1.0  0.19485  0.02304  0.51191  1.0000
  H   H153      1.0  0.27135  0.01947  0.89044  1.0000
  H   H154      1.0  0.43854  0.19256  0.79006  1.0000
  C   C209      1.0  0.44137  0.06045  0.77743  1.0000
  H   H155      1.0  0.28577  0.23621  0.94833  1.0000
  H   H156      1.0  0.31376  0.25325  0.90228  1.0000
  C   C210      1.0  0.05107  0.22436  0.73114  1.0000
  P   P6        1.0  0.32591  0.09298  0.96267  1.0000
  H   H157      1.0  0.20280  0.15063  0.50597  1.0000
  C   C211      1.0  0.41547  0.15246  0.80523  1.0000
  C   C212      1.0  0.29922  0.05446  0.86667  1.0000
  C   C213      1.0  0.19467  0.05563  0.53556  1.0000
  H   H158      1.0  0.00796  0.23695  0.78934  1.0000
  H   H159      1.0  0.13361  0.00131  0.57854  1.0000
  C   C214      1.0  0.41649  0.14571  0.95785  1.0000
  H   H160      1.0  0.36062  0.12978  0.73253  1.0000
  C   C215      1.0  0.18492  0.02887  0.52859  1.0000
  H   H161      1.0  0.15182  0.04844  0.59280  1.0000
  H   H162      1.0  0.27861  0.04242  0.73141  1.0000
  H   H163      1.0  0.33195  0.18623  0.82444  1.0000
  P   P7        1.0  0.04368  0.26754  0.73946  1.0000
  C   C216      1.0  0.21513  0.16421  0.75065  1.0000
  C   C217      1.0  0.21706  0.18806  0.76056  1.0000
  C   C218      1.0  0.19498  0.19129  0.76002  1.0000
  C   C219      1.0  0.17073  0.17076  0.74962  1.0000
  C   C220      1.0  0.16863  0.14709  0.73945  1.0000
  C   C221      1.0  0.19067  0.14378  0.73993  1.0000
  C   C222      1.0  0.26841  0.19295  0.83683  1.0000
  C   C223      1.0  0.25344  0.17692  0.81218  1.0000
  H   H164      1.0  0.21779  0.11507  0.70945  1.0000
  H   H165      1.0  0.23579  0.20458  0.76782  1.0000
  H   H166      1.0  0.19700  0.21014  0.76645  1.0000
  H   H167      1.0  0.15381  0.17354  0.74827  1.0000
  H   H168      1.0  0.15012  0.13158  0.73004  1.0000
  H   H169      1.0  0.18833  0.12545  0.73118  1.0000
  H   H170      1.0  0.25975  0.19013  0.85945  1.0000
  H   H171      1.0  0.23312  0.16182  0.81593  1.0000
  C   C224      1.0  0.16986  0.12299  0.57574  1.0000
  C   C225      1.0  0.17855  0.14926  0.56847  1.0000
  C   C226      1.0  0.16318  0.15559  0.54972  1.0000
  H   H172      1.0  0.18184  0.11821  0.59027  1.0000
  H   H173      1.0  0.19726  0.16481  0.57742  1.0000
  H   H174      1.0  0.17054  0.17605  0.54385  1.0000
  P   P8        1.0  0.11916  0.14358  0.51380  1.0000
  C   C227      1.0  0.36143  0.11386  0.96184  1.0000
  C   C228      1.0  0.37176  0.23727  0.77297  1.0000
  H   H175      1.0  0.30411  0.17146  0.86980  1.0000
  C   C229      1.0  0.00402  0.30076  0.78033  1.0000
  C   C230      1.0  0.32651  0.09267  0.89867  1.0000
  C   C231      1.0  0.03268  0.23298  0.73412  1.0000
  C   C232      1.0  0.25248  0.07763  0.56857  1.0000
  H   H176      1.0  0.40028  0.19541  0.77217  1.0000
  H   H177      1.0  0.38355  0.25411  0.78791  1.0000
  H   H178      1.0  0.33872  0.22185  0.70494  1.0000
  S   S40       1.0  0.41420  0.30912  0.90344  1.0000
  C   C233      1.0  0.36822  0.13256  0.79942  1.0000
  C   C234      1.0  0.28507  0.29150  0.90021  1.0000
  S   S41       1.0  0.98955  0.22475  0.53110  1.0000
  H   H179      1.0  0.02333  0.20360  0.55917  1.0000
  Fe  Fe20      1.0  0.23011  0.99333  0.67568  1.0000
  C   C235      1.0  0.05698  0.17170  0.54237  1.0000
  H   H180      1.0  0.38733  0.11296  0.81890  1.0000
  C   C236      1.0  0.31145  0.11329  0.97118  1.0000
  C   C237      1.0  0.03931  0.20299  0.51480  1.0000
  C   C238      1.0  0.12424  0.18400  0.55228  1.0000
  H   H181      1.0  0.46376  0.01579  0.89173  1.0000
  S   S42       1.0  0.46229  0.05456  0.85065  1.0000
  H   H182      1.0  0.12706  0.21465  0.58254  1.0000
  C   C239      1.0  0.20182  0.23764  0.51775  1.0000
  C   C240      1.0  0.28591  0.06617  0.53433  1.0000
  H   H183      1.0  0.08949  0.11877  0.56976  1.0000
  H   H184      1.0  0.40900  0.17601  0.94186  1.0000
  H   H185      1.0  0.26434  0.25341  0.78282  1.0000
  H   H186      1.0  0.30137  0.20518  0.64038  1.0000
  S   S43       1.0  0.20263  0.00639  0.69451  1.0000
  C   C241      1.0  0.14574  0.10297  0.56433  1.0000
  C   C242      1.0  0.12723  0.20877  0.55889  1.0000
  C   C243      1.0  0.28811  0.11146  0.83957  1.0000
  H   H187      1.0  0.13905  0.08263  0.57008  1.0000
  H   H188      1.0  0.04187  0.09401  0.58067  1.0000
  S   S44       1.0  0.17813  0.99919  0.62511  1.0000
  H   H189      1.0  0.32884  0.17730  0.71975  1.0000
  H   H190      1.0  0.32830  0.04398  0.96529  1.0000
  H   H191      1.0  0.30922  0.27333  0.80570  1.0000
  H   H192      1.0  0.99131  0.22123  0.73062  1.0000
  C   C244      1.0  0.06009  0.26069  0.57358  1.0000
  P   P9        1.0  0.24425  0.16082  0.75072  1.0000
  C   C245      1.0  0.26447  0.18064  0.78272  1.0000
  H   H193      1.0  0.26965  0.14243  0.70540  1.0000
  C   C246      1.0  0.39538  0.04744  0.77062  1.0000
  C   C247      1.0  0.31477  0.07795  0.92515  1.0000
  C   C248      1.0  0.06119  0.17726  0.51101  1.0000
  H   H194      1.0  0.28308  0.22858  0.67040  1.0000
  C   C249      1.0  0.04856  0.10038  0.55744  1.0000
  C   C250      1.0  0.07557  0.11425  0.55110  1.0000
  C   C251      1.0  0.18269  0.06260  0.55896  1.0000
  C   C252      1.0  0.23570  0.99918  0.52212  1.0000
  C   C253      1.0  0.29441  0.21298  0.83219  1.0000
  H   H195      1.0  0.30602  0.22565  0.85111  1.0000
  C   C254      1.0  0.32645  0.13332  0.74411  1.0000
  C   C255      1.0  0.24293  0.27398  0.84633  1.0000
  C   C256      1.0  0.22248  0.10857  0.73048  1.0000
  C   C257      1.0  0.31897  0.08084  0.86962  1.0000
  C   C258      1.0  0.23550  0.12654  0.75465  1.0000
  C   C259      1.0  0.26182  0.17423  0.71521  1.0000
  C   C260      1.0  0.27248  0.16124  0.69829  1.0000
  H   H196      1.0  0.02765  0.26762  0.56982  1.0000
  C   C261      1.0  0.05225  0.19285  0.49693  1.0000
  H   H197      1.0  0.20586  0.06849  0.71404  1.0000
  C   C262      1.0  0.16057  0.04305  0.57420  1.0000
  C   C263      1.0  0.13017  0.10924  0.54582  1.0000
  H   H198      1.0  0.43769  0.15779  0.95542  1.0000
  C   C264      1.0  0.29058  0.20093  0.77829  1.0000
  C   C265      1.0  0.30543  0.21701  0.80293  1.0000
  C   C266      1.0  0.21574  0.08213  0.73298  1.0000
  C   C267      1.0  0.02027  0.31005  0.55829  1.0000
  C   C268      1.0  0.24185  0.11753  0.78137  1.0000
  H   H199      1.0  0.29446  0.16196  0.65828  1.0000
  C   C269      1.0  0.28800  0.13003  0.85984  1.0000
  H   H200      1.0  0.21705  0.05287  0.76124  1.0000
  C   C270      1.0  0.03890  0.10401  0.50426  1.0000
  H   H201      1.0  0.29034  0.07908  0.68118  1.0000
  H   H202      1.0  0.10822  0.27591  0.81819  1.0000
  C   C271      1.0  0.09922  0.28985  0.54503  1.0000
  C   C272      1.0  0.01556  0.17945  0.72350  1.0000
  C   C273      1.0  0.26588  0.19859  0.70486  1.0000
  C   C274      1.0  0.28673  0.17237  0.67144  1.0000
  H   H203      1.0  0.25235  0.13082  0.80022  1.0000
  H   H204      1.0  0.29940  0.20492  0.75579  1.0000
  H   H205      1.0  0.32536  0.23307  0.79924  1.0000
  H   H206      1.0  0.25797  0.20904  0.71743  1.0000
  C   C275      1.0  0.22210  0.07336  0.75956  1.0000
  C   C276      1.0  0.23510  0.09103  0.78375  1.0000
  H   H207      1.0  0.29415  0.04514  0.84411  1.0000
  C   C277      1.0  0.06816  0.28430  0.68274  1.0000
  C   C278      1.0  0.07513  0.28431  0.75891  1.0000
  H   H208      1.0  0.26243  0.29348  0.49433  1.0000
  C   C279      1.0  0.06107  0.29600  0.54362  1.0000
  H   H209      1.0  0.13326  0.24530  0.54038  1.0000
  H   H210      1.0  0.38771  0.07691  0.75223  1.0000
  H   H211      1.0  0.37468  0.03308  0.77342  1.0000
  C   C280      1.0  0.30052  0.09437  0.69850  1.0000
  C   C281      1.0  0.27773  0.12515  0.96218  1.0000
  H   H212      1.0  0.27298  0.07522  0.60826  1.0000
  C   C282      1.0  0.29058  0.19663  0.66133  1.0000
  H   H213      1.0  0.23998  0.08411  0.80431  1.0000
  H   H214      1.0  0.28902  0.13170  0.74954  1.0000
  H   H215      1.0  0.97629  0.28591  0.81759  1.0000
  C   C283      1.0  0.12497  0.17639  0.52181  1.0000
  H   H216      1.0  0.11164  0.09348  0.53688  1.0000
  H   H217      1.0  0.07205  0.23825  0.73186  1.0000
  C   C284      1.0  0.28028  0.20980  0.67817  1.0000
  H   H218      1.0  0.41785  0.11141  0.97282  1.0000
  C   C285      1.0  0.25128  0.13156  0.54269  1.0000
  H   H219      1.0  0.28606  0.27119  0.51334  1.0000
  C   C286      1.0  0.35045  0.18998  0.76285  1.0000
  S   S45       1.0  0.25951  0.98849  0.70657  1.0000
  P   P10       1.0  0.22490  0.08015  0.51815  1.0000
  C   C287      1.0  0.08442  0.12283  0.52114  1.0000
  C   C288      1.0  0.27159  0.07406  0.58340  1.0000
  H   H220      1.0  0.43232  0.15126  0.81334  1.0000
  H   H221      1.0  0.04957  0.24398  0.58862  1.0000
  C   C289      1.0  0.08028  0.27213  0.78345  1.0000
  C   C290      1.0  0.08585  0.26849  0.56474  1.0000
  H   H222      1.0  0.03963  0.17649  0.58392  1.0000
  C   C291      1.0  0.28830  0.06830  0.56631  1.0000
  C   C292      1.0  0.39696  0.17738  0.78269  1.0000
  H   H223      1.0  0.19678  0.24501  0.53800  1.0000
  C   C293      1.0  0.40280  0.07221  0.75853  1.0000
  C   C294      1.0  0.03446  0.19674  0.54590  1.0000
  C   C295      1.0  0.40027  0.15594  0.95008  1.0000
  H   H224      1.0  0.97895  0.24523  0.82321  1.0000
  C   C296      1.0  0.31998  0.14678  0.80721  1.0000
  H   H225      1.0  0.06405  0.15982  0.55324  1.0000
  C   C297      1.0  0.02899  0.29292  0.65849  1.0000
  C   C298      1.0  0.99501  0.28765  0.55613  1.0000
  H   H226      1.0  0.36076  0.14815  0.94423  1.0000
  H   H227      1.0  0.34892  0.11536  0.80190  1.0000
  H   H228      1.0  0.25656  0.25377  0.96337  1.0000
  H   H229      1.0  0.32921  0.09184  0.84940  1.0000
  C   C299      1.0  0.00677  0.25466  0.78628  1.0000
  C   C300      1.0  0.06590  0.11785  0.49786  1.0000
  C   C301      1.0  0.30397  0.11974  0.81339  1.0000
  H   H230      1.0  0.99036  0.27314  0.53804  1.0000
  C   C302      1.0  0.04342  0.18124  0.55976  1.0000
  H   H231      1.0  0.33746  0.09523  0.69309  1.0000
  H   H232      1.0  0.30271  0.06493  0.57789  1.0000
  H   H233      1.0  0.34223  0.11299  0.90035  1.0000
  C   C303      1.0  0.29981  0.12404  0.73717  1.0000
  C   C304      1.0  0.39014  0.13091  0.80861  1.0000
  H   H234      1.0  0.26535  0.12699  0.55277  1.0000
  H   H235      1.0  0.34262  0.29570  0.71577  1.0000
  C   C305      1.0  0.28658  0.03998  0.89282  1.0000
  H   H236      1.0  0.27625  0.09059  0.84438  1.0000
  H   H237      1.0  0.37416  0.20989  0.80320  1.0000
  C   C306      1.0  0.25025  0.07601  0.53640  1.0000
  H   H238      1.0  0.08312  0.28032  0.69154  1.0000
  H   H239      1.0  0.31354  0.28834  0.87147  1.0000
  C   C307      1.0  0.34008  0.12307  0.72773  1.0000
  C   C308      1.0  0.36622  0.21208  0.78163  1.0000
  C   C309      1.0  0.21628  0.14520  0.51621  1.0000
  H   H240      1.0  0.26636  0.09744  0.70898  1.0000
  C   C310      1.0  0.37135  0.15595  0.78686  1.0000
  C   C311      1.0  0.23751  0.16367  0.53395  1.0000
  H   H241      1.0  0.36576  0.26033  0.73909  1.0000
  C   C312      1.0  0.29417  0.05170  0.92198  1.0000
  H   H242      1.0  0.24852  0.00555  0.54204  1.0000
  C   C313      1.0  0.31963  0.16528  0.82777  1.0000
  C   C314      1.0  0.34082  0.19375  0.73490  1.0000
  Fe  Fe21      1.0  0.38060  0.30803  0.82600  1.0000
  H   H243      1.0  0.23929  0.08147  0.58230  1.0000
  H   H244      1.0  0.19084  0.08295  0.56621  1.0000
  C   C315      1.0  0.34649  0.21906  0.72626  1.0000
  C   C316      1.0  0.99721  0.18803  0.72529  1.0000
  H   H245      1.0  0.25553  0.28834  0.93268  1.0000
  H   H246      1.0  0.21779  0.26654  0.77397  1.0000
  C   C317      1.0  0.28986  0.14575  0.98365  1.0000
  H   H247      1.0  0.06579  0.25232  0.79025  1.0000
  H   H248      1.0  0.09533  0.25787  0.57315  1.0000
  C   C318      1.0  0.26844  0.28098  0.92576  1.0000
  C   C319      1.0  0.25493  0.15685  0.54722  1.0000
  C   C320      1.0  0.26866  0.26107  0.94302  1.0000
  C   C321      1.0  0.40534  0.11962  0.96753  1.0000
  H   H249      1.0  0.01325  0.29528  0.64891  1.0000
  C   C322      1.0  0.36230  0.01160  0.98106  1.0000
  C   C323      1.0  0.03023  0.09527  0.53404  1.0000
  H   H250      1.0  0.24038  0.18325  0.53769  1.0000
  H   H251      1.0  0.07144  0.16944  0.49795  1.0000
  H   H252      1.0  0.27884  0.09314  0.93917  1.0000
  C   C324      1.0  0.21227  0.11973  0.51206  1.0000
  C   C325      1.0  0.44904  0.08529  0.76499  1.0000
  C   C326      1.0  0.97556  0.28361  0.57749  1.0000
  H   H253      1.0  0.28422  0.04010  0.94193  1.0000
  C   C327      1.0  0.04769  0.27423  0.56292  1.0000
  C   C328      1.0  0.41465  0.04160  0.78015  1.0000
  H   H254      1.0  0.97653  0.17409  0.72138  1.0000
  H   H255      1.0  0.19562  0.10553  0.49843  1.0000
  C   C329      1.0  0.02047  0.29624  0.76100  1.0000
  H   H256      1.0  0.00890  0.27856  0.70114  1.0000
  H   H257      1.0  0.00932  0.08483  0.53911  1.0000
  H   H258      1.0  0.43609  0.04775  0.98079  1.0000
  C   C330      1.0  0.02660  0.28347  0.68834  1.0000
  C   C331      1.0  0.98916  0.28240  0.80277  1.0000
  C   C332      1.0  0.97362  0.22326  0.49577  1.0000
  H   H259      1.0  0.26732  0.02034  0.48981  1.0000
  C   C333      1.0  0.22708  0.26161  0.82055  1.0000
  H   H260      1.0  0.03227  0.21516  0.50457  1.0000
  C   C334      1.0  0.98104  0.30196  0.60110  1.0000
  C   C335      1.0  0.02151  0.27286  0.76337  1.0000
  H   H261      1.0  0.37002  0.08367  0.97689  1.0000
  C   C336      1.0  0.37796  0.10380  0.96963  1.0000
  C   C337      1.0  0.46358  0.00134  0.90729  1.0000
  Fe  Fe22      1.0  0.97223  0.21464  0.57945  1.0000
  C   C338      1.0  0.34238  0.98992  0.96510  1.0000
  H   H262      1.0  0.33975  0.99143  0.94076  1.0000
  H   H263      1.0  0.21356  0.24052  0.82046  1.0000
  H   H264      1.0  0.24134  0.26210  0.86597  1.0000
  H   H265      1.0  0.05234  0.30483  0.61738  1.0000
  C   C339      1.0  0.10422  0.28550  0.79946  1.0000
  C   C340      1.0  0.03017  0.30301  0.49375  1.0000
  C   C341      1.0  0.22319  0.21585  0.49401  1.0000
  C   C342      1.0  0.22929  0.27627  0.79443  1.0000
  Fe  Fe23      1.0  0.20573  0.98525  0.60962  1.0000
  H   H266      1.0  0.25911  0.98202  0.96700  1.0000
  H   H267      1.0  0.23501  0.20650  0.49580  1.0000
  C   C343      1.0  0.24633  0.00751  0.49251  1.0000
  H   H268      1.0  0.11923  0.29591  0.53823  1.0000
  C   C344      1.0  0.20873  0.98149  0.52563  1.0000
  C   C345      1.0  0.28184  0.27067  0.48902  1.0000
  C   C346      1.0  0.12791  0.19363  0.49796  1.0000
  H   H269      1.0  0.09388  0.24582  0.49133  1.0000
  H   H270      1.0  0.45804  0.09531  0.70253  1.0000
  C   C347      1.0  0.08681  0.30342  0.53422  1.0000
  H   H271      1.0  0.42378  0.98769  0.92209  1.0000
  C   C348      1.0  0.44100  0.98547  0.92442  1.0000
  C   C349      1.0  0.24692  0.30343  0.79432  1.0000
  H   H272      1.0  0.08688  0.29655  0.63861  1.0000
  C   C350      1.0  0.26111  0.30121  0.84617  1.0000
  C   C351      1.0  0.09365  0.31051  0.75166  1.0000
  H   H273      1.0  0.03228  0.31100  0.74423  1.0000
  C   C352      1.0  0.12292  0.31129  0.79150  1.0000
  H   H274      1.0  0.28169  0.15845  0.98831  1.0000
  C   C353      1.0  0.44634  0.03729  0.98703  1.0000
  C   C354      1.0  0.32036  0.04634  0.98685  1.0000
  C   C355      1.0  0.19474  0.24203  0.48834  1.0000
  C   C356      1.0  0.43871  0.49047  0.00710  1.0000
  S   S46       1.0  0.02394  0.62395  0.11883  1.0000
  C   C357      1.0  0.97561  0.62011  0.01744  1.0000
  Fe  Fe24      1.0  0.06057  0.62142  0.12866  1.0000
  S   S47       1.0  0.05851  0.58368  0.14811  1.0000
  H   H275      1.0  0.04527  0.42018  0.99871  1.0000
  Fe  Fe25      1.0  0.04563  0.39120  0.14008  1.0000
  S   S48       1.0  0.06355  0.37713  0.10426  1.0000
  S   S49       1.0  0.02934  0.37076  0.18661  1.0000
  Fe  Fe26      1.0  0.06096  0.44332  0.10488  1.0000
  S   S50       1.0  0.08046  0.43196  0.06760  1.0000
  S   S51       1.0  0.06000  0.48154  0.09331  1.0000
  Fe  Fe27      1.0  0.04434  0.39138  0.06970  1.0000
  S   S52       1.0  0.02563  0.36922  0.02425  1.0000
  Fe  Fe28      1.0  0.09809  0.41871  0.10475  1.0000
  S   S53       1.0  0.14207  0.43186  0.11341  1.0000
  S   S54       1.0  0.02423  0.40294  0.10555  1.0000
  S   S55       1.0  0.08078  0.43260  0.14203  1.0000
  Fe  Fe29      1.0  0.33110  0.44468  0.10825  1.0000
  S   S56       1.0  0.30874  0.43363  0.06327  1.0000
  S   S57       1.0  0.36121  0.48969  0.11383  1.0000
  Fe  Fe30      1.0  0.29985  0.38614  0.12951  1.0000
  S   S58       1.0  0.27749  0.37258  0.08457  1.0000
  S   S59       1.0  0.29434  0.35467  0.16544  1.0000
  Fe  Fe31      1.0  0.31620  0.39932  0.06109  1.0000
  S   S60       1.0  0.33473  0.39695  0.01488  1.0000
  Fe  Fe32      1.0  0.27171  0.40792  0.09016  1.0000
  S   S61       1.0  0.22979  0.40014  0.07755  1.0000
  S   S62       1.0  0.33936  0.41098  0.10553  1.0000
  S   S63       1.0  0.29321  0.42085  0.13568  1.0000
  C   C358      1.0  0.19231  0.35239  0.17753  1.0000
  C   C359      1.0  0.98009  0.45332  0.02656  1.0000
  S   S64       1.0  0.02561  0.62566  0.02621  1.0000
  C   C360      1.0  0.23741  0.32394  0.23304  1.0000
  C   C361      1.0  0.39599  0.51358  0.11409  1.0000
  C   C362      1.0  0.40440  0.53956  0.10447  1.0000
  C   C363      1.0  0.43114  0.55983  0.10687  1.0000
  C   C364      1.0  0.45007  0.55476  0.11978  1.0000
  C   C365      1.0  0.44178  0.52871  0.12904  1.0000
  C   C366      1.0  0.41509  0.50829  0.12608  1.0000
  H   H276      1.0  0.38999  0.54410  0.09528  1.0000
  H   H277      1.0  0.43695  0.57947  0.09910  1.0000
  C   C367      1.0  0.18122  0.36185  0.24026  1.0000
  H   H278      1.0  0.40914  0.48866  0.13406  1.0000
  C   C368      1.0  0.99585  0.36062  0.00362  1.0000
  H   H279      1.0  0.37422  0.45235  0.02727  1.0000
  C   C369      1.0  0.41277  0.56939  0.18715  1.0000
  C   C370      1.0  0.20402  0.36090  0.14866  1.0000
  C   C371      1.0  0.20038  0.57731  0.10052  1.0000
  C   C372      1.0  0.20556  0.40892  0.08867  1.0000
  C   C373      1.0  0.18076  0.39639  0.07383  1.0000
  C   C374      1.0  0.16106  0.40283  0.08123  1.0000
  C   C375      1.0  0.16583  0.42208  0.10363  1.0000
  C   C376      1.0  0.19050  0.43433  0.11880  1.0000
  C   C377      1.0  0.21014  0.42776  0.11154  1.0000
  H   H280      1.0  0.17685  0.38177  0.05614  1.0000
  H   H281      1.0  0.14236  0.39322  0.06920  1.0000
  H   H282      1.0  0.19453  0.44919  0.13620  1.0000
  H   H283      1.0  0.22896  0.43756  0.12333  1.0000
  H   H284      1.0  0.38013  0.50225  0.18681  1.0000
  C   C378      1.0  0.05779  0.55486  0.13224  1.0000
  C   C379      1.0  0.05667  0.53548  0.15222  1.0000
  C   C380      1.0  0.05694  0.51282  0.14090  1.0000
  C   C381      1.0  0.05863  0.50926  0.10931  1.0000
  C   C382      1.0  0.05939  0.52847  0.08936  1.0000
  C   C383      1.0  0.05889  0.55099  0.10060  1.0000
  H   H285      1.0  0.05575  0.53809  0.17672  1.0000
  H   H286      1.0  0.05615  0.49829  0.15667  1.0000
  H   H287      1.0  0.06076  0.52615  0.06500  1.0000
  H   H288      1.0  0.05999  0.56567  0.08484  1.0000
  C   C384      1.0  0.17697  0.62357  0.10854  1.0000
  H   H289      1.0  0.37687  0.53944  0.16551  1.0000
  C   C385      1.0  0.17384  0.33949  0.29885  1.0000
  H   H290      1.0  0.00519  0.34803  0.24440  1.0000
  C   C386      1.0  0.18216  0.57612  0.07869  1.0000
  C   C387      1.0  0.27278  0.33505  0.19589  1.0000
  H   H291      1.0  0.99913  0.57908  0.06327  1.0000
  H   H292      1.0  0.99311  0.33806  0.11692  1.0000
  H   H293      1.0  0.11963  0.36619  0.12465  1.0000
  C   C388      1.0  0.15208  0.33549  0.28146  1.0000
  H   H294      1.0  0.02399  0.32130  0.16127  1.0000
  H   H295      1.0  0.45606  0.52430  0.13892  1.0000
  C   C389      1.0  0.01951  0.55418  0.99697  1.0000
  H   H296      1.0  1.00000  0.45188  0.09978  1.0000
  C   C390      1.0  0.27599  0.31470  0.20853  1.0000
  P   P11       1.0  0.18587  0.37400  0.20133  1.0000
  C   C391      1.0  0.15729  0.37553  0.18841  1.0000
  C   C392      1.0  0.43570  0.55323  0.21858  1.0000
  C   C393      1.0  0.03437  0.31968  0.06639  1.0000
  C   C394      1.0  0.46305  0.64035  0.13056  1.0000
  C   C395      1.0  0.21062  0.34506  0.13087  1.0000
  H   H297      1.0  0.39450  0.46182  0.07894  1.0000
  C   C396      1.0  0.45933  0.62262  0.15391  1.0000
  C   C397      1.0  0.14478  0.38473  0.20851  1.0000
  C   C398      1.0  0.12313  0.38668  0.19858  1.0000
  C   C399      1.0  0.11369  0.37937  0.16859  1.0000
  C   C400      1.0  0.12623  0.37060  0.14832  1.0000
  C   C401      1.0  0.14825  0.36913  0.15798  1.0000
  C   C402      1.0  0.21470  0.40660  0.19938  1.0000
  C   C403      1.0  0.21213  0.42910  0.19617  1.0000
  C   C404      1.0  0.23452  0.45408  0.19335  1.0000
  C   C405      1.0  0.25963  0.45686  0.19386  1.0000
  C   C406      1.0  0.26238  0.43464  0.19711  1.0000
  C   C407      1.0  0.24006  0.40960  0.19947  1.0000
  P   P12       1.0  0.45974  0.60805  0.21446  1.0000
  H   H298      1.0  0.21608  0.35696  0.30015  1.0000
  C   C408      1.0  0.43292  0.62685  0.30603  1.0000
  C   C409      1.0  0.03458  0.54450  0.01047  1.0000
  H   H299      1.0  0.20871  0.38010  0.14017  1.0000
  C   C410      1.0  0.39319  0.54341  0.18064  1.0000
  H   H300      1.0  0.97688  0.62683  0.04090  1.0000
  C   C411      1.0  0.43066  0.62373  0.25047  1.0000
  C   C412      1.0  0.15567  0.34610  0.25205  1.0000
  C   C413      1.0  0.45172  0.61879  0.30601  1.0000
  H   H301      1.0  0.15212  0.39095  0.23169  1.0000
  H   H302      1.0  0.11383  0.39425  0.21393  1.0000
  H   H303      1.0  0.09723  0.38140  0.16075  1.0000
  H   H304      1.0  0.07370  0.34672  0.22073  1.0000
  C   C414      1.0  0.45051  0.49518  0.03630  1.0000
  H   H305      1.0  0.19297  0.42755  0.19499  1.0000
  H   H306      1.0  0.23234  0.47123  0.19018  1.0000
  H   H307      1.0  0.27697  0.47615  0.19121  1.0000
  H   H308      1.0  0.28185  0.43674  0.19710  1.0000
  H   H309      1.0  0.24267  0.39258  0.20076  1.0000
  H   H310      1.0  0.17551  0.57891  0.03022  1.0000
  C   C415      1.0  0.39498  0.52235  0.19275  1.0000
  C   C416      1.0  0.09731  0.52281  0.02478  1.0000
  H   H311      1.0  0.19541  0.57476  0.12470  1.0000
  C   C417      1.0  0.99219  0.53974  0.07004  1.0000
  H   H312      1.0  0.01809  0.46662  0.04824  1.0000
  H   H313      1.0  0.41087  0.58536  0.17760  1.0000
  H   H314      1.0  0.97717  0.37085  0.03945  1.0000
  C   C418      1.0  0.44988  0.61610  0.25027  1.0000
  H   H315      1.0  0.22259  0.32778  0.24251  1.0000
  H   H316      1.0  0.23892  0.58215  0.10815  1.0000
  C   C419      1.0  0.41611  0.52725  0.21193  1.0000
  C   C420      1.0  0.09561  0.54105  0.00584  1.0000
  H   H317      1.0  0.22279  0.37678  0.24915  1.0000
  C   C421      1.0  0.11338  0.53145  0.05096  1.0000
  C   C422      1.0  0.12768  0.55842  0.05863  1.0000
  C   C423      1.0  0.12586  0.57663  0.03942  1.0000
  P   P13       1.0  0.15016  0.57004  0.09101  1.0000
  C   C424      1.0  0.13840  0.54478  0.12011  1.0000
  H   H318      1.0  0.21905  0.58642  0.01421  1.0000
  C   C425      1.0  0.46006  0.61324  0.27824  1.0000
  H   H319      1.0  0.41610  0.40518  0.99999  1.0000
  C   C426      1.0  0.23178  0.58483  0.06014  1.0000
  H   H320      1.0  0.05196  0.55765  0.02383  1.0000
  S   S65       1.0  0.07966  0.63879  0.08368  1.0000
  C   C427      1.0  0.12494  0.54606  0.14619  1.0000
  C   C428      1.0  0.11576  0.52608  0.16810  1.0000
  C   C429      1.0  0.11983  0.50465  0.16414  1.0000
  C   C430      1.0  0.13338  0.50332  0.13843  1.0000
  C   C431      1.0  0.14270  0.52330  0.11657  1.0000
  C   C432      1.0  0.15246  0.60027  0.10535  1.0000
  C   C433      1.0  0.12935  0.60109  0.11140  1.0000
  C   C434      1.0  0.97519  0.36308  0.01636  1.0000
  H   H321      1.0  0.13840  0.34154  0.23852  1.0000
  H   H322      1.0  0.45178  0.55667  0.23374  1.0000
  C   C435      1.0  0.07037  0.32945  0.23331  1.0000
  C   C436      1.0  0.22506  0.58157  0.09124  1.0000
  C   C437      1.0  0.32930  0.34724  0.00326  1.0000
  H   H323      1.0  0.13696  0.59758  0.04453  1.0000
  H   H324      1.0  0.11411  0.51684  0.06529  1.0000
  C   C438      1.0  0.10977  0.56793  0.01324  1.0000
  H   H325      1.0  0.42197  0.62520  0.22914  1.0000
  C   C439      1.0  0.43435  0.48492  0.06224  1.0000
  C   C440      1.0  0.01569  0.31740  0.18408  1.0000
  H   H326      1.0  0.12104  0.56208  0.14967  1.0000
  H   H327      1.0  0.10490  0.52692  0.18781  1.0000
  H   H328      1.0  0.11218  0.48890  0.18077  1.0000
  H   H329      1.0  0.13632  0.48655  0.13515  1.0000
  H   H330      1.0  0.15283  0.52167  0.09658  1.0000
  H   H331      1.0  0.11032  0.58352  0.10874  1.0000
  C   C441      1.0  0.98673  0.44897  0.08082  1.0000
  H   H332      1.0  0.15856  0.36387  0.14132  1.0000
  H   H333      1.0  0.25025  0.35478  0.19890  1.0000
  C   C442      1.0  0.07917  0.31288  0.22156  1.0000
  H   H334      1.0  0.45442  0.60275  0.14789  1.0000
  C   C443      1.0  0.02683  0.51777  0.00744  1.0000
  C   C444      1.0  0.39549  0.46427  0.02968  1.0000
  C   C445      1.0  0.46272  0.63069  0.18478  1.0000
  H   H335      1.0  0.31676  0.34043  0.02328  1.0000
  C   C446      1.0  0.00522  0.33241  0.23094  1.0000
  H   H336      1.0  0.17100  0.33057  0.32126  1.0000
  C   C447      1.0  0.01582  0.33791  0.20106  1.0000
  H   H337      1.0  0.02525  0.57485  0.99977  1.0000
  C   C448      1.0  0.05624  0.32323  0.26071  1.0000
  H   H338      1.0  0.17840  0.32058  0.21049  1.0000
  C   C449      1.0  0.99635  0.61771  0.00498  1.0000
  H   H339      1.0  0.00985  0.54626  0.08380  1.0000
  C   C450      1.0  0.99695  0.45719  0.05142  1.0000
  H   H340      1.0  0.98621  0.36741  0.15187  1.0000
  C   C451      1.0  0.21384  0.58394  0.03832  1.0000
  C   C452      1.0  0.18697  0.32757  0.18813  1.0000
  C   C453      1.0  0.41133  0.47482  0.00379  1.0000
  H   H341      1.0  0.19516  0.62377  0.10366  1.0000
  C   C454      1.0  0.19924  0.35447  0.28703  1.0000
  H   H342      1.0  0.04503  0.33417  0.04880  1.0000
  C   C455      1.0  0.98604  0.55824  0.05863  1.0000
  H   H343      1.0  0.08589  0.50185  0.01966  1.0000
  H   H344      1.0  0.13236  0.32365  0.29050  1.0000
  H   H345      1.0  0.98101  0.49874  0.07166  1.0000
  C   C456      1.0  0.43469  0.57450  0.20532  1.0000
  C   C457      1.0  0.25314  0.33938  0.20826  1.0000
  Fe  Fe33      1.0  0.04367  0.64239  0.07417  1.0000
  C   C458      1.0  0.20296  0.36575  0.25796  1.0000
  C   C459      1.0  0.40697  0.46946  0.05886  1.0000
  H   H346      1.0  0.44262  0.48917  0.08517  1.0000
  H   H347      1.0  0.25084  0.58795  0.05295  1.0000
  C   C460      1.0  0.34074  0.37369  0.99469  1.0000
  H   H348      1.0  0.03837  0.51041  0.01851  1.0000
  C   C461      1.0  0.18911  0.57963  0.04751  1.0000
  C   C462      1.0  0.97459  0.33032  0.12902  1.0000
  H   H349      1.0  0.22016  0.35207  0.10887  1.0000
  C   C463      1.0  0.97578  0.51294  0.06337  1.0000
  H   H350      1.0  0.10834  0.58209  0.99868  1.0000
  H   H351      1.0  0.46102  0.54683  0.05814  1.0000
  H   H352      1.0  0.04907  0.33588  0.26946  1.0000
  H   H353      1.0  0.14424  0.31837  0.13765  1.0000
  H   H354      1.0  0.41739  0.51086  0.22133  1.0000
  C   C464      1.0  0.42233  0.62923  0.27827  1.0000
  C   C465      1.0  0.20571  0.32067  0.14179  1.0000
  C   C466      1.0  0.97074  0.34710  0.14874  1.0000
  P   P14       1.0  0.99373  0.46576  0.98920  1.0000
  H   H355      1.0  0.99844  0.31997  0.05818  1.0000
  H   H356      1.0  0.08975  0.31810  0.20010  1.0000
  H   H357      1.0  0.00664  0.42529  0.00812  1.0000
  H   H358      1.0  0.46083  0.63401  0.10675  1.0000
  H   H359      1.0  0.45967  0.61659  0.32754  1.0000
  C   C467      1.0  0.00400  0.50047  0.99081  1.0000
  C   C468      1.0  0.02274  0.43992  0.99451  1.0000
  H   H360      1.0  0.11259  0.62487  0.12571  1.0000
  C   C469      1.0  0.13060  0.62459  0.12077  1.0000
  H   H361      1.0  0.40747  0.63510  0.27830  1.0000
  H   H362      1.0  0.42635  0.63097  0.32757  1.0000
  H   H363      1.0  0.08977  0.40393  0.48641  1.0000
  H   H364      1.0  0.06803  0.31677  0.08052  1.0000
  C   C470      1.0  0.04456  0.43682  0.98906  1.0000
  H   H365      1.0  0.05567  0.35704  0.48775  1.0000
  Fe  Fe34      1.0  0.43224  0.33845  0.86445  1.0000
  H   H366      1.0  0.38215  0.38778  0.82131  1.0000
  H   H367      1.0  0.97031  0.49715  0.96638  1.0000
  C   C471      1.0  0.99392  0.60849  0.97445  1.0000
  S   S66       1.0  0.39647  0.34325  0.85872  1.0000
  C   C472      1.0  0.36168  0.36427  0.95104  1.0000
  H   H368      1.0  0.08215  0.45235  0.96683  1.0000
  H   H369      1.0  0.36579  0.40237  0.96152  1.0000
  C   C473      1.0  0.45351  0.44514  0.86559  1.0000
  H   H370      1.0  0.37430  0.37105  0.93110  1.0000
  Fe  Fe35      1.0  0.37848  0.31349  0.89649  1.0000
  H   H371      1.0  0.14144  0.32165  0.80396  1.0000
  H   H372      1.0  0.08316  0.53435  0.98559  1.0000
  C   C474      1.0  0.96921  0.34228  0.95654  1.0000
  H   H373      1.0  0.98550  0.47935  0.92656  1.0000
  H   H374      1.0  0.42718  0.38971  0.82048  1.0000
  S   S67       1.0  0.35448  0.31395  0.93825  1.0000
  C   C475      1.0  0.42750  0.40735  0.97947  1.0000
  C   C476      1.0  0.32321  0.33217  0.83276  1.0000
  H   H375      1.0  0.98468  0.54459  0.97088  1.0000
  C   C477      1.0  0.26262  0.31592  0.82014  1.0000
  H   H376      1.0  0.00978  0.60654  0.96447  1.0000
  C   C478      1.0  0.06536  0.45498  0.97102  1.0000
  H   H377      1.0  0.13190  0.34397  0.76185  1.0000
  H   H378      1.0  0.24889  0.31465  0.77383  1.0000
  C   C479      1.0  0.33431  0.36242  0.87583  1.0000
  H   H379      1.0  0.01010  0.33875  0.62153  1.0000
  C   C480      1.0  0.25748  0.34396  0.89197  1.0000
  H   H380      1.0  0.27662  0.33689  0.81938  1.0000
  C   C481      1.0  0.97091  0.44695  0.95865  1.0000
  H   H381      1.0  0.45070  0.49908  0.98699  1.0000
  H   H382      1.0  0.23716  0.36513  0.90337  1.0000
  C   C482      1.0  0.45622  0.41244  0.92618  1.0000
  H   H383      1.0  0.97012  0.59559  0.93292  1.0000
  C   C483      1.0  0.02186  0.46164  0.98243  1.0000
  C   C484      1.0  0.04255  0.47950  0.96373  1.0000
  H   H384      1.0  0.42567  0.40380  0.87370  1.0000
  P   P15       1.0  0.04547  0.31434  0.53105  1.0000
  C   C485      1.0  0.38845  0.47803  0.90710  1.0000
  H   H385      1.0  0.33014  0.36771  0.89811  1.0000
  C   C486      1.0  0.27972  0.35880  0.95078  1.0000
  H   H386      1.0  0.28844  0.36464  0.97354  1.0000
  H   H387      1.0  0.12431  0.39512  0.56928  1.0000
  C   C487      1.0  0.98859  0.51021  0.97802  1.0000
  H   H388      1.0  0.04182  0.49584  0.95329  1.0000
  C   C488      1.0  0.10928  0.38667  0.55153  1.0000
  C   C489      1.0  0.99654  0.53704  0.98076  1.0000
  C   C490      1.0  0.44717  0.43017  0.93186  1.0000
  C   C491      1.0  0.42832  0.46469  0.90566  1.0000
  C   C492      1.0  0.43835  0.41041  0.82679  1.0000
  C   C493      1.0  0.08982  0.39164  0.50487  1.0000
  C   C494      1.0  0.02555  0.32859  0.58193  1.0000
  H   H389      1.0  0.45320  0.50439  0.88897  1.0000
  C   C495      1.0  0.35687  0.38200  0.96838  1.0000
  H   H390      1.0  0.37314  0.48328  0.90810  1.0000
  C   C496      1.0  0.11757  0.32383  0.76772  1.0000
  H   H391      1.0  0.42980  0.37228  0.98775  1.0000
  C   C497      1.0  0.43374  0.48992  0.89682  1.0000
  C   C498      1.0  0.25089  0.35909  0.91120  1.0000
  H   H392      1.0  0.00259  0.31842  0.77790  1.0000
  C   C499      1.0  0.43785  0.41848  0.85702  1.0000
  C   C500      1.0  0.43381  0.42820  0.95942  1.0000
  C   C501      1.0  0.06428  0.47622  0.95817  1.0000
  C   C502      1.0  0.08993  0.35998  0.55248  1.0000
  P   P16       1.0  0.45386  0.45594  0.90471  1.0000
  C   C503      1.0  0.07035  0.34889  0.52958  1.0000
  H   H393      1.0  0.12421  0.42320  0.52700  1.0000
  C   C504      1.0  0.26201  0.36651  0.94057  1.0000
  C   C505      1.0  0.99265  0.35028  0.97355  1.0000
  H   H394      1.0  0.09734  0.31981  0.51877  1.0000
  H   H395      1.0  0.41830  0.51627  0.89149  1.0000
  C   C506      1.0  0.44997  0.39164  0.94624  1.0000
  C   C507      1.0  0.35795  0.38010  0.86146  1.0000
  C   C508      1.0  0.27528  0.33614  0.90209  1.0000
  P   P17       1.0  0.28427  0.31679  0.87755  1.0000
  H   H396      1.0  0.25699  0.37827  0.95551  1.0000
  H   H397      1.0  0.08960  0.32074  0.73376  1.0000
  H   H398      1.0  0.09017  0.34801  0.57119  1.0000
  H   H399      1.0  0.08025  0.49005  0.94379  1.0000
  H   H400      1.0  0.40225  0.47109  0.98127  1.0000
  C   C509      1.0  0.35006  0.33775  0.95953  1.0000
  H   H401      1.0  0.24867  0.33847  0.86935  1.0000
  H   H402      1.0  0.04468  0.34611  0.58425  1.0000
  C   C510      1.0  0.38262  0.45252  0.91464  1.0000
  H   H403      1.0  0.39730  0.42571  0.91871  1.0000
  H   H404      1.0  0.36278  0.43795  0.92144  1.0000
  C   C511      1.0  0.97157  0.45871  0.93040  1.0000
  C   C512      1.0  0.10923  0.40250  0.52773  1.0000
  H   H405      1.0  0.42771  0.44235  0.96522  1.0000
  C   C513      1.0  0.33382  0.32944  0.98572  1.0000
  C   C514      1.0  0.36398  0.37404  0.83257  1.0000
  C   C515      1.0  0.97136  0.60216  0.95647  1.0000
  C   C516      1.0  0.34675  0.34995  0.81839  1.0000
  H   H406      1.0  0.37159  0.39854  0.87269  1.0000
  C   C517      1.0  0.31644  0.33847  0.86130  1.0000
  C   C518      1.0  0.43526  0.38884  0.97265  1.0000
  C   C519      1.0  0.28633  0.34368  0.93168  1.0000
  C   C520      1.0  0.41392  0.49664  0.89790  1.0000
  H   H407      1.0  0.00393  0.31887  0.49926  1.0000
  H   H408      1.0  0.35166  0.34496  0.79624  1.0000
  H   H409      1.0  0.00839  0.34825  0.96335  1.0000
  C   C521      1.0  0.40237  0.44575  0.91347  1.0000
  H   H410      1.0  0.30024  0.33802  0.93997  1.0000
  C   C522      1.0  0.45388  0.42890  0.80478  1.0000
  H   H411      1.0  0.31012  0.31371  0.82123  1.0000
  C   C523      1.0  0.00595  0.32456  0.60316  1.0000
  H   H412      1.0  0.45459  0.42249  0.78155  1.0000
  H   H413      1.0  0.45620  0.37742  0.94092  1.0000
  C   C524      1.0  0.07044  0.36495  0.50574  1.0000
  Fe  Fe36      1.0  0.16237  0.95713  0.36451  1.0000
  S   S68       1.0  0.12527  0.92290  0.38406  1.0000
  Fe  Fe37      1.0  0.00350  0.80208  0.32163  1.0000
  S   S69       1.0  0.03237  0.84025  0.29858  1.0000
  S   S70       1.0  0.02011  0.77952  0.34467  1.0000
  Fe  Fe38      1.0  0.09810  0.67898  0.10702  1.0000
  S   S71       1.0  0.14223  0.70871  0.09747  1.0000
  S   S72       1.0  0.02791  0.68764  0.16506  1.0000
  S   S73       1.0  0.06376  0.68396  0.09383  1.0000
  C   C525      1.0  0.19178  0.75352  0.09462  1.0000
  C   C526      1.0  0.16556  0.74302  0.10480  1.0000
  C   C527      1.0  0.15893  0.76004  0.12020  1.0000
  C   C528      1.0  0.17820  0.78690  0.12538  1.0000
  H   H414      1.0  0.19731  0.74075  0.08264  1.0000
  H   H415      1.0  0.13896  0.75249  0.12818  1.0000
  H   H416      1.0  0.17267  0.79968  0.13727  1.0000
  C   C529      1.0  0.02028  0.69506  0.20261  1.0000
  C   C530      1.0  0.02221  0.68301  0.22938  1.0000
  C   C531      1.0  0.01501  0.68890  0.25822  1.0000
  C   C532      1.0  0.00601  0.70713  0.26103  1.0000
  C   C533      1.0  0.00451  0.71954  0.23435  1.0000
  C   C534      1.0  0.01146  0.71346  0.20547  1.0000
  H   H417      1.0  0.00978  0.72293  0.18508  1.0000
  C   C535      1.0  0.10007  0.89993  0.35965  1.0000
  C   C536      1.0  0.07697  0.87974  0.37282  1.0000
  C   C537      1.0  0.05636  0.86107  0.35422  1.0000
  C   C538      1.0  0.05859  0.86267  0.32226  1.0000
  C   C539      1.0  0.08188  0.88257  0.30901  1.0000
  C   C540      1.0  0.10269  0.90110  0.32767  1.0000
  H   H418      1.0  0.07507  0.87832  0.39752  1.0000
  H   H419      1.0  0.03863  0.84560  0.36465  1.0000
  H   H420      1.0  0.08382  0.88359  0.28429  1.0000
  H   H421      1.0  0.12058  0.91641  0.31737  1.0000
  P   P18       1.0  0.14840  0.85141  0.24834  1.0000
  C   C541      1.0  0.15206  0.88056  0.22993  1.0000
  C   C542      1.0  0.16782  0.83942  0.22923  1.0000
  C   C543      1.0  0.19367  0.85738  0.22005  1.0000
  C   C544      1.0  0.19855  0.82153  0.19933  1.0000
  C   C545      1.0  0.17319  0.80342  0.20937  1.0000
  C   C546      1.0  0.15799  0.81227  0.22467  1.0000
  C   C547      1.0  0.15723  0.88430  0.19832  1.0000
  C   C548      1.0  0.16041  0.90710  0.18423  1.0000
  C   C549      1.0  0.15813  0.92610  0.20153  1.0000
  C   C550      1.0  0.15226  0.92215  0.23281  1.0000
  C   C551      1.0  0.14886  0.89930  0.24689  1.0000
  C   C552      1.0  0.11332  0.82848  0.24714  1.0000
  C   C553      1.0  0.09717  0.82827  0.27108  1.0000
  C   C554      1.0  0.06995  0.81096  0.26998  1.0000
  C   C555      1.0  0.05850  0.79433  0.24458  1.0000
  C   C556      1.0  0.07430  0.79499  0.22016  1.0000
  C   C557      1.0  0.10159  0.81224  0.22122  1.0000
  H   H422      1.0  0.13512  0.81966  0.30420  1.0000
  H   H423      1.0  0.20212  0.87828  0.22464  1.0000
  H   H424      1.0  0.13868  0.79791  0.23288  1.0000
  H   H425      1.0  0.15888  0.86967  0.18461  1.0000
  H   H426      1.0  0.16481  0.91009  0.15994  1.0000
  H   H427      1.0  0.16092  0.94388  0.19077  1.0000
  H   H428      1.0  0.10544  0.84174  0.29041  1.0000
  H   H429      1.0  0.05760  0.81064  0.28868  1.0000
  H   H430      1.0  0.03735  0.78101  0.24386  1.0000
  H   H431      1.0  0.06532  0.78212  0.20040  1.0000
  H   H432      1.0  0.11341  0.81300  0.20172  1.0000
  C   C558      1.0  0.09361  0.79492  0.37897  1.0000
  C   C559      1.0  0.09279  0.81135  0.35629  1.0000
  C   C560      1.0  0.10158  0.83790  0.36288  1.0000
  C   C561      1.0  0.11093  0.84818  0.39221  1.0000
  C   C562      1.0  0.11106  0.83178  0.41523  1.0000
  C   C563      1.0  0.10227  0.80518  0.40873  1.0000
  H   H433      1.0  0.10107  0.85057  0.34526  1.0000
  H   H434      1.0  0.11779  0.86882  0.39706  1.0000
  H   H435      1.0  0.11790  0.83970  0.43812  1.0000
  H   H436      1.0  0.10225  0.79267  0.42691  1.0000
  C   C564      1.0  0.13413  0.73617  0.42723  1.0000
  C   C565      1.0  0.03817  0.74614  0.40378  1.0000
  C   C566      1.0  0.16038  0.84553  0.33992  1.0000
  C   C567      1.0  0.18189  0.88424  0.29479  1.0000
  C   C568      1.0  0.16075  0.85911  0.28727  1.0000
  C   C569      1.0  0.15064  0.83950  0.30981  1.0000
  H   H437      1.0  0.19098  0.89940  0.27757  1.0000
  H   H438      1.0  0.14423  0.89658  0.27115  1.0000
  C   C570      1.0  0.14551  0.76172  0.41560  1.0000
  H   H439      1.0  0.16615  0.77568  0.41998  1.0000
  H   H440      1.0  0.13950  0.78904  0.38921  1.0000
  P   P19       1.0  0.08400  0.76108  0.36991  1.0000
  H   H441      1.0  0.13500  0.75758  0.28074  1.0000
  S   S74       1.0  0.00537  0.78437  0.43259  1.0000
  C   C571      1.0  0.13031  0.76924  0.39825  1.0000
  C   C572      1.0  0.10756  0.71811  0.42142  1.0000
  H   H442      1.0  0.04919  0.76443  0.41656  1.0000
  Fe  Fe39      1.0  0.99125  0.77300  0.38267  1.0000
  H   H443      1.0  0.08536  0.80378  0.33353  1.0000
  Fe  Fe40      1.0  0.04605  0.66531  0.13969  1.0000
  C   C573      1.0  0.10352  0.75126  0.39248  1.0000
  C   C574      1.0  0.09230  0.72556  0.40407  1.0000
  C   C575      1.0  0.03452  0.71573  0.36336  1.0000
  H   H444      1.0  0.12850  0.76291  0.33560  1.0000
  H   H445      1.0  0.15215  0.83057  0.35743  1.0000
  C   C576      1.0  0.11313  0.75972  0.31949  1.0000
  C   C577      1.0  0.04969  0.73967  0.37940  1.0000
  C   C578      1.0  0.08949  0.75799  0.32952  1.0000
  C   C579      1.0  0.11697  0.75676  0.28830  1.0000
  C   C580      1.0  0.20449  0.79734  0.11536  1.0000
  C   C581      1.0  0.19144  0.89025  0.32491  1.0000
  H   H446      1.0  0.09874  0.69826  0.43034  1.0000
  C   C582      1.0  0.18055  0.87099  0.34755  1.0000
  H   H447      1.0  0.04280  0.71009  0.34452  1.0000
  H   H448      1.0  0.18790  0.87580  0.37093  1.0000
  C   C583      1.0  0.07033  0.75439  0.30764  1.0000
  H   H449      1.0  0.07180  0.71116  0.39976  1.0000
  H   H450      1.0  0.15082  0.93697  0.24648  1.0000
  H   H451      1.0  0.05213  0.75354  0.31456  1.0000
  C   C584      1.0  0.07412  0.75108  0.27658  1.0000
  C   C585      1.0  0.09731  0.75210  0.26690  1.0000
  H   H452      1.0  0.09984  0.74903  0.24283  1.0000
  C   C586      1.0  0.19945  0.87408  0.11706  1.0000
  C   C587      1.0  0.20092  0.88147  0.08642  1.0000
  C   C588      1.0  0.98916  0.76945  0.46754  1.0000
  C   C589      1.0  0.21090  0.90799  0.07900  1.0000
  H   H453      1.0  0.19228  0.85359  0.12275  1.0000
  H   H454      1.0  0.21131  0.91303  0.05512  1.0000
  S   S75       1.0  0.99701  0.71350  0.29831  1.0000
  H   H455      1.0  0.19469  0.86658  0.06843  1.0000
  H   H456      1.0  0.05881  0.74729  0.26001  1.0000
  C   C590      1.0  0.00814  0.69893  0.37112  1.0000
  C   C591      1.0  0.01190  0.72901  0.41177  1.0000
  H   H457      1.0  0.27310  0.95537  0.99724  1.0000
  H   H458      1.0  0.01638  0.67915  0.27854  1.0000
  C   C592      1.0  0.46077  0.79649  0.11731  1.0000
  C   C593      1.0  0.01183  0.68231  0.06006  1.0000
  C   C594      1.0  0.99682  0.70557  0.39529  1.0000
  H   H459      1.0  0.02074  0.67158  0.05026  1.0000
  H   H460      1.0  0.00309  0.73414  0.43051  1.0000
  Fe  Fe41      1.0  0.98751  0.74409  0.32006  1.0000
  H   H461      1.0  0.99753  0.73348  0.23588  1.0000
  H   H462      1.0  0.16488  0.90944  0.42650  1.0000
  C   C595      1.0  0.16149  0.90695  0.45105  1.0000
  H   H463      1.0  0.11999  0.89170  0.44643  1.0000
  C   C596      1.0  0.13603  0.89729  0.46255  1.0000
  S   S76       1.0  0.20003  0.95593  0.36368  1.0000
  H   H464      1.0  0.12218  0.70191  0.03168  1.0000
  H   H465      1.0  0.12404  0.74294  0.04965  1.0000
  C   C597      1.0  0.10696  0.72845  0.03677  1.0000
  H   H466      1.0  0.03533  0.89824  0.42123  1.0000
  C   C598      1.0  0.46533  0.78238  0.18056  1.0000
  H   H467      1.0  0.20884  0.92343  0.22536  1.0000
  C   C599      1.0  0.01460  0.70489  0.04570  1.0000
  H   H468      1.0  0.08256  0.93221  0.42752  1.0000
  C   C600      1.0  0.07373  0.91515  0.44234  1.0000
  H   H469      1.0  0.04484  0.67426  0.99465  1.0000
  P   P20       1.0  0.43390  0.97737  0.04502  1.0000
  H   H470      1.0  0.99630  0.68107  0.35776  1.0000
  H   H471      1.0  0.97620  0.68076  0.12251  1.0000
  H   H472      1.0  0.02888  0.66881  0.22781  1.0000
  H   H473      1.0  0.16537  0.78251  0.20512  1.0000
  H   H474      1.0  0.14591  0.73033  0.44066  1.0000
  C   C601      1.0  0.06300  0.71310  0.01587  1.0000
  H   H475      1.0  0.06936  0.80944  0.04545  1.0000
  H   H476      1.0  0.01548  0.85887  0.45482  1.0000
  H   H477      1.0  0.08302  0.92529  0.26948  1.0000
  S   S77       1.0  0.08126  0.66138  0.15324  1.0000
  C   C602      1.0  0.98619  0.68708  0.10062  1.0000
  C   C603      1.0  0.10341  0.97523  0.32179  1.0000
  S   S78       1.0  0.16892  0.97694  0.31897  1.0000
  C   C604      1.0  0.16178  0.96063  0.09752  1.0000
  H   H478      1.0  0.46565  0.91961  0.13637  1.0000
  H   H479      1.0  0.21028  0.81470  0.18724  1.0000
  H   H480      1.0  0.10982  0.92698  0.46669  1.0000
  C   C605      1.0  0.10595  0.70525  0.02665  1.0000
  C   C606      1.0  0.18266  0.91430  0.47121  1.0000
  S   S79       1.0  0.46709  0.87907  0.09613  1.0000
  C   C607      1.0  0.08925  0.91193  0.46434  1.0000
  H   H481      1.0  0.07796  0.93311  0.32440  1.0000
  H   H482      1.0  0.45142  0.82655  0.10483  1.0000
  C   C608      1.0  0.22971  0.93647  0.22883  1.0000
  C   C609      1.0  0.10926  0.96649  0.25980  1.0000
  H   H483      1.0  0.00225  0.73421  0.04670  1.0000
  C   C610      1.0  0.23989  0.96782  0.05313  1.0000
  C   C611      1.0  0.20887  0.84847  0.20491  1.0000
  C   C612      1.0  0.45490  0.94434  0.03506  1.0000
  H   H484      1.0  0.08670  0.75016  0.04036  1.0000
  H   H485      1.0  0.41608  0.74827  0.11181  1.0000
  C   C613      1.0  0.28362  0.97016  0.23692  1.0000
  C   C614      1.0  0.43184  0.85236  0.17023  1.0000
  C   C615      1.0  0.99792  0.67363  0.08758  1.0000
  C   C616      1.0  0.16366  0.97365  0.12530  1.0000
  H   H486      1.0  0.40327  0.92283  0.06545  1.0000
  C   C617      1.0  0.06227  0.68989  0.00575  1.0000
  C   C618      1.0  0.15497  0.64772  0.12355  1.0000
  H   H487      1.0  0.39817  0.95353  0.09792  1.0000
  C   C619      1.0  0.44946  0.82251  0.16869  1.0000
  C   C620      1.0  0.21105  0.78035  0.09982  1.0000
  C   C621      1.0  0.04468  0.75131  0.00556  1.0000
  C   C622      1.0  0.35228  0.90775  0.01690  1.0000
  H   H488      1.0  0.45599  0.88975  0.19292  1.0000
  C   C623      1.0  0.09305  0.94526  0.27866  1.0000
  H   H489      1.0  0.20733  0.90996  0.33056  1.0000
  H   H490      1.0  0.26207  0.94719  0.05192  1.0000
  H   H491      1.0  0.33257  0.89182  0.01158  1.0000
  C   C624      1.0  0.08561  0.73239  0.03146  1.0000
  C   C625      1.0  0.20782  0.89320  0.14031  1.0000
  C   C626      1.0  0.08363  0.68602  0.01108  1.0000
  H   H492      1.0  0.42925  0.92828  0.14962  1.0000
  H   H493      1.0  0.20667  0.88730  0.16393  1.0000
  H   H494      1.0  0.36921  0.71393  0.11021  1.0000
  S   S80       1.0  0.30478  0.93443  0.03137  1.0000
  C   C627      1.0  0.06201  0.80504  0.99666  1.0000
  S   S81       1.0  0.97189  0.76708  0.29525  1.0000
  C   C628      1.0  0.46046  0.81520  0.09774  1.0000
  C   C629      1.0  0.00158  0.71754  0.05808  1.0000
  H   H495      1.0  0.44040  0.93522  0.01689  1.0000
  H   H496      1.0  0.05430  0.76236  0.05346  1.0000
  C   C630      1.0  0.40238  0.94999  0.03267  1.0000
  H   H497      1.0  0.35917  0.88626  0.05212  1.0000
  C   C631      1.0  0.24789  0.93352  0.21019  1.0000
  H   H498      1.0  0.39435  0.97108  0.99731  1.0000
  H   H499      1.0  0.40255  0.77907  0.19614  1.0000
  C   C632      1.0  0.36253  0.93167  0.00144  1.0000
  H   H500      1.0  0.22491  0.93447  0.15129  1.0000
  C   C633      1.0  0.26545  0.97271  0.25617  1.0000
  P   P21       1.0  0.23207  0.96168  0.09337  1.0000
  C   C634      1.0  0.41283  0.76636  0.15407  1.0000
  H   H501      1.0  0.15580  0.66607  0.13014  1.0000
  H   H502      1.0  0.97763  0.85583  0.40709  1.0000
  H   H503      1.0  0.20254  0.92272  0.46236  1.0000
  C   C635      1.0  0.25516  0.95836  0.03900  1.0000
  C   C636      1.0  0.18274  0.95739  0.08764  1.0000
  Fe  Fe42      1.0  0.27085  0.86688  0.11754  1.0000
  H   H504      1.0  0.22870  0.86241  0.19737  1.0000
  C   C637      1.0  0.21828  0.91983  0.13300  1.0000
  C   C638      1.0  0.37657  0.72812  0.12901  1.0000
  C   C639      1.0  0.27992  0.97539  0.12215  1.0000
  H   H505      1.0  0.19701  0.66523  0.11959  1.0000
  C   C640      1.0  0.39588  0.87695  0.10015  1.0000
  Fe  Fe43      1.0  0.33258  0.89847  0.12272  1.0000
  H   H506      1.0  0.33876  0.71194  0.15110  1.0000
  C   C641      1.0  0.41017  0.97452  0.10183  1.0000
  Fe  Fe44      1.0  0.30453  0.91767  0.07922  1.0000
  S   S82       1.0  0.30402  0.87885  0.08294  1.0000
  H   H507      1.0  0.41680  0.85704  0.16363  1.0000
  C   C642      1.0  0.22040  0.92750  0.10223  1.0000
  H   H508      1.0  0.07677  0.83764  0.46936  1.0000
  C   C643      1.0  0.40007  0.89717  0.12089  1.0000
  C   C644      1.0  0.39551  0.76493  0.17730  1.0000
  H   H509      1.0  0.23102  0.78785  0.09188  1.0000
  H   H510      1.0  0.99680  0.65682  0.09927  1.0000
  C   C645      1.0  0.32810  0.96407  0.01262  1.0000
  H   H511      1.0  0.45678  0.73901  0.23729  1.0000
  C   C646      1.0  0.40319  0.74770  0.12999  1.0000
  H   H512      1.0  0.98277  0.81860  0.42529  1.0000
  H   H513      1.0  0.43122  0.75243  0.20474  1.0000
  C   C647      1.0  0.06237  0.79586  0.02606  1.0000
  H   H514      1.0  0.41297  0.81496  0.14692  1.0000
  H   H515      1.0  0.41287  0.85615  0.07692  1.0000
  S   S83       1.0  0.22808  0.83152  0.12311  1.0000
  C   C648      1.0  0.35942  0.72698  0.15205  1.0000
  S   S84       1.0  0.29944  0.88390  0.15778  1.0000
  C   C649      1.0  0.05157  0.87034  0.47929  1.0000
  H   H516      1.0  0.14733  0.97597  0.13303  1.0000
  S   S85       1.0  0.21397  0.95818  0.27512  1.0000
  C   C650      1.0  0.36890  0.74536  0.17621  1.0000
  S   S86       1.0  0.33362  0.93744  0.11761  1.0000
  S   S87       1.0  0.26974  0.90458  0.11088  1.0000
  C   C651      1.0  0.27501  0.95050  0.21377  1.0000
  C   C652      1.0  0.36721  0.90464  0.03972  1.0000
  H   H517      1.0  0.19026  0.97460  0.44995  1.0000
  C   C653      1.0  0.45241  0.76233  0.20225  1.0000
  S   S88       1.0  0.29879  0.94825  0.18979  1.0000
  C   C654      1.0  0.44204  0.88720  0.10571  1.0000
  C   C655      1.0  0.39220  0.92554  0.04735  1.0000
  C   C656      1.0  0.44634  0.90764  0.12617  1.0000
  H   H518      1.0  0.27456  0.95490  0.11997  1.0000
  H   H519      1.0  0.37655  0.86485  0.09008  1.0000
  Fe  Fe45      1.0  0.29874  0.92157  0.14997  1.0000
  C   C657      1.0  0.42554  0.91248  0.13370  1.0000
  H   H520      1.0  0.39236  0.97195  0.14581  1.0000
  S   S89       1.0  0.97710  0.79838  0.36087  1.0000
  C   C658      1.0  0.45598  0.96493  0.05304  1.0000
  H   H521      1.0  0.35558  0.74457  0.19399  1.0000
  P   P22       1.0  0.44707  0.79197  0.15544  1.0000
  C   C659      1.0  0.42970  0.82844  0.16092  1.0000
  S   S90       1.0  0.37449  0.90428  0.13153  1.0000
  C   C660      1.0  0.38739  0.95277  0.00931  1.0000
  C   C661      1.0  0.03605  0.87373  0.45745  1.0000
  C   C662      1.0  0.07849  0.88908  0.48230  1.0000
  C   C663      1.0  0.26163  0.96313  0.00796  1.0000
  C   C664      1.0  0.41663  0.87203  0.09273  1.0000
  H   H522      1.0  0.11184  0.96260  0.23610  1.0000
  C   C665      1.0  0.05381  0.76914  0.03051  1.0000
  C   C666      1.0  0.23827  0.95587  0.25223  1.0000
  P   P23       1.0  0.03429  0.71688  0.01135  1.0000
  C   C667      1.0  0.45398  0.87084  0.18672  1.0000
  C   C668      1.0  0.04717  0.89598  0.43875  1.0000
  H   H523      1.0  0.97823  0.71897  0.09562  1.0000
  H   H524      1.0  0.18083  0.94678  0.06638  1.0000
  H   H525      1.0  0.08243  0.66762  0.00410  1.0000
  H   H526      1.0  0.24113  0.91804  0.19314  1.0000
  C   C669      1.0  0.98764  0.70878  0.08563  1.0000
  H   H527      1.0  0.05601  0.79005  0.47983  1.0000
  C   C670      1.0  0.09012  0.94963  0.30964  1.0000
  H   H528      1.0  0.97626  0.69273  0.40099  1.0000
  C   C671      1.0  0.20585  0.96742  0.10535  1.0000
  C   C672      1.0  0.96737  0.74389  0.46861  1.0000
  H   H529      1.0  0.14397  0.95279  0.08376  1.0000
  H   H530      1.0  0.97680  0.68450  0.00176  1.0000
  H   H531      1.0  0.06868  0.82575  0.99321  1.0000
  H   H532      1.0  0.10184  0.97856  0.34603  1.0000
  Fe  Fe46      1.0  0.20809  0.97771  0.31879  1.0000
  C   C673      1.0  0.17815  0.64720  0.11753  1.0000
  C   C674      1.0  0.46686  0.75462  0.22076  1.0000
  C   C675      1.0  0.25371  0.97812  0.99098  1.0000
  S   S91       1.0  0.12809  0.94552  0.68119  1.0000
  Fe  Fe47      1.0  0.01157  0.79350  0.64664  1.0000
  S   S92       1.0  0.99904  0.75045  0.63835  1.0000
  S   S93       1.0  0.05507  0.82469  0.63860  1.0000
  C   C676      1.0  0.10792  0.91198  0.66893  1.0000
  C   C677      1.0  0.11701  0.89987  0.64831  1.0000
  C   C678      1.0  0.10038  0.87338  0.63901  1.0000
  C   C679      1.0  0.07449  0.85849  0.65022  1.0000
  C   C680      1.0  0.06534  0.87060  0.67078  1.0000
  C   C681      1.0  0.08196  0.89716  0.68003  1.0000
  H   H533      1.0  0.13678  0.91101  0.63931  1.0000
  H   H534      1.0  0.10765  0.86433  0.62299  1.0000
  H   H535      1.0  0.04554  0.85946  0.67974  1.0000
  H   H536      1.0  0.07465  0.90628  0.69596  1.0000
  C   C682      1.0  0.98888  0.77171  0.52383  1.0000
  H   H537      1.0  0.99738  0.78261  0.54493  1.0000
  S   S94       1.0  0.98547  0.78374  0.68825  1.0000
  H   H538      1.0  0.05914  0.87230  0.55686  1.0000
  H   H539      1.0  0.05923  0.89541  0.60460  1.0000
  C   C683      1.0  0.07613  0.90429  0.58947  1.0000
  C   C684      1.0  0.07631  0.89112  0.56257  1.0000
  H   H540      1.0  0.05293  0.79462  0.94885  1.0000
  C   C685      1.0  0.09876  0.90185  0.54375  1.0000
  H   H541      1.0  0.09830  0.93836  0.61874  1.0000
  C   C686      1.0  0.09814  0.92847  0.59748  1.0000
  C   C687      1.0  0.08420  0.84061  0.54731  1.0000
  C   C688      1.0  0.07225  0.81359  0.55310  1.0000
  H   H542      1.0  0.07029  0.80679  0.57659  1.0000
  H   H543      1.0  0.09197  0.85429  0.56655  1.0000
  C   C689      1.0  0.12028  0.93951  0.57857  1.0000
  C   C690      1.0  0.12046  0.92652  0.55156  1.0000
  S   S95       1.0  0.98136  0.79294  0.61426  1.0000
  H   H544      1.0  0.10489  0.77572  0.75419  1.0000
  H   H545      1.0  0.06147  0.76529  0.73249  1.0000
  C   C691      1.0  0.10391  0.78808  0.73648  1.0000
  C   C692      1.0  0.07944  0.78217  0.72430  1.0000
  H   H546      1.0  0.05918  0.79361  0.69196  1.0000
  C   C693      1.0  0.12707  0.80987  0.72579  1.0000
  C   C694      1.0  0.10120  0.81981  0.69081  1.0000
  C   C695      1.0  0.07812  0.79807  0.70149  1.0000
  H   H547      1.0  0.14573  0.81402  0.73555  1.0000
  C   C696      1.0  0.02624  0.69564  0.95190  1.0000
  H   H548      1.0  0.04751  0.70612  0.94982  1.0000
  H   H549      1.0  0.15008  0.90129  0.53905  1.0000
  C   C697      1.0  0.01077  0.68005  0.92728  1.0000
  H   H550      1.0  0.02004  0.67832  0.90655  1.0000
  C   C698      1.0  0.12587  0.82591  0.70276  1.0000
  H   H551      1.0  0.09980  0.83192  0.67318  1.0000
  C   C699      1.0  0.06434  0.80419  0.49863  1.0000
  H   H552      1.0  0.17164  0.95936  0.50159  1.0000
  H   H553      1.0  0.13772  0.93576  0.53718  1.0000
  P   P24       1.0  0.09896  0.88427  0.50947  1.0000
  C   C700      1.0  0.17831  0.91169  0.50287  1.0000
  Fe  Fe48      1.0  0.97024  0.74033  0.67786  1.0000
  H   H554      1.0  0.42355  0.95529  0.95868  1.0000
  C   C701      1.0  0.15290  0.90233  0.51444  1.0000
  C   C702      1.0  0.07593  0.83120  0.49281  1.0000
  S   S96       1.0  0.19497  0.96679  0.56148  1.0000
  H   H555      1.0  0.03790  0.74763  0.95631  1.0000
  H   H556      1.0  0.13760  0.95789  0.58514  1.0000
  H   H557      1.0  0.12422  0.91006  0.73751  1.0000
  C   C703      1.0  0.04458  0.76076  0.97604  1.0000
  C   C704      1.0  0.19549  0.85708  0.72594  1.0000
  H   H558      1.0  0.19484  0.91818  0.51857  1.0000
  Fe  Fe49      1.0  0.17067  0.97310  0.66585  1.0000
  C   C705      1.0  0.15255  0.85658  0.64736  1.0000
  H   H559      1.0  0.11797  0.86904  0.71402  1.0000
  C   C706      1.0  0.21769  0.85485  0.73233  1.0000
  H   H560      1.0  0.22669  0.86006  0.75494  1.0000
  C   C707      1.0  0.06212  0.79536  0.52881  1.0000
  H   H561      1.0  0.12840  0.81439  0.63965  1.0000
  C   C708      1.0  0.21687  0.83954  0.68029  1.0000
  H   H562      1.0  0.16895  0.94894  0.74302  1.0000
  C   C709      1.0  0.18837  0.92929  0.72336  1.0000
  H   H563      1.0  0.20224  0.90579  0.70116  1.0000
  C   C710      1.0  0.08522  0.84956  0.51721  1.0000
  P   P25       1.0  0.15551  0.85408  0.68837  1.0000
  C   C711      1.0  0.15971  0.88382  0.70668  1.0000
  H   H564      1.0  0.01589  0.80333  0.49474  1.0000
  C   C712      1.0  0.98664  0.68372  0.98108  1.0000
  H   H565      1.0  0.17707  0.89918  0.64627  1.0000
  C   C713      1.0  0.16567  0.88125  0.63299  1.0000
  C   C714      1.0  0.16386  0.88308  0.60116  1.0000
  S   S97       1.0  0.19730  0.95827  0.64997  1.0000
  H   H566      1.0  0.12502  0.81789  0.58368  1.0000
  C   C715      1.0  0.14126  0.90865  0.73060  1.0000
  C   C716      1.0  0.18504  0.90607  0.70979  1.0000
  H   H567      1.0  0.18613  0.83668  0.65101  1.0000
  C   C717      1.0  0.18390  0.85070  0.69657  1.0000
  C   C718      1.0  0.13829  0.83370  0.62924  1.0000
  H   H568      1.0  0.22523  0.83284  0.66258  1.0000
  C   C719      1.0  0.01429  0.69731  0.97918  1.0000
  C   C720      1.0  0.13647  0.83558  0.59743  1.0000
  C   C721      1.0  0.22841  0.84612  0.70951  1.0000
  H   H569      1.0  0.18743  0.86392  0.74386  1.0000
  C   C722      1.0  0.19247  0.97310  0.49936  1.0000
  C   C723      1.0  0.13781  0.88537  0.71705  1.0000
  H   H570      1.0  0.30979  0.94997  0.96825  1.0000
  H   H571      1.0  0.20790  0.94650  0.72521  1.0000
  H   H572      1.0  0.24570  0.84455  0.71444  1.0000
  C   C724      1.0  0.14925  0.86023  0.58340  1.0000
  H   H573      1.0  0.17372  0.90232  0.59040  1.0000
  H   H574      1.0  0.14778  0.86156  0.55877  1.0000
  C   C725      1.0  0.16648  0.93063  0.73360  1.0000
  C   C726      1.0  0.19468  0.84178  0.67381  1.0000
  H   H575      1.0  0.05213  0.77439  0.53342  1.0000
  C   C727      1.0  0.32534  0.96644  0.98083  1.0000
  C   C728      1.0  0.99943  0.78340  0.49528  1.0000
  H   H576      1.0  0.46624  0.88298  0.95987  1.0000
  C   C729      1.0  0.05314  0.78751  0.97168  1.0000
  C   C730      1.0  0.46337  0.96482  0.94839  1.0000
  C   C731      1.0  0.97128  0.66842  0.95629  1.0000
  H   H577      1.0  0.46317  0.95133  0.96528  1.0000
  C   C732      1.0  0.44090  0.96723  0.94498  1.0000
  H   H578      1.0  0.97122  0.65374  0.91081  1.0000
  C   C733      1.0  0.98330  0.66634  0.92955  1.0000
  C   C734      1.0  0.13166  0.89567  0.49441  1.0000
  H   H579      1.0  0.35076  0.93409  0.98398  1.0000
  Fe  Fe50      1.0  0.96758  0.74991  0.60783  1.0000
  C   C735      1.0  0.96776  0.74580  0.52502  1.0000
  H   H580      1.0  0.96903  0.87144  0.57573  1.0000
  H   H581      1.0  0.04253  0.85298  0.49355  1.0000
  H   H582      1.0  0.29285  0.97818  0.74568  1.0000
  C   C736      1.0  0.82617  0.07415  0.22493  1.0000
  H   H583      1.0  0.77462  0.06759  0.17451  1.0000
  H   H584      1.0  0.76764  0.98851  0.19408  1.0000
  H   H585      1.0  0.90650  0.30128  0.02696  1.0000
  H   H586      1.0  0.88577  0.09293  0.40833  1.0000
  C   C737      1.0  0.75412  0.05794  0.45492  1.0000
  Fe  Fe51      1.0  0.94353  0.17647  0.31466  1.0000
  S   S98       1.0  0.91661  0.13208  0.30570  1.0000
  S   S99       1.0  0.93196  0.20772  0.31320  1.0000
  C   C738      1.0  0.80686  0.06976  0.45177  1.0000
  H   H587      1.0  0.82623  0.99420  0.27960  1.0000
  S   S100      1.0  0.75806  0.98731  0.29428  1.0000
  Fe  Fe52      1.0  0.76552  0.01501  0.33397  1.0000
  S   S101      1.0  0.79413  0.05963  0.33843  1.0000
  S   S102      1.0  0.72187  0.00017  0.33977  1.0000
  C   C739      1.0  0.94351  0.24962  0.11802  1.0000
  H   H588      1.0  0.91534  0.27427  0.13917  1.0000
  C   C740      1.0  0.83613  0.02390  0.38337  1.0000
  H   H589      1.0  0.95705  0.26537  0.16392  1.0000
  C   C741      1.0  0.88257  0.11228  0.31528  1.0000
  C   C742      1.0  0.86991  0.08475  0.31066  1.0000
  C   C743      1.0  0.84290  0.06839  0.31744  1.0000
  C   C744      1.0  0.82815  0.07935  0.32891  1.0000
  C   C745      1.0  0.84080  0.10685  0.33358  1.0000
  C   C746      1.0  0.86778  0.12323  0.32671  1.0000
  H   H590      1.0  0.88109  0.07603  0.30175  1.0000
  H   H591      1.0  0.83353  0.04730  0.31407  1.0000
  H   H592      1.0  0.82967  0.11558  0.34263  1.0000
  H   H593      1.0  0.87711  0.14434  0.33029  1.0000
  H   H594      1.0  0.84024  0.02805  0.47220  1.0000
  H   H595      1.0  0.75670  0.00009  0.43599  1.0000
  C   C747      1.0  0.92810  0.29144  0.05933  1.0000
  H   H596      1.0  0.70402  0.02841  0.27419  1.0000
  C   C748      1.0  0.76370  0.05273  0.42796  1.0000
  C   C749      1.0  0.83584  0.00358  0.40019  1.0000
  C   C750      1.0  0.83978  0.04802  0.43068  1.0000
  C   C751      1.0  0.74598  0.99137  0.45685  1.0000
  C   C752      1.0  0.94474  0.28079  0.06321  1.0000
  H   H597      1.0  0.95840  0.14806  0.44802  1.0000
  C   C753      1.0  0.86028  0.10587  0.42877  1.0000
  H   H598      1.0  0.83982  0.12556  0.44601  1.0000
  H   H599      1.0  0.90565  0.17220  0.38744  1.0000
  C   C754      1.0  0.80342  0.03444  0.12183  1.0000
  Fe  Fe53      1.0  0.95615  0.22257  0.35712  1.0000
  C   C755      1.0  0.78991  0.05860  0.42637  1.0000
  H   H600      1.0  0.90934  0.30394  0.17462  1.0000
  H   H601      1.0  0.95845  0.13911  0.39219  1.0000
  H   H602      1.0  0.88896  0.13920  0.25027  1.0000
  C   C756      1.0  0.92110  0.20011  0.14624  1.0000
  H   H603      1.0  0.55745  0.03684  0.02516  1.0000
  H   H604      1.0  0.74756  0.05339  0.30037  1.0000
  C   C757      1.0  0.78129  0.99019  0.21191  1.0000
  H   H605      1.0  0.90744  0.18388  0.10093  1.0000
  H   H606      1.0  0.81535  0.02371  0.16332  1.0000
  H   H607      1.0  0.77100  0.06904  0.11816  1.0000
  H   H608      1.0  0.92727  0.22725  0.07589  1.0000
  C   C758      1.0  0.77099  0.06972  0.48004  1.0000
  S   S103      1.0  0.94131  0.23074  0.40202  1.0000
  C   C759      1.0  0.95166  0.27101  0.03738  1.0000
  H   H609      1.0  0.96483  0.26315  0.03970  1.0000
  H   H610      1.0  0.84533  0.13639  0.25105  1.0000
  H   H611      1.0  0.70103  0.01012  0.22192  1.0000
  C   C760      1.0  0.89305  0.15373  0.39900  1.0000
  H   H612      1.0  0.91347  0.13459  0.38103  1.0000
  H   H613      1.0  0.75072  0.04366  0.40835  1.0000
  C   C761      1.0  0.83802  0.04597  0.39849  1.0000
  H   H614      1.0  0.73361  0.05272  0.45630  1.0000
  C   C762      1.0  0.87156  0.12135  0.24236  1.0000
  C   C763      1.0  0.81425  0.99325  0.26013  1.0000
  P   P26       1.0  0.84036  0.07589  0.45000  1.0000
  H   H615      1.0  0.83441  0.02239  0.35857  1.0000
  C   C764      1.0  0.78253  0.05807  0.16001  1.0000
  H   H616      1.0  0.83402  0.98637  0.38832  1.0000
  C   C765      1.0  0.79448  0.04478  0.17304  1.0000
  H   H617      1.0  0.83705  0.98947  0.44527  1.0000
  H   H618      1.0  0.78931  0.04787  0.08427  1.0000
  C   C766      1.0  0.87218  0.15105  0.41711  1.0000
  H   H619      1.0  0.78766  0.05971  0.27455  1.0000
  C   C767      1.0  0.87369  0.09976  0.23232  1.0000
  C   C768      1.0  0.83930  0.02736  0.44745  1.0000
  H   H620      1.0  0.80552  0.09556  0.23436  1.0000
  P   P27       1.0  0.95921  0.28172  0.10029  1.0000
  H   H621      1.0  0.86884  0.16758  0.41968  1.0000
  C   C769      1.0  0.80536  0.03338  0.15375  1.0000
  H   H622      1.0  0.52535  0.99491  0.00009  1.0000
  C   C770      1.0  0.82436  0.09631  0.23391  1.0000
  C   C771      1.0  0.95286  0.22597  0.43786  1.0000
  C   C772      1.0  0.91831  0.20175  0.11456  1.0000
  C   C773      1.0  0.74293  0.02555  0.21799  1.0000
  H   H623      1.0  0.85319  0.05983  0.21549  1.0000
  C   C774      1.0  0.92957  0.22642  0.10042  1.0000
  C   C775      1.0  0.85114  0.07633  0.22325  1.0000
  C   C776      1.0  0.79091  0.04715  0.10900  1.0000
  H   H624      1.0  0.79667  0.05418  0.40526  1.0000
  H   H625      1.0  0.74106  0.01659  0.19559  1.0000
  H   H626      1.0  0.82698  0.03450  0.26203  1.0000
  C   C777      1.0  0.55702  0.03508  0.00035  1.0000
  C   C778      1.0  0.92598  0.28295  0.00452  1.0000
  C   C779      1.0  0.60059  0.00206  0.00186  1.0000
  C   C780      1.0  0.88152  0.10884  0.41076  1.0000
  H   H627      1.0  0.58875  0.07494  0.99371  1.0000
  H   H628      1.0  0.92474  0.23129  0.46435  1.0000
  C   C781      1.0  0.81472  0.01610  0.24998  1.0000
  C   C782      1.0  0.94621  0.24776  0.14984  1.0000
  S   S104      1.0  0.76668  0.98745  0.36868  1.0000
  H   H629      1.0  0.81163  0.02541  0.10701  1.0000
  H   H630      1.0  0.59746  0.01408  0.01845  1.0000
  C   C783      1.0  0.79863  0.01483  0.22537  1.0000
  C   C784      1.0  0.84694  0.11968  0.24297  1.0000
  H   H631      1.0  0.77840  0.01678  0.48652  1.0000
  C   C785      1.0  0.83747  0.00533  0.43222  1.0000
  C   C786      1.0  0.89762  0.13259  0.39568  1.0000
  H   H632      1.0  0.89282  0.10107  0.23239  1.0000
  P   P28       1.0  0.79691  0.04358  0.21420  1.0000
  C   C787      1.0  0.78058  0.05906  0.12809  1.0000
  C   C788      1.0  0.76764  0.03995  0.23249  1.0000
  C   C789      1.0  0.76903  0.04967  0.26238  1.0000
  C   C790      1.0  0.74625  0.04599  0.27714  1.0000
  C   C791      1.0  0.72180  0.03203  0.26239  1.0000
  C   C792      1.0  0.72016  0.02185  0.23281  1.0000
  C   C793      1.0  0.85578  0.12720  0.43189  1.0000
  H   H633      1.0  0.92276  0.29959  0.07856  1.0000
  H   H634      1.0  0.91246  0.18103  0.15720  1.0000
  C   C794      1.0  0.94133  0.22801  0.46537  1.0000
  H   H635      1.0  0.93751  0.22201  0.18844  1.0000
  C   C795      1.0  0.94235  0.27216  0.00817  1.0000
  H   H636      1.0  0.83779  0.06131  0.38500  1.0000
  C   C796      1.0  0.93511  0.22313  0.16385  1.0000
  S   S105      1.0  0.96606  0.19042  0.35914  1.0000
  C   C797      1.0  0.91876  0.29244  0.03008  1.0000
  C   C798      1.0  0.93104  0.29456  0.14175  1.0000
  H   H637      1.0  0.48274  0.99949  0.00825  1.0000
  C   C799      1.0  0.95478  0.30384  0.12554  1.0000
  H   H638      1.0  0.89113  0.11580  0.47789  1.0000
  H   H639      1.0  0.47661  0.99248  0.09033  1.0000
  C   C800      1.0  0.47234  0.00984  0.00265  1.0000
  C   C801      1.0  0.75830  0.00073  0.48564  1.0000
  C   C802      1.0  0.79735  0.07597  0.47837  1.0000
  C   C803      1.0  0.92745  0.31134  0.16170  1.0000
  H   H640      1.0  0.61481  0.03207  0.96667  1.0000
  C   C804      1.0  0.84946  0.11793  0.84628  1.0000
  H   H641      1.0  0.48825  0.13984  0.87132  1.0000
  Fe  Fe54      1.0  0.92872  0.17223  0.61930  1.0000
  S   S106      1.0  0.88729  0.13902  0.60933  1.0000
  S   S107      1.0  0.93645  0.21163  0.60231  1.0000
  Fe  Fe55      1.0  0.78042  0.00379  0.65917  1.0000
  S   S108      1.0  0.75457  0.01731  0.63743  1.0000
  S   S109      1.0  0.81778  0.03384  0.68376  1.0000
  C   C805      1.0  0.81545  0.12468  0.62109  1.0000
  S   S110      1.0  0.88574  0.28186  0.87496  1.0000
  S   S111      1.0  0.92439  0.28099  0.80600  1.0000
  Fe  Fe56      1.0  0.85355  0.28926  0.85893  1.0000
  S   S112      1.0  0.80936  0.25834  0.85097  1.0000
  H   H642      1.0  0.48534  0.10905  0.83032  1.0000
  C   C806      1.0  0.93528  0.29137  0.74313  1.0000
  Fe  Fe57      1.0  0.65161  0.06424  0.81791  1.0000
  S   S113      1.0  0.67643  0.06663  0.85830  1.0000
  S   S114      1.0  0.66484  0.05991  0.76912  1.0000
  Fe  Fe58      1.0  0.61821  0.08099  0.85836  1.0000
  S   S115      1.0  0.64253  0.08505  0.90075  1.0000
  S   S116      1.0  0.58620  0.09309  0.86463  1.0000
  Fe  Fe59      1.0  0.67866  0.10538  0.87022  1.0000
  S   S117      1.0  0.71975  0.13973  0.88572  1.0000
  Fe  Fe60      1.0  0.63851  0.04635  0.88539  1.0000
  S   S118      1.0  0.62887  0.00952  0.91376  1.0000
  S   S119      1.0  0.65479  0.10375  0.82895  1.0000
  S   S120      1.0  0.61312  0.04152  0.84384  1.0000
  C   C807      1.0  0.49664  0.06521  0.85627  1.0000
  C   C808      1.0  0.51443  0.08949  0.86991  1.0000
  C   C809      1.0  0.54149  0.09732  0.87270  1.0000
  C   C810      1.0  0.55131  0.08096  0.86238  1.0000
  C   C811      1.0  0.53338  0.05633  0.84953  1.0000
  C   C812      1.0  0.50639  0.04869  0.84625  1.0000
  C   C813      1.0  0.61044  0.01235  0.97243  1.0000
  H   H643      1.0  0.55501  0.11639  0.88273  1.0000
  H   H644      1.0  0.54042  0.04345  0.84138  1.0000
  H   H645      1.0  0.49297  0.02986  0.83565  1.0000
  C   C814      1.0  0.78517  0.22493  0.86020  1.0000
  C   C815      1.0  0.78991  0.20982  0.88128  1.0000
  C   C816      1.0  0.76975  0.18393  0.88857  1.0000
  C   C817      1.0  0.74455  0.17243  0.87474  1.0000
  C   C818      1.0  0.73994  0.18740  0.85331  1.0000
  C   C819      1.0  0.76001  0.21341  0.84626  1.0000
  H   H646      1.0  0.80898  0.21824  0.89239  1.0000
  H   H647      1.0  0.77367  0.17272  0.90525  1.0000
  H   H648      1.0  0.72076  0.17906  0.84246  1.0000
  H   H649      1.0  0.75593  0.22478  0.82999  1.0000
  C   C820      1.0  0.48365  0.12596  0.67193  1.0000
  H   H650      1.0  0.78794  0.14008  0.83775  1.0000
  H   H651      1.0  0.85281  0.13204  0.80004  1.0000
  C   C821      1.0  0.54628  0.10387  0.79262  1.0000
  C   C822      1.0  0.67294  0.03736  0.75074  1.0000
  C   C823      1.0  0.69596  0.04725  0.73274  1.0000
  C   C824      1.0  0.70107  0.03033  0.71414  1.0000
  C   C825      1.0  0.68301  0.00318  0.71296  1.0000
  H   H652      1.0  0.52924  0.15883  0.74261  1.0000
  C   C826      1.0  0.65518  0.01017  0.74992  1.0000
  H   H653      1.0  0.70977  0.06819  0.73285  1.0000
  H   H654      1.0  0.71865  0.03831  0.70025  1.0000
  H   H655      1.0  0.63711  0.00220  0.76294  1.0000
  H   H656      1.0  0.68575  0.06471  0.56351  1.0000
  H   H657      1.0  0.83673  0.13418  0.62289  1.0000
  C   C827      1.0  0.66013  0.99330  0.73108  1.0000
  C   C828      1.0  0.86926  0.10975  0.63041  1.0000
  C   C829      1.0  0.84548  0.08973  0.61788  1.0000
  C   C830      1.0  0.82986  0.06634  0.63396  1.0000
  C   C831      1.0  0.83770  0.06288  0.66300  1.0000
  C   C832      1.0  0.86151  0.08291  0.67570  1.0000
  C   C833      1.0  0.87740  0.10626  0.65932  1.0000
  H   H658      1.0  0.83897  0.09237  0.59563  1.0000
  H   H659      1.0  0.81168  0.05105  0.62386  1.0000
  H   H660      1.0  0.86772  0.08024  0.69813  1.0000
  H   H661      1.0  0.89580  0.12152  0.66900  1.0000
  C   C834      1.0  0.94661  0.26483  0.70870  1.0000
  Fe  Fe61      1.0  0.90802  0.30432  0.83265  1.0000
  C   C835      1.0  0.71603  0.24460  0.92064  1.0000
  C   C836      1.0  0.93152  0.27464  0.76774  1.0000
  C   C837      1.0  0.93483  0.25264  0.76234  1.0000
  C   C838      1.0  0.94228  0.24772  0.73314  1.0000
  H   H662      1.0  0.87053  0.12628  0.84933  1.0000
  H   H663      1.0  0.54220  0.17983  0.69174  1.0000
  H   H664      1.0  0.93207  0.23956  0.78111  1.0000
  C   C839      1.0  0.52006  0.06684  0.75871  1.0000
  C   C840      1.0  0.50214  0.07580  0.75470  1.0000
  C   C841      1.0  0.50571  0.09841  0.77046  1.0000
  H   H665      1.0  0.94508  0.23096  0.72974  1.0000
  C   C842      1.0  0.83950  0.06273  0.51187  1.0000
  C   C843      1.0  0.76398  0.04867  0.78918  1.0000
  S   S121      1.0  0.76092  0.00391  0.54865  1.0000
  C   C844      1.0  0.74283  0.07266  0.86911  1.0000
  C   C845      1.0  0.69908  0.02961  0.62171  1.0000
  C   C846      1.0  0.69648  0.99924  0.58176  1.0000
  H   H666      1.0  0.69472  0.03254  0.64508  1.0000
  H   H667      1.0  0.68886  0.99880  0.78757  1.0000
  C   C847      1.0  0.70985  0.01274  0.78804  1.0000
  H   H668      1.0  0.80862  0.10142  0.66153  1.0000
  H   H669      1.0  0.51687  0.04901  0.74715  1.0000
  C   C848      1.0  0.74473  0.98978  0.51313  1.0000
  C   C849      1.0  0.71601  0.26831  0.92489  1.0000
  Fe  Fe62      1.0  0.75051  0.98964  0.59836  1.0000
  C   C850      1.0  0.72691  0.10826  0.67081  1.0000
  C   C851      1.0  0.73105  0.09969  0.79883  1.0000
  H   H670      1.0  0.76804  0.12193  0.57398  1.0000
  C   C852      1.0  0.76541  0.15301  0.81203  1.0000
  H   H671      1.0  0.51316  0.15891  0.64641  1.0000
  S   S122      1.0  0.96281  0.17425  0.59368  1.0000
  H   H672      1.0  0.79193  0.08173  0.88470  1.0000
  H   H673      1.0  0.67979  0.09994  0.72256  1.0000
  C   C853      1.0  0.87934  0.10171  0.49526  1.0000
  H   H674      1.0  0.73750  0.31027  0.92012  1.0000
  H   H675      1.0  0.75999  0.07991  0.65798  1.0000
  C   C854      1.0  0.74267  0.14550  0.79468  1.0000
  C   C855      1.0  0.72526  0.12814  0.58847  1.0000
  C   C856      1.0  0.71557  0.11267  0.69685  1.0000
  C   C857      1.0  0.69803  0.12614  0.54550  1.0000
  H   H676      1.0  0.53215  0.13074  0.80055  1.0000
  H   H677      1.0  0.55627  0.02922  0.91149  1.0000
  C   C858      1.0  0.52830  0.11275  0.78889  1.0000
  C   C859      1.0  0.51623  0.14969  0.72306  1.0000
  C   C860      1.0  0.72553  0.08354  0.91423  1.0000
  C   C861      1.0  0.80396  0.13011  0.59622  1.0000
  C   C862      1.0  0.54206  0.08082  0.77778  1.0000
  H   H678      1.0  0.70740  0.11293  0.77555  1.0000
  H   H679      1.0  0.74830  0.11138  0.87964  1.0000
  H   H680      1.0  0.72243  0.09772  0.92708  1.0000
  C   C863      1.0  0.77094  0.13390  0.82299  1.0000
  H   H681      1.0  0.90859  0.12243  0.53061  1.0000
  H   H682      1.0  0.72763  0.12834  0.71297  1.0000
  C   C864      1.0  0.53903  0.01125  0.98606  1.0000
  C   C865      1.0  0.48669  0.13401  0.79322  1.0000
  C   C866      1.0  0.48735  0.15766  0.78588  1.0000
  C   C867      1.0  0.77547  0.11250  0.73568  1.0000
  C   C868      1.0  0.77724  0.08993  0.72995  1.0000
  C   C869      1.0  0.80188  0.09211  0.72555  1.0000
  C   C870      1.0  0.82478  0.11690  0.72680  1.0000
  C   C871      1.0  0.82326  0.13977  0.73280  1.0000
  C   C872      1.0  0.79832  0.13733  0.73696  1.0000
  P   P29       1.0  0.85254  0.17222  0.73194  1.0000
  C   C873      1.0  0.84946  0.19463  0.75830  1.0000
  C   C874      1.0  0.88148  0.17051  0.74280  1.0000
  C   C875      1.0  0.89394  0.18051  0.77133  1.0000
  C   C876      1.0  0.91639  0.17925  0.77939  1.0000
  C   C877      1.0  0.92652  0.16790  0.75917  1.0000
  C   C878      1.0  0.91439  0.15810  0.73069  1.0000
  C   C879      1.0  0.89220  0.15972  0.72232  1.0000
  C   C880      1.0  0.86204  0.22175  0.75206  1.0000
  C   C881      1.0  0.86087  0.23926  0.77323  1.0000
  C   C882      1.0  0.84746  0.22995  0.80091  1.0000
  C   C883      1.0  0.83530  0.20310  0.80757  1.0000
  C   C884      1.0  0.83627  0.18545  0.78639  1.0000
  C   C885      1.0  0.85690  0.18491  0.69341  1.0000
  C   C886      1.0  0.88221  0.20308  0.68280  1.0000
  C   C887      1.0  0.88562  0.21327  0.65320  1.0000
  C   C888      1.0  0.86388  0.20543  0.63390  1.0000
  C   C889      1.0  0.83859  0.18758  0.64434  1.0000
  C   C890      1.0  0.83507  0.17730  0.67396  1.0000
  H   H683      1.0  0.75632  0.11070  0.73903  1.0000
  H   H684      1.0  0.75950  0.07071  0.72882  1.0000
  H   H685      1.0  0.80322  0.07458  0.72058  1.0000
  H   H686      1.0  0.84344  0.11790  0.72264  1.0000
  H   H687      1.0  0.79645  0.15463  0.74091  1.0000
  H   H688      1.0  0.88671  0.18965  0.78735  1.0000
  H   H689      1.0  0.92603  0.18729  0.80126  1.0000
  H   H690      1.0  0.94385  0.16685  0.76549  1.0000
  H   H691      1.0  0.92228  0.14938  0.71491  1.0000
  H   H692      1.0  0.88343  0.15258  0.69981  1.0000
  H   H693      1.0  0.87332  0.22967  0.73127  1.0000
  H   H694      1.0  0.87108  0.26025  0.76863  1.0000
  H   H695      1.0  0.84688  0.24366  0.81743  1.0000
  H   H696      1.0  0.82547  0.19617  0.82943  1.0000
  H   H697      1.0  0.82718  0.16482  0.79223  1.0000
  H   H698      1.0  0.89937  0.20959  0.69737  1.0000
  H   H699      1.0  0.90522  0.22735  0.64528  1.0000
  H   H700      1.0  0.86669  0.21324  0.61087  1.0000
  H   H701      1.0  0.82172  0.18159  0.62940  1.0000
  H   H702      1.0  0.81533  0.16344  0.68147  1.0000
  H   H703      1.0  0.71884  0.99114  0.75447  1.0000
  C   C891      1.0  0.68858  0.09683  0.70218  1.0000
  H   H704      1.0  0.73474  0.03222  0.86702  1.0000
  S   S123      1.0  0.95748  0.26074  0.67152  1.0000
  C   C892      1.0  0.74701  0.05353  0.80746  1.0000
  C   C893      1.0  0.75384  0.10701  0.81632  1.0000
  C   C894      1.0  0.84978  0.06651  0.54165  1.0000
  C   C895      1.0  0.83221  0.10371  0.87003  1.0000
  C   C896      1.0  0.53914  0.00848  0.95400  1.0000
  C   C897      1.0  0.72059  0.04627  0.57284  1.0000
  C   C898      1.0  0.71469  0.10070  0.58667  1.0000
  H   H705      1.0  0.71702  0.07919  0.79418  1.0000
  C   C899      1.0  0.71980  0.03534  0.80662  1.0000
  C   C900      1.0  0.79956  0.10651  0.64317  1.0000
  C   C901      1.0  0.81233  0.11049  0.81467  1.0000
  C   C902      1.0  0.57415  0.05425  0.95067  1.0000
  H   H706      1.0  0.96603  0.29851  0.61797  1.0000
  C   C903      1.0  0.75384  0.02631  0.77008  1.0000
  C   C904      1.0  0.83950  0.12127  0.81857  1.0000
  H   H707      1.0  0.50167  0.03474  0.96975  1.0000
  C   C905      1.0  0.49220  0.12610  0.72656  1.0000
  H   H708      1.0  0.49061  0.18203  0.85810  1.0000
  C   C906      1.0  0.73820  0.29231  0.91701  1.0000
  C   C907      1.0  0.61513  0.99731  0.95084  1.0000
  C   C908      1.0  0.71371  0.05101  0.60216  1.0000
  C   C909      1.0  0.74009  0.09120  0.88705  1.0000
  C   C910      1.0  0.73230  0.04676  0.87990  1.0000
  H   H709      1.0  0.65204  0.06399  0.68617  1.0000
  H   H710      1.0  0.70617  0.03850  0.82039  1.0000
  H   H711      1.0  0.77798  0.17359  0.81826  1.0000
  H   H712      1.0  0.83992  0.10108  0.89151  1.0000
  C   C911      1.0  0.50734  0.14975  0.66873  1.0000
  P   P30       1.0  0.75984  0.08217  0.83273  1.0000
  H   H713      1.0  0.55578  0.07374  0.78139  1.0000
  H   H714      1.0  0.76692  0.02282  0.75564  1.0000
  C   C912      1.0  0.87475  0.08791  0.54828  1.0000
  C   C913      1.0  0.76038  0.26877  0.90068  1.0000
  C   C914      1.0  0.88947  0.10552  0.52515  1.0000
  H   H715      1.0  0.83815  0.05314  0.55979  1.0000
  H   H716      1.0  0.48603  0.16252  0.76229  1.0000
  C   C915      1.0  0.79488  0.09611  0.83835  1.0000
  H   H717      1.0  0.77727  0.26850  0.89096  1.0000
  H   H718      1.0  0.67137  0.05713  0.63898  1.0000
  H   H719      1.0  0.73785  0.16024  0.78736  1.0000
  C   C916      1.0  0.76041  0.10044  0.61663  1.0000
  C   C917      1.0  0.72553  0.11887  0.78807  1.0000
  C   C918      1.0  0.71124  0.08792  0.64988  1.0000
  H   H720      1.0  0.67190  0.08732  0.52700  1.0000
  P   P31       1.0  0.72498  0.08463  0.61408  1.0000
  C   C919      1.0  0.68404  0.07238  0.65522  1.0000
  C   C920      1.0  0.52367  0.16156  0.69427  1.0000
  C   C921      1.0  0.48919  0.17512  0.80922  1.0000
  H   H721      1.0  0.50747  0.10245  0.87798  1.0000
  H   H722      1.0  0.56332  0.11458  0.80754  1.0000
  C   C922      1.0  0.73821  0.24485  0.90849  1.0000
  H   H723      1.0  0.80441  0.29170  0.93374  1.0000
  P   P32       1.0  0.48334  0.11070  0.76366  1.0000
  H   H724      1.0  0.69882  0.22598  0.92661  1.0000
  C   C923      1.0  0.67288  0.07656  0.68154  1.0000
  C   C924      1.0  0.48858  0.14507  0.84744  1.0000
  C   C925      1.0  0.48987  0.16884  0.83996  1.0000
  C   C926      1.0  0.71709  0.14082  0.56781  1.0000
  H   H725      1.0  0.88256  0.09118  0.57150  1.0000
  S   S124      1.0  0.87541  0.31114  0.81634  1.0000
  H   H726      1.0  0.73824  0.22647  0.90492  1.0000
  C   C927      1.0  0.69507  0.08600  0.56465  1.0000
  H   H727      1.0  0.76147  0.28657  0.84259  1.0000
  H   H728      1.0  0.93296  0.30841  0.74672  1.0000
  C   C928      1.0  0.55638  0.03039  0.93635  1.0000
  C   C929      1.0  0.47006  0.04338  0.97271  1.0000
  S   S125      1.0  0.95146  0.18808  0.66351  1.0000
  H   H729      1.0  0.70838  0.01881  0.91450  1.0000
  C   C930      1.0  0.48691  0.12767  0.82418  1.0000
  H   H730      1.0  0.78501  0.06196  0.78940  1.0000
  C   C931      1.0  0.80498  0.09276  0.86610  1.0000
  H   H731      1.0  0.48953  0.19328  0.80363  1.0000
  H   H732      1.0  0.80479  0.11305  0.79309  1.0000
  C   C932      1.0  0.68695  0.09875  0.54402  1.0000
  C   C933      1.0  0.72678  0.00835  0.76952  1.0000
  H   H733      1.0  0.73277  0.06251  0.55784  1.0000
  H   H734      1.0  0.48540  0.06498  0.73949  1.0000
  C   C934      1.0  0.48603  0.99890  0.91051  1.0000
  H   H735      1.0  0.94268  0.22844  0.51514  1.0000
  H   H736      1.0  0.74775  0.12113  0.66683  1.0000
  H   H737      1.0  0.58758  0.07094  0.93681  1.0000
  C   C935      1.0  0.77652  0.11792  0.59383  1.0000
  C   C936      1.0  0.55441  0.97926  0.89801  1.0000
  H   H738      1.0  0.81644  0.14352  0.57861  1.0000
  C   C937      1.0  0.71392  0.05741  0.92395  1.0000
  C   C938      1.0  0.77210  0.09431  0.64095  1.0000
  H   H739      1.0  0.77527  0.28226  0.79067  1.0000
  C   C939      1.0  0.71184  0.02048  0.56263  1.0000
  C   C940      1.0  0.78135  0.30037  0.83547  1.0000
  H   H740      1.0  0.70170  0.05123  0.94433  1.0000
  H   H741      1.0  0.73979  0.13972  0.60590  1.0000
  C   C941      1.0  0.71758  0.03911  0.90700  1.0000
  H   H742      1.0  0.69870  0.26802  0.93417  1.0000
  H   H743      1.0  0.81991  0.04631  0.50742  1.0000
  H   H744      1.0  0.69166  0.13596  0.52952  1.0000
  C   C942      1.0  0.94291  0.28657  0.71399  1.0000
  H   H745      1.0  0.72543  0.16203  0.56919  1.0000
  H   H746      1.0  0.58515  0.98070  0.86957  1.0000
  H   H747      1.0  0.76357  0.07374  0.50097  1.0000
  C   C943      1.0  0.76066  0.29276  0.90490  1.0000
  H   H748      1.0  0.71737  0.01694  0.54008  1.0000
  C   C944      1.0  0.78895  0.29807  0.80568  1.0000
  H   H749      1.0  0.50352  0.01171  0.89740  1.0000
  C   C945      1.0  0.95146  0.22638  0.49421  1.0000
  C   C946      1.0  0.57466  0.05653  0.98266  1.0000
  H   H750      1.0  0.95625  0.26610  0.57581  1.0000
  C   C947      1.0  0.47616  0.11404  0.70069  1.0000
  C   C948      1.0  0.69014  0.00381  0.61126  1.0000
  H   H751      1.0  0.47819  0.05850  0.95528  1.0000
  H   H752      1.0  0.67866  0.98730  0.62627  1.0000
  S   S126      1.0  0.68736  0.98074  0.68873  1.0000
  Fe  Fe63      1.0  0.72149  0.98211  0.66072  1.0000
  H   H753      1.0  0.94619  0.30002  0.69543  1.0000
  H   H754      1.0  0.56622  0.98390  0.91875  1.0000
  Fe  Fe64      1.0  0.96093  0.22791  0.64559  1.0000
  H   H755      1.0  0.47117  0.11660  0.65205  1.0000
  H   H756      1.0  0.81006  0.08537  0.49800  1.0000
  H   H757      1.0  0.68999  0.97928  0.57396  1.0000
  C   C949      1.0  0.48321  0.02990  0.98081  1.0000
  C   C950      1.0  0.48594  0.98026  0.93068  1.0000
  H   H758      1.0  0.91930  0.28449  0.98178  1.0000
  H   H759      1.0  0.84232  0.30397  0.96762  1.0000
  C   C951      1.0  0.85417  0.08030  0.48834  1.0000
  H   H760      1.0  0.94831  0.26529  0.98821  1.0000
  Fe  Fe65      1.0  0.51742  0.62379  0.11926  1.0000
  C   C952      1.0  0.51325  0.56543  0.01009  1.0000
  H   H761      1.0  0.48282  0.47531  0.07966  1.0000
  P   P33       1.0  0.48580  0.51656  0.04015  1.0000
  S   S127      1.0  0.55849  0.62900  0.11756  1.0000
  H   H762      1.0  0.93562  0.35620  0.00994  1.0000
  C   C953      1.0  0.90316  0.53474  0.01943  1.0000
  H   H763      1.0  0.58005  0.60427  0.05066  1.0000
  H   H764      1.0  0.51708  0.51706  0.16409  1.0000
  C   C954      1.0  0.54430  0.62155  0.21703  1.0000
  H   H765      1.0  0.91694  0.54561  0.06640  1.0000
  C   C955      1.0  0.51580  0.54054  0.12708  1.0000
  C   C956      1.0  0.49845  0.59458  0.20218  1.0000
  C   C957      1.0  0.95269  0.50457  0.04618  1.0000
  H   H766      1.0  0.92172  0.42501  0.06522  1.0000
  C   C958      1.0  0.96316  0.54997  0.04112  1.0000
  C   C959      1.0  0.49961  0.49362  0.12321  1.0000
  C   C960      1.0  0.88911  0.47517  0.06111  1.0000
  H   H767      1.0  0.72504  0.59890  0.25389  1.0000
  C   C961      1.0  0.49236  0.61219  0.21716  1.0000
  H   H768      1.0  0.95910  0.56472  0.03194  1.0000
  H   H769      1.0  0.83168  0.41632  0.06281  1.0000
  H   H770      1.0  0.56723  0.52212  0.99943  1.0000
  C   C962      1.0  0.75716  0.62163  0.33458  1.0000
  C   C963      1.0  0.47697  0.55888  0.04264  1.0000
  H   H771      1.0  0.56452  0.62565  0.21624  1.0000
  H   H772      1.0  0.80420  0.62956  0.27503  1.0000
  C   C964      1.0  0.88915  0.48140  0.03003  1.0000
  C   C965      1.0  0.95961  0.43721  0.08576  1.0000
  C   C966      1.0  0.52430  0.59923  0.20219  1.0000
  C   C967      1.0  0.53160  0.51920  0.01758  1.0000
  P   P34       1.0  0.91529  0.51196  0.01494  1.0000
  C   C968      1.0  0.50336  0.60067  0.01727  1.0000
  C   C969      1.0  0.48251  0.58456  0.03661  1.0000
  C   C970      1.0  0.94736  0.33760  0.16528  1.0000
  C   C971      1.0  0.50391  0.50468  0.01786  1.0000
  H   H773      1.0  0.87677  0.58359  0.02919  1.0000
  C   C972      1.0  0.59208  0.58984  0.01129  1.0000
  H   H774      1.0  0.68619  0.63690  0.03925  1.0000
  C   C973      1.0  0.76921  0.63771  0.30907  1.0000
  C   C974      1.0  0.94272  0.43391  0.06130  1.0000
  H   H775      1.0  0.48350  0.57770  0.18955  1.0000
  H   H776      1.0  0.70380  0.57084  0.29923  1.0000
  C   C975      1.0  0.49087  0.48013  0.00257  1.0000
  S   S128      1.0  0.48407  0.58003  0.12521  1.0000
  C   C976      1.0  0.95306  0.61379  0.99946  1.0000
  H   H777      1.0  0.52578  0.55890  0.99985  1.0000
  H   H778      1.0  0.94018  0.48377  0.04119  1.0000
  H   H779      1.0  0.72434  0.58537  0.35081  1.0000
  C   C977      1.0  0.87920  0.55538  0.99936  1.0000
  C   C978      1.0  0.51855  0.59102  0.00384  1.0000
  H   H780      1.0  0.49622  0.47541  0.13351  1.0000
  H   H781      1.0  0.84264  0.62633  0.25839  1.0000
  C   C979      1.0  0.94569  0.52296  0.03597  1.0000
  C   C980      1.0  0.88366  0.56960  0.02678  1.0000
  C   C981      1.0  0.95294  0.44218  0.03183  1.0000
  H   H782      1.0  0.90476  0.48857  0.07646  1.0000
  H   H783      1.0  0.93736  0.61608  0.00931  1.0000
  C   C982      1.0  0.84718  0.44092  0.02295  1.0000
  C   C983      1.0  0.73407  0.60520  0.27640  1.0000
  C   C984      1.0  0.73367  0.59758  0.33099  1.0000
  C   C985      1.0  0.53846  0.63926  0.23187  1.0000
  H   H784      1.0  0.90064  0.57694  0.07216  1.0000
  C   C986      1.0  0.82361  0.64463  0.28242  1.0000
  C   C987      1.0  0.86855  0.45166  0.07278  1.0000
  C   C988      1.0  0.49204  0.49362  0.09274  1.0000
  C   C989      1.0  0.58596  0.60745  0.02683  1.0000
  C   C990      1.0  0.54589  0.51029  0.00048  1.0000
  C   C991      1.0  0.50832  0.54062  0.09663  1.0000
  C   C992      1.0  0.75756  0.62924  0.27991  1.0000
  H   H785      1.0  0.52473  0.55877  0.14031  1.0000
  C   C993      1.0  0.51139  0.51706  0.14042  1.0000
  H   H786      1.0  0.51200  0.55913  0.08697  1.0000
  H   H787      1.0  0.93968  0.43998  0.01326  1.0000
  C   C994      1.0  0.49248  0.54918  0.02976  1.0000
  H   H788      1.0  0.86866  0.44693  0.09678  1.0000
  C   C995      1.0  0.86770  0.46443  0.01122  1.0000
  H   H789      1.0  0.76573  0.62763  0.35731  1.0000
  C   C996      1.0  0.58780  0.62929  0.01160  1.0000
  C   C997      1.0  0.95160  0.35476  0.99949  1.0000
  H   H790      1.0  0.52895  0.58595  0.18981  1.0000
  H   H791      1.0  0.59095  0.57332  0.02353  1.0000
  C   C998      1.0  0.49602  0.51707  0.07936  1.0000
  H   H792      1.0  0.83077  0.42784  0.00827  1.0000
  C   C999      1.0  0.72210  0.58939  0.30193  1.0000
  H   H793      1.0  0.54220  0.53754  0.03046  1.0000
  C   C1000     1.0  0.90670  0.54836  0.04737  1.0000
  C   C1001     1.0  0.89723  0.56594  0.05087  1.0000
  C   C1002     1.0  0.51264  0.63473  0.23177  1.0000
  H   H794      1.0  0.94486  0.35059  0.18108  1.0000
  H   H795      1.0  0.95179  0.43083  0.10861  1.0000
  C   C1003     1.0  0.84767  0.43446  0.05368  1.0000
  C   C1004     1.0  0.88871  0.53787  0.99573  1.0000
  H   H796      1.0  0.65875  0.63648  0.08261  1.0000
  H   H797      1.0  0.50810  0.62080  0.01309  1.0000
  H   H798      1.0  0.65606  0.60709  0.99312  1.0000
  H   H799      1.0  0.47100  0.59214  0.04757  1.0000
  H   H800      1.0  0.47423  0.60648  0.27866  1.0000
  H   H801      1.0  0.53494  0.60372  0.98919  1.0000
  H   H802      1.0  0.46970  0.46775  0.00373  1.0000
  H   H803      1.0  0.76659  0.64134  0.25991  1.0000
  C   C1005     1.0  0.84542  0.64268  0.27290  1.0000
  Fe  Fe66      1.0  0.89283  0.57885  0.83219  1.0000
  S   S129      1.0  0.87891  0.59213  0.87344  1.0000
  S   S130      1.0  0.89962  0.59900  0.78447  1.0000
  Fe  Fe67      1.0  0.88124  0.52575  0.86381  1.0000
  S   S131      1.0  0.86650  0.53690  0.90616  1.0000
  S   S132      1.0  0.87696  0.48387  0.86848  1.0000
  Fe  Fe68      1.0  0.84474  0.55049  0.87532  1.0000
  S   S133      1.0  0.79978  0.53423  0.87934  1.0000
  Fe  Fe69      1.0  0.90183  0.57756  0.90153  1.0000
  S   S134      1.0  0.92224  0.59852  0.94692  1.0000
  S   S135      1.0  0.85755  0.53731  0.83324  1.0000
  S   S136      1.0  0.91778  0.56641  0.86019  1.0000
  Fe  Fe70      1.0  0.89386  0.34879  0.84552  1.0000
  C   C1006     1.0  0.81870  0.31235  0.93676  1.0000
  S   S137      1.0  0.90022  0.38986  0.83040  1.0000
  C   C1007     1.0  0.78312  0.38733  0.86824  1.0000
  H   H804      1.0  0.65300  0.56411  0.98418  1.0000
  S   S138      1.0  0.92863  0.34367  0.85853  1.0000
  Fe  Fe71      1.0  0.62347  0.56662  0.91473  1.0000
  S   S139      1.0  0.60287  0.56315  0.86992  1.0000
  S   S140      1.0  0.60729  0.57044  0.96192  1.0000
  Fe  Fe72      1.0  0.66576  0.55628  0.88240  1.0000
  S   S141      1.0  0.64632  0.55138  0.83607  1.0000
  S   S142      1.0  0.70906  0.56579  0.88844  1.0000
  Fe  Fe73      1.0  0.64344  0.58726  0.84875  1.0000
  S   S143      1.0  0.66028  0.62747  0.82453  1.0000
  Fe  Fe74      1.0  0.60709  0.52720  0.86107  1.0000
  S   S144      1.0  0.57090  0.48991  0.84004  1.0000
  S   S145      1.0  0.66354  0.59262  0.89445  1.0000
  S   S146      1.0  0.62691  0.53009  0.90664  1.0000
  C   C1008     1.0  0.78349  0.35092  0.89433  1.0000
  C   C1009     1.0  0.54408  0.45791  0.85073  1.0000
  C   C1010     1.0  0.52384  0.44312  0.82919  1.0000
  C   C1011     1.0  0.50242  0.41777  0.83618  1.0000
  C   C1012     1.0  0.50073  0.40648  0.86493  1.0000
  C   C1013     1.0  0.52094  0.42128  0.88654  1.0000
  C   C1014     1.0  0.54235  0.44671  0.87961  1.0000
  H   H805      1.0  0.52479  0.45130  0.80675  1.0000
  H   H806      1.0  0.55100  0.50273  0.89878  1.0000
  H   H807      1.0  0.52009  0.41296  0.90887  1.0000
  H   H808      1.0  0.55760  0.45752  0.89655  1.0000
  C   C1015     1.0  0.77503  0.54368  0.88224  1.0000
  C   C1016     1.0  0.74832  0.52420  0.87824  1.0000
  C   C1017     1.0  0.72795  0.53050  0.88005  1.0000
  C   C1018     1.0  0.73390  0.55643  0.88631  1.0000
  C   C1019     1.0  0.76059  0.57591  0.89043  1.0000
  C   C1020     1.0  0.78100  0.56964  0.88836  1.0000
  H   H809      1.0  0.74330  0.50404  0.87363  1.0000
  H   H810      1.0  0.70762  0.51522  0.87686  1.0000
  H   H811      1.0  0.76555  0.59606  0.89515  1.0000
  H   H812      1.0  0.80132  0.58489  0.89171  1.0000
  C   C1021     1.0  0.88377  0.45800  0.85749  1.0000
  C   C1022     1.0  0.87453  0.43537  0.87597  1.0000
  C   C1023     1.0  0.87964  0.41468  0.86838  1.0000
  C   C1024     1.0  0.89367  0.41584  0.84178  1.0000
  C   C1025     1.0  0.90296  0.43850  0.82339  1.0000
  C   C1026     1.0  0.89823  0.45940  0.83119  1.0000
  H   H813      1.0  0.86351  0.43392  0.89650  1.0000
  H   H814      1.0  0.87284  0.39781  0.88309  1.0000
  H   H815      1.0  0.91400  0.43995  0.80285  1.0000
  H   H816      1.0  0.90575  0.47656  0.81672  1.0000
  H   H817      1.0  0.71017  0.62734  0.84845  1.0000
  H   H818      1.0  0.91817  0.46219  0.92376  1.0000
  C   C1027     1.0  0.60131  0.61512  0.96491  1.0000
  C   C1028     1.0  0.67709  0.63764  0.73236  1.0000
  H   H819      1.0  0.77733  0.41418  0.89690  1.0000
  H   H820      1.0  0.60673  0.61808  0.94096  1.0000
  C   C1029     1.0  0.93734  0.40459  0.93775  1.0000
  H   H821      1.0  0.70586  0.45741  0.74942  1.0000
  C   C1030     1.0  0.94833  0.34415  0.96950  1.0000
  H   H822      1.0  0.49512  0.45218  0.97394  1.0000
  H   H823      1.0  0.85154  0.60779  0.74915  1.0000
  C   C1031     1.0  0.82480  0.33791  0.84508  1.0000
  C   C1032     1.0  0.95073  0.60483  0.96883  1.0000
  H   H824      1.0  0.71239  0.49960  0.77137  1.0000
  S   S147      1.0  0.91718  0.33183  0.95033  1.0000
  H   H825      1.0  0.50626  0.46513  0.88970  1.0000
  H   H826      1.0  0.47364  0.50603  0.93982  1.0000
  H   H827      1.0  0.63784  0.63227  0.88752  1.0000
  C   C1033     1.0  0.81436  0.31574  0.79551  1.0000
  H   H828      1.0  0.46766  0.41434  0.90589  1.0000
  H   H829      1.0  0.65577  0.60437  0.76270  1.0000
  H   H830      1.0  0.72036  0.63488  0.70028  1.0000
  C   C1034     1.0  0.59554  0.63293  0.98054  1.0000
  C   C1035     1.0  0.77381  0.61678  0.72110  1.0000
  C   C1036     1.0  0.83604  0.35850  0.92512  1.0000
  H   H831      1.0  0.88500  0.52712  0.97423  1.0000
  Fe  Fe75      1.0  0.90422  0.32154  0.89941  1.0000
  C   C1037     1.0  0.77883  0.39645  0.89619  1.0000
  H   H832      1.0  0.93553  0.54906  0.96399  1.0000
  C   C1038     1.0  0.93179  0.53003  0.95558  1.0000
  C   C1039     1.0  0.74576  0.50654  0.79901  1.0000
  H   H833      1.0  0.79266  0.63612  0.80535  1.0000
  H   H834      1.0  0.88080  0.51603  0.75182  1.0000
  H   H835      1.0  0.48140  0.46983  0.79602  1.0000
  H   H836      1.0  0.83902  0.35355  0.85982  1.0000
  H   H837      1.0  0.92473  0.38345  0.94013  1.0000
  C   C1040     1.0  0.78519  0.36455  0.86720  1.0000
  C   C1041     1.0  0.76250  0.49712  0.80768  1.0000
  C   C1042     1.0  0.80763  0.46963  0.86412  1.0000
  C   C1043     1.0  0.50524  0.47103  0.98592  1.0000
  C   C1044     1.0  0.81649  0.33193  0.92076  1.0000
  C   C1045     1.0  0.81064  0.47287  0.89597  1.0000
  C   C1046     1.0  0.67415  0.64105  0.78796  1.0000
  C   C1047     1.0  0.80403  0.57553  0.81164  1.0000
  C   C1048     1.0  0.80987  0.56390  0.78702  1.0000
  C   C1049     1.0  0.79672  0.55995  0.75899  1.0000
  C   C1050     1.0  0.77813  0.56813  0.75544  1.0000
  C   C1051     1.0  0.77306  0.58098  0.77967  1.0000
  C   C1052     1.0  0.78545  0.58370  0.80818  1.0000
  P   P35       1.0  0.74830  0.59061  0.77512  1.0000
  H   H838      1.0  0.85175  0.34961  0.80702  1.0000
  C   C1053     1.0  0.61601  0.63789  0.75955  1.0000
  C   C1054     1.0  0.92186  0.50830  0.97524  1.0000
  H   H839      1.0  0.84964  0.53276  0.74711  1.0000
  H   H840      1.0  0.79319  0.47545  0.93845  1.0000
  H   H841      1.0  0.51857  0.54368  0.94805  1.0000
  H   H842      1.0  0.77864  0.35052  0.94362  1.0000
  H   H843      1.0  0.80089  0.55046  0.74008  1.0000
  H   H844      1.0  0.73038  0.35046  0.78190  1.0000
  C   C1055     1.0  0.53756  0.52561  0.92395  1.0000
  C   C1056     1.0  0.50863  0.48214  0.90252  1.0000
  C   C1057     1.0  0.79041  0.47189  0.91392  1.0000
  C   C1058     1.0  0.71697  0.56047  0.77711  1.0000
  C   C1059     1.0  0.70893  0.54729  0.80517  1.0000
  C   C1060     1.0  0.68440  0.52436  0.80774  1.0000
  C   C1061     1.0  0.66778  0.51427  0.78215  1.0000
  C   C1062     1.0  0.67592  0.52693  0.75385  1.0000
  C   C1063     1.0  0.70052  0.54991  0.75124  1.0000
  H   H845      1.0  0.81378  0.57793  0.83359  1.0000
  H   H846      1.0  0.82444  0.55780  0.78989  1.0000
  H   H847      1.0  0.92486  0.40477  0.89131  1.0000
  H   H848      1.0  0.95448  0.40963  0.98252  1.0000
  H   H849      1.0  0.78059  0.59172  0.82796  1.0000
  C   C1064     1.0  0.75002  0.61299  0.80508  1.0000
  C   C1065     1.0  0.86128  0.50505  0.76173  1.0000
  H   H850      1.0  0.75149  0.46709  0.91385  1.0000
  H   H851      1.0  0.86250  0.62028  0.80375  1.0000
  H   H852      1.0  0.71555  0.60943  0.74717  1.0000
  C   C1066     1.0  0.84364  0.51443  0.75903  1.0000
  C   C1067     1.0  0.77687  0.38292  0.92323  1.0000
  H   H853      1.0  0.87306  0.38572  0.94682  1.0000
  C   C1068     1.0  0.91762  0.48394  0.96381  1.0000
  C   C1069     1.0  0.77942  0.36038  0.92237  1.0000
  H   H854      1.0  0.72141  0.55520  0.82528  1.0000
  H   H855      1.0  0.67803  0.51488  0.82985  1.0000
  H   H856      1.0  0.64845  0.49686  0.78439  1.0000
  H   H857      1.0  0.66294  0.51914  0.73407  1.0000
  H   H858      1.0  0.70641  0.55944  0.72918  1.0000
  H   H859      1.0  0.83497  0.37400  0.91300  1.0000
  C   C1070     1.0  0.75161  0.60822  0.74000  1.0000
  C   C1071     1.0  0.85979  0.34564  0.95991  1.0000
  H   H860      1.0  0.90138  0.61676  0.72229  1.0000
  H   H861      1.0  0.80574  0.50881  0.77089  1.0000
  C   C1072     1.0  0.95466  0.44361  0.90640  1.0000
  H   H862      1.0  0.82905  0.47686  0.90655  1.0000
  H   H863      1.0  0.74549  0.46031  0.85793  1.0000
  C   C1073     1.0  0.83211  0.33585  0.81505  1.0000
  C   C1074     1.0  0.71620  0.62830  0.96048  1.0000
  C   C1075     1.0  0.82909  0.46811  0.79135  1.0000
  H   H864      1.0  0.77378  0.39015  0.94494  1.0000
  H   H865      1.0  0.86779  0.47476  0.78028  1.0000
  C   C1076     1.0  0.81879  0.50084  0.77280  1.0000
  H   H866      1.0  0.74000  0.41370  0.84103  1.0000
  H   H867      1.0  0.55728  0.54211  0.92786  1.0000
  C   C1077     1.0  0.81145  0.47776  0.78951  1.0000
  C   C1078     1.0  0.73241  0.61498  0.73240  1.0000
  H   H868      1.0  0.78411  0.43049  0.75664  1.0000
  H   H869      1.0  0.74856  0.52487  0.80882  1.0000
  C   C1079     1.0  0.84023  0.31923  0.95625  1.0000
  C   C1080     1.0  0.73829  0.45886  0.77460  1.0000
  C   C1081     1.0  0.69551  0.62995  0.97472  1.0000
  H   H870      1.0  0.54381  0.47944  0.97116  1.0000
  H   H871      1.0  0.78533  0.39819  0.84738  1.0000
  C   C1082     1.0  0.49024  0.50512  0.93044  1.0000
  C   C1083     1.0  0.72171  0.46849  0.76569  1.0000
  C   C1084     1.0  0.59985  0.59352  0.98022  1.0000
  H   H872      1.0  0.71885  0.36613  0.82939  1.0000
  C   C1085     1.0  0.53403  0.50340  0.90766  1.0000
  C   C1086     1.0  0.93169  0.50281  0.91331  1.0000
  H   H873      1.0  0.73502  0.44035  0.76495  1.0000
  H   H874      1.0  0.79314  0.63715  0.67971  1.0000
  P   P36       1.0  0.78958  0.32346  0.89406  1.0000
  H   H875      1.0  0.82396  0.45031  0.80397  1.0000
  C   C1087     1.0  0.73501  0.62936  0.70584  1.0000
  H   H876      1.0  0.72995  0.60248  0.94367  1.0000
  C   C1088     1.0  0.93750  0.41659  0.91014  1.0000
  C   C1089     1.0  0.91720  0.63139  0.76753  1.0000
  H   H877      1.0  0.48741  0.40674  0.81908  1.0000
  H   H878      1.0  0.77835  0.50853  0.82378  1.0000
  S   S148      1.0  0.86994  0.32728  0.88659  1.0000
  H   H879      1.0  0.93465  0.50051  0.88913  1.0000
  C   C1090     1.0  0.85396  0.48183  0.77776  1.0000
  C   C1091     1.0  0.72538  0.49226  0.77800  1.0000
  C   C1092     1.0  0.91417  0.63413  0.73582  1.0000
  C   C1093     1.0  0.51569  0.52643  0.93541  1.0000
  H   H880      1.0  0.82393  0.47119  0.85099  1.0000
  H   H881      1.0  0.76292  0.38279  0.74561  1.0000
  C   C1094     1.0  0.75810  0.38963  0.76652  1.0000
  C   C1095     1.0  0.73975  0.37142  0.78694  1.0000
  C   C1096     1.0  0.73329  0.38025  0.81370  1.0000
  C   C1097     1.0  0.74542  0.40729  0.82028  1.0000
  C   C1098     1.0  0.76439  0.42570  0.80027  1.0000
  C   C1099     1.0  0.77021  0.41669  0.77298  1.0000
  P   P37       1.0  0.77982  0.46062  0.80859  1.0000
  C   C1100     1.0  0.75871  0.47306  0.79589  1.0000
  C   C1101     1.0  0.78420  0.46512  0.84985  1.0000
  C   C1102     1.0  0.76374  0.46362  0.86820  1.0000
  C   C1103     1.0  0.76691  0.46713  0.90005  1.0000
  H   H882      1.0  0.76769  0.56442  0.73379  1.0000
  H   H883      1.0  0.70756  0.59561  0.80952  1.0000
  C   C1104     1.0  0.72683  0.61101  0.81712  1.0000
  H   H884      1.0  0.91066  0.46705  0.97867  1.0000
  H   H885      1.0  0.78876  0.35812  0.84524  1.0000
  C   C1105     1.0  0.92224  0.48117  0.93284  1.0000
  H   H886      1.0  0.59566  0.61295  0.72070  1.0000
  C   C1106     1.0  0.53271  0.48625  0.98456  1.0000
  C   C1107     1.0  0.85376  0.62630  0.75750  1.0000
  C   C1108     1.0  0.72821  0.62914  0.83920  1.0000
  C   C1109     1.0  0.48650  0.48307  0.91329  1.0000
  C   C1110     1.0  0.93655  0.52725  0.92470  1.0000
  C   C1111     1.0  0.85763  0.36529  0.94447  1.0000
  H   H887      1.0  0.65413  0.62555  0.93679  1.0000
  H   H888      1.0  0.67153  0.62544  0.71183  1.0000
  C   C1112     1.0  0.85170  0.64356  0.73721  1.0000
  H   H889      1.0  0.61149  0.62159  0.77475  1.0000
  C   C1113     1.0  0.66817  0.62556  0.76125  1.0000
  H   H890      1.0  0.78966  0.61325  0.72713  1.0000
  C   C1114     1.0  0.77456  0.63386  0.81484  1.0000
  H   H891      1.0  0.94351  0.54394  0.90945  1.0000
  C   C1115     1.0  0.71427  0.60376  0.95538  1.0000
  C   C1116     1.0  0.75677  0.63712  0.68671  1.0000
  C   C1117     1.0  0.67094  0.58206  0.97821  1.0000
  H   H892      1.0  0.84731  0.63783  0.71330  1.0000
  H   H893      1.0  0.68986  0.56163  0.95918  1.0000
  C   C1118     1.0  0.69163  0.58065  0.96414  1.0000
  C   C1119     1.0  0.77611  0.63078  0.69431  1.0000
  C   C1120     1.0  0.67279  0.60656  0.98333  1.0000
  C   C1121     1.0  0.79943  0.31997  0.85570  1.0000
  H   H894      1.0  0.86903  0.55851  0.98048  1.0000
  S   S149      1.0  0.47403  0.37428  0.87523  1.0000
  H   H895      1.0  0.82042  0.31376  0.77261  1.0000
  C   C1122     1.0  0.86002  0.63337  0.78836  1.0000
  H   H896      1.0  0.48073  0.48440  0.84905  1.0000
  C   C1123     1.0  0.60729  0.63308  0.72907  1.0000
  H   H897      1.0  0.87698  0.35070  0.97402  1.0000
  H   H898      1.0  0.86672  0.46946  0.98754  1.0000
  C   C1124     1.0  0.95414  0.41960  0.96181  1.0000
  H   H899      1.0  0.95515  0.45263  0.88458  1.0000
  C   C1125     1.0  0.46900  0.45554  0.81295  1.0000
  C   C1126     1.0  0.46871  0.46367  0.84317  1.0000
  H   H900      1.0  0.96711  0.33410  0.93365  1.0000
  C   C1127     1.0  0.66279  0.64530  0.92772  1.0000
  C   C1128     1.0  0.89679  0.71275  0.41606  1.0000
  C   C1129     1.0  0.57406  0.78421  0.20581  1.0000
  C   C1130     1.0  0.77433  0.83863  0.43309  1.0000
  C   C1131     1.0  0.56631  0.85232  0.20292  1.0000
  C   C1132     1.0  0.49424  0.76682  0.21773  1.0000
  P   P38       1.0  0.69513  0.80199  0.21677  1.0000
  Fe  Fe76      1.0  0.94669  0.76134  0.33719  1.0000
  S   S150      1.0  0.90251  0.74666  0.34251  1.0000
  H   H901      1.0  0.47064  0.91833  0.02788  1.0000
  Fe  Fe77      1.0  0.74098  0.74265  0.37659  1.0000
  S   S151      1.0  0.76997  0.78592  0.37253  1.0000
  S   S152      1.0  0.73968  0.72153  0.42091  1.0000
  Fe  Fe78      1.0  0.72475  0.73693  0.30744  1.0000
  S   S153      1.0  0.75355  0.77994  0.29950  1.0000
  S   S154      1.0  0.70289  0.71061  0.26544  1.0000
  Fe  Fe79      1.0  0.78247  0.77456  0.32868  1.0000
  S   S155      1.0  0.82582  0.79269  0.31474  1.0000
  Fe  Fe80      1.0  0.73848  0.78692  0.34388  1.0000
  S   S156      1.0  0.72134  0.81380  0.35084  1.0000
  S   S157      1.0  0.75486  0.73119  0.33384  1.0000
  S   S158      1.0  0.70828  0.74405  0.35090  1.0000
  H   H902      1.0  0.78146  0.70991  0.40335  1.0000
  H   H903      1.0  0.68217  0.68610  0.20657  1.0000
  C   C1133     1.0  0.80854  0.69645  0.41489  1.0000
  Fe  Fe81      1.0  0.75579  0.95847  0.32949  1.0000
  S   S159      1.0  0.77739  0.93588  0.32099  1.0000
  S   S160      1.0  0.71213  0.93987  0.33582  1.0000
  Fe  Fe82      1.0  0.56204  0.90824  0.14327  1.0000
  S   S161      1.0  0.58516  0.90756  0.10236  1.0000
  S   S162      1.0  0.57765  0.91787  0.19321  1.0000
  Fe  Fe83      1.0  0.51067  0.88995  0.10446  1.0000
  S   S163      1.0  0.53109  0.88700  0.06175  1.0000
  Fe  Fe84      1.0  0.54886  0.86803  0.09145  1.0000
  S   S164      1.0  0.55335  0.83267  0.07455  1.0000
  Fe  Fe85      1.0  0.56543  0.92637  0.07596  1.0000
  S   S165      1.0  0.58280  0.96481  0.04787  1.0000
  S   S166      1.0  0.52614  0.86819  0.13306  1.0000
  S   S167      1.0  0.54455  0.92964  0.11810  1.0000
  H   H904      1.0  0.62685  0.75029  0.31722  1.0000
  S   S168      1.0  0.58170  0.69254  0.10640  1.0000
  S   S169      1.0  0.59641  0.68292  0.19234  1.0000
  Fe  Fe86      1.0  0.54029  0.68518  0.11113  1.0000
  S   S170      1.0  0.53131  0.71902  0.12157  1.0000
  C   C1134     1.0  0.89702  0.73573  0.42559  1.0000
  C   C1135     1.0  0.63005  0.85114  0.23770  1.0000
  C   C1136     1.0  0.54863  0.80189  0.08899  1.0000
  C   C1137     1.0  0.55529  0.78626  0.07033  1.0000
  C   C1138     1.0  0.55089  0.76133  0.08011  1.0000
  C   C1139     1.0  0.53937  0.75133  0.10868  1.0000
  C   C1140     1.0  0.53300  0.76711  0.12751  1.0000
  C   C1141     1.0  0.53783  0.79222  0.11791  1.0000
  C   C1142     1.0  0.85594  0.77070  0.42992  1.0000
  S   S171      1.0  0.53134  0.65848  0.15204  1.0000
  H   H905      1.0  0.52413  0.75976  0.14965  1.0000
  H   H906      1.0  0.53289  0.80402  0.13259  1.0000
  C   C1143     1.0  0.65950  0.94759  0.23943  1.0000
  C   C1144     1.0  0.63683  0.93995  0.25702  1.0000
  C   C1145     1.0  0.61207  0.93081  0.24250  1.0000
  C   C1146     1.0  0.60948  0.92921  0.21021  1.0000
  C   C1147     1.0  0.63217  0.93688  0.19267  1.0000
  C   C1148     1.0  0.65691  0.94599  0.20718  1.0000
  P   P39       1.0  0.60637  0.83943  0.20652  1.0000
  H   H907      1.0  0.57785  0.73502  0.16782  1.0000
  H   H908      1.0  0.63066  0.93601  0.16788  1.0000
  C   C1149     1.0  0.83129  0.76783  0.42313  1.0000
  C   C1150     1.0  0.73665  0.84714  0.33993  1.0000
  C   C1151     1.0  0.72328  0.86107  0.34523  1.0000
  C   C1152     1.0  0.73537  0.88812  0.33888  1.0000
  C   C1153     1.0  0.76112  0.90157  0.32760  1.0000
  C   C1154     1.0  0.77431  0.88750  0.32166  1.0000
  C   C1155     1.0  0.76205  0.86029  0.32761  1.0000
  H   H909      1.0  0.70358  0.85096  0.35466  1.0000
  H   H910      1.0  0.72489  0.89861  0.34325  1.0000
  H   H911      1.0  0.79417  0.89774  0.31272  1.0000
  H   H912      1.0  0.77248  0.84967  0.32340  1.0000
  C   C1156     1.0  0.67347  0.70376  0.24518  1.0000
  H   H913      1.0  0.85593  0.70136  0.32459  1.0000
  H   H914      1.0  0.70240  0.75669  0.22435  1.0000
  C   C1157     1.0  0.62645  0.69075  0.21180  1.0000
  C   C1158     1.0  0.63177  0.70348  0.24072  1.0000
  C   C1159     1.0  0.65514  0.71011  0.25718  1.0000
  H   H915      1.0  0.72700  0.84329  0.26167  1.0000
  C   C1160     1.0  0.67709  0.78795  0.12500  1.0000
  H   H916      1.0  0.61764  0.70818  0.25056  1.0000
  H   H917      1.0  0.65872  0.71964  0.27945  1.0000
  C   C1161     1.0  0.88250  0.76125  0.33629  1.0000
  C   C1162     1.0  0.85673  0.74862  0.34815  1.0000
  C   C1163     1.0  0.83925  0.75804  0.34193  1.0000
  C   C1164     1.0  0.84744  0.78053  0.32406  1.0000
  C   C1165     1.0  0.87343  0.79357  0.31280  1.0000
  C   C1166     1.0  0.89088  0.78401  0.31883  1.0000
  H   H918      1.0  0.85015  0.73128  0.36205  1.0000
  H   H919      1.0  0.81934  0.74774  0.35062  1.0000
  H   H920      1.0  0.88003  0.81100  0.29896  1.0000
  H   H921      1.0  0.91060  0.79397  0.30948  1.0000
  H   H922      1.0  0.89946  0.81901  0.44432  1.0000
  C   C1167     1.0  0.61652  0.86540  0.11791  1.0000
  H   H923      1.0  0.68776  0.88055  0.19110  1.0000
  C   C1168     1.0  0.61378  0.80193  0.17524  1.0000
  C   C1169     1.0  0.73539  0.73101  0.45839  1.0000
  C   C1170     1.0  0.72682  0.74919  0.46318  1.0000
  H   H924      1.0  0.55426  0.65703  0.24236  1.0000
  H   H925      1.0  0.72359  0.75851  0.44364  1.0000
  C   C1171     1.0  0.69663  0.87245  0.20607  1.0000
  H   H926      1.0  0.80342  0.74259  0.99595  1.0000
  H   H927      1.0  0.63776  0.77657  0.22395  1.0000
  C   C1172     1.0  0.48364  0.78599  0.07795  1.0000
  C   C1173     1.0  0.67345  0.78505  0.24837  1.0000
  C   C1174     1.0  0.63979  0.76020  0.29810  1.0000
  C   C1175     1.0  0.66695  0.77064  0.30137  1.0000
  C   C1176     1.0  0.68378  0.78309  0.27667  1.0000
  C   C1177     1.0  0.72433  0.79911  0.21896  1.0000
  C   C1178     1.0  0.76916  0.79340  0.22041  1.0000
  C   C1179     1.0  0.77195  0.81838  0.21684  1.0000
  C   C1180     1.0  0.74962  0.82124  0.21573  1.0000
  H   H928      1.0  0.67505  0.76898  0.32308  1.0000
  H   H929      1.0  0.70481  0.79119  0.27985  1.0000
  H   H930      1.0  0.78645  0.79123  0.22171  1.0000
  H   H931      1.0  0.79145  0.83555  0.21505  1.0000
  H   H932      1.0  0.75225  0.84068  0.21228  1.0000
  C   C1181     1.0  0.91733  0.81845  0.43981  1.0000
  C   C1182     1.0  0.77416  0.85577  0.41117  1.0000
  S   S172      1.0  0.52310  0.64969  0.07855  1.0000
  H   H933      1.0  0.77802  0.89370  0.40287  1.0000
  H   H934      1.0  0.77058  0.84964  0.38731  1.0000
  H   H935      1.0  0.77069  0.81925  0.42615  1.0000
  H   H936      1.0  0.58934  0.83078  0.14234  1.0000
  C   C1183     1.0  0.63872  0.89055  0.11973  1.0000
  C   C1184     1.0  0.47236  0.81987  0.06890  1.0000
  H   H937      1.0  0.64573  0.90261  0.09936  1.0000
  C   C1185     1.0  0.78918  0.69183  0.36446  1.0000
  P   P40       1.0  0.89329  0.76922  0.46844  1.0000
  C   C1186     1.0  0.68063  0.81935  0.48382  1.0000
  C   C1187     1.0  0.80290  0.67952  0.35336  1.0000
  P   P41       1.0  0.69541  0.87097  0.46758  1.0000
  C   C1188     1.0  0.66817  0.86789  0.44485  1.0000
  C   C1189     1.0  0.72494  0.89929  0.45324  1.0000
  C   C1190     1.0  0.72982  0.90212  0.42149  1.0000
  C   C1191     1.0  0.75093  0.92531  0.40995  1.0000
  C   C1192     1.0  0.76694  0.94604  0.42983  1.0000
  C   C1193     1.0  0.76206  0.94358  0.46130  1.0000
  C   C1194     1.0  0.81880  0.67495  0.37370  1.0000
  C   C1195     1.0  0.64672  0.84305  0.43689  1.0000
  C   C1196     1.0  0.62627  0.84122  0.41847  1.0000
  C   C1197     1.0  0.62708  0.86412  0.40791  1.0000
  C   C1198     1.0  0.64828  0.88885  0.41590  1.0000
  C   C1199     1.0  0.66864  0.89069  0.43434  1.0000
  C   C1200     1.0  0.69582  0.84033  0.46385  1.0000
  C   C1201     1.0  0.70921  0.83623  0.43958  1.0000
  C   C1202     1.0  0.70735  0.81163  0.43536  1.0000
  C   C1203     1.0  0.67911  0.79490  0.47972  1.0000
  H   H938      1.0  0.77963  0.83291  0.48039  1.0000
  Fe  Fe87      1.0  0.56419  0.65507  0.07715  1.0000
  H   H939      1.0  0.93590  0.85596  0.41690  1.0000
  H   H940      1.0  0.52838  0.79637  0.19382  1.0000
  H   H941      1.0  0.71672  0.88692  0.40549  1.0000
  H   H942      1.0  0.75435  0.92769  0.38545  1.0000
  H   H943      1.0  0.66136  0.90367  0.28694  1.0000
  H   H944      1.0  0.57390  0.86072  0.18061  1.0000
  C   C1204     1.0  0.81154  0.75836  0.44536  1.0000
  H   H945      1.0  0.82907  0.66488  0.36604  1.0000
  H   H946      1.0  0.60985  0.82204  0.41224  1.0000
  H   H947      1.0  0.61135  0.86275  0.39351  1.0000
  H   H948      1.0  0.64917  0.90675  0.40773  1.0000
  H   H949      1.0  0.68489  0.90998  0.44033  1.0000
  C   C1205     1.0  0.66030  0.64752  0.06212  1.0000
  H   H950      1.0  0.71725  0.80840  0.41620  1.0000
  C   C1206     1.0  0.52413  0.92797  0.99327  1.0000
  C   C1207     1.0  0.88598  0.69580  0.46772  1.0000
  H   H951      1.0  0.78657  0.90784  0.45723  1.0000
  P   P42       1.0  0.79929  0.66904  0.31358  1.0000
  H   H952      1.0  0.50325  0.81076  0.16199  1.0000
  H   H953      1.0  0.63498  0.81686  0.23838  1.0000
  C   C1208     1.0  0.63719  0.87534  0.25224  1.0000
  C   C1209     1.0  0.56821  0.83142  0.24988  1.0000
  H   H954      1.0  0.66641  0.83291  0.28179  1.0000
  C   C1210     1.0  0.96451  0.81863  0.42928  1.0000
  H   H955      1.0  0.50701  0.97559  0.10026  1.0000
  C   C1211     1.0  0.94367  0.79724  0.44393  1.0000
  H   H956      1.0  0.75458  0.67484  0.29259  1.0000
  C   C1212     1.0  0.89218  0.73911  0.45639  1.0000
  H   H957      1.0  0.89420  0.69798  0.30762  1.0000
  C   C1213     1.0  0.49252  0.96703  0.08195  1.0000
  H   H958      1.0  0.83963  0.71932  0.28646  1.0000
  H   H959      1.0  0.90126  0.75098  0.40893  1.0000
  C   C1214     1.0  0.56718  0.75868  0.19605  1.0000
  C   C1215     1.0  0.72171  0.77407  0.22216  1.0000
  H   H960      1.0  0.95900  0.73296  0.44750  1.0000
  C   C1216     1.0  0.77919  0.84643  0.46388  1.0000
  C   C1217     1.0  0.65534  0.88454  0.27652  1.0000
  C   C1218     1.0  0.74403  0.77123  0.22272  1.0000
  C   C1219     1.0  0.74130  0.92030  0.47307  1.0000
  C   C1220     1.0  0.73993  0.69748  0.01352  1.0000
  C   C1221     1.0  0.69225  0.79098  0.45529  1.0000
  H   H961      1.0  0.72725  0.69017  0.03336  1.0000
  C   C1222     1.0  0.66345  0.67534  0.00892  1.0000
  H   H962      1.0  0.79635  0.95112  0.25490  1.0000
  C   C1223     1.0  0.70261  0.83583  0.22112  1.0000
  H   H963      1.0  0.74178  0.75184  0.22568  1.0000
  C   C1224     1.0  0.67968  0.78643  0.18064  1.0000
  H   H964      1.0  0.81093  0.70331  0.43850  1.0000
  S   S173      1.0  0.58089  0.65273  0.02994  1.0000
  H   H965      1.0  0.65564  0.74746  0.19995  1.0000
  C   C1225     1.0  0.87449  0.68295  0.30063  1.0000
  H   H966      1.0  0.83664  0.75413  0.25914  1.0000
  C   C1226     1.0  0.91973  0.79674  0.44878  1.0000
  C   C1227     1.0  0.82185  0.68371  0.40425  1.0000
  H   H967      1.0  0.65199  0.89332  0.19584  1.0000
  C   C1228     1.0  0.64616  0.77498  0.24542  1.0000
  C   C1229     1.0  0.77843  0.88061  0.42007  1.0000
  C   C1230     1.0  0.71873  0.85132  0.24563  1.0000
  C   C1231     1.0  0.59738  0.80608  0.19532  1.0000
  C   C1232     1.0  0.49094  0.94618  0.06438  1.0000
  C   C1233     1.0  0.81874  0.73623  0.26532  1.0000
  C   C1234     1.0  0.85274  0.68489  0.31018  1.0000
  H   H968      1.0  0.66847  0.91997  0.14937  1.0000
  Fe  Fe88      1.0  0.72313  0.97123  0.37273  1.0000
  C   C1235     1.0  0.82712  0.66585  0.30117  1.0000
  C   C1236     1.0  0.82032  0.71632  0.28103  1.0000
  C   C1237     1.0  0.66130  0.75925  0.17938  1.0000
  H   H969      1.0  0.59475  0.92506  0.25640  1.0000
  H   H970      1.0  0.69042  0.77180  0.45148  1.0000
  H   H971      1.0  0.67755  0.83462  0.18377  1.0000
  C   C1238     1.0  0.79422  0.73368  0.25894  1.0000
  C   C1239     1.0  0.49288  0.79495  0.17824  1.0000
  H   H972      1.0  0.79309  0.74952  0.24769  1.0000
  C   C1240     1.0  0.47213  0.93485  0.04096  1.0000
  C   C1241     1.0  0.62940  0.76244  0.27014  1.0000
  C   C1242     1.0  0.69113  0.84644  0.20177  1.0000
  S   S174      1.0  0.70272  0.96046  0.41934  1.0000
  C   C1243     1.0  0.68825  0.80044  0.15307  1.0000
  C   C1244     1.0  0.65026  0.74678  0.15135  1.0000
  C   C1245     1.0  0.57818  0.84107  0.22054  1.0000
  H   H973      1.0  0.63833  0.94104  0.28180  1.0000
  H   H974      1.0  0.70374  0.82093  0.15318  1.0000
  H   H975      1.0  0.90098  0.71057  0.39228  1.0000
  C   C1246     1.0  0.61948  0.85974  0.17277  1.0000
  S   S175      1.0  0.69139  0.95862  0.25607  1.0000
  C   C1247     1.0  0.77119  0.71115  0.26813  1.0000
  C   C1248     1.0  0.79728  0.69361  0.29055  1.0000
  C   C1249     1.0  0.76616  0.71740  0.01774  1.0000
  C   C1250     1.0  0.50721  0.78697  0.19646  1.0000
  C   C1251     1.0  0.77268  0.69140  0.28432  1.0000
  H   H976      1.0  0.94630  0.78107  0.45132  1.0000
  H   H977      1.0  0.75217  0.70943  0.26375  1.0000
  C   C1252     1.0  0.72414  0.87730  0.24987  1.0000
  C   C1253     1.0  0.54660  0.83281  0.26130  1.0000
  C   C1254     1.0  0.71311  0.88788  0.23010  1.0000
  H   H978      1.0  0.83465  0.68076  0.41965  1.0000
  C   C1255     1.0  0.65796  0.76116  0.12417  1.0000
  C   C1256     1.0  0.87086  0.66185  0.28197  1.0000
  H   H979      1.0  0.68347  0.79893  0.10382  1.0000
  H   H980      1.0  0.72059  0.85158  0.42333  1.0000
  H   H981      1.0  0.60832  0.75418  0.26748  1.0000
  H   H982      1.0  0.73660  0.88915  0.26879  1.0000
  H   H983      1.0  0.71688  0.90784  0.23388  1.0000
  H   H984      1.0  0.55587  0.74961  0.06519  1.0000
  H   H985      1.0  0.63582  0.72586  0.15076  1.0000
  H   H986      1.0  0.77639  0.69514  0.34952  1.0000
  C   C1257     1.0  0.60687  0.85007  0.14426  1.0000
  H   H987      1.0  0.78249  0.96439  0.42069  1.0000
  C   C1258     1.0  0.66821  0.69114  0.21619  1.0000
  H   H988      1.0  0.56093  0.78669  0.22108  1.0000
  H   H989      1.0  0.67425  0.95201  0.19326  1.0000
  H   H990      1.0  0.49305  0.77501  0.07039  1.0000
  C   C1259     1.0  0.65150  0.90028  0.14790  1.0000
  C   C1260     1.0  0.64666  0.66138  0.06029  1.0000
  C   C1261     1.0  0.54478  0.85375  0.21450  1.0000
  C   C1262     1.0  0.67701  0.66125  0.01041  1.0000
  H   H991      1.0  0.87073  0.77729  0.41203  1.0000
  C   C1263     1.0  0.79203  0.70027  0.39508  1.0000
  H   H992      1.0  0.59455  0.94148  0.99395  1.0000
  Fe  Fe89      1.0  0.57286  0.66592  0.14710  1.0000
  H   H993      1.0  0.54886  0.74182  0.20338  1.0000
  C   C1264     1.0  0.48419  0.80546  0.05912  1.0000
  H   H994      1.0  0.79245  0.75609  0.43996  1.0000
  H   H995      1.0  0.77355  0.96025  0.47642  1.0000
  C   C1265     1.0  0.64193  0.88500  0.17435  1.0000
  H   H996      1.0  0.77337  0.72520  0.04059  1.0000
  C   C1266     1.0  0.64500  0.68483  0.19951  1.0000
  C   C1267     1.0  0.78328  0.88852  0.45097  1.0000
  H   H997      1.0  0.60648  0.85794  0.09608  1.0000
  C   C1268     1.0  0.79731  0.96890  0.24624  1.0000
  H   H998      1.0  0.64929  0.75141  0.10247  1.0000
  H   H999      1.0  0.76708  0.94835  0.21209  1.0000
  H   H1000     1.0  0.64574  0.82508  0.44461  1.0000
  C   C1269     1.0  0.86133  0.76515  0.45950  1.0000
  C   C1270     1.0  0.60680  0.77641  0.16553  1.0000
  C   C1271     1.0  0.59487  0.97647  0.01008  1.0000
  C   C1272     1.0  0.89149  0.69287  0.43715  1.0000
  H   H1001     1.0  0.53633  0.86326  0.20117  1.0000
  C   C1273     1.0  0.64045  0.83574  0.24877  1.0000
  H   H1002     1.0  0.49422  0.80967  0.03721  1.0000
  C   C1274     1.0  0.96164  0.83965  0.41922  1.0000
  C   C1275     1.0  0.93811  0.83964  0.42465  1.0000
  H   H1003     1.0  0.63166  0.81846  0.16648  1.0000
  H   H1004     1.0  0.61907  0.77335  0.14934  1.0000
  C   C1276     1.0  0.65822  0.84474  0.27348  1.0000
  C   C1277     1.0  0.58354  0.75479  0.17593  1.0000
  H   H1005     1.0  0.56367  0.79337  0.04791  1.0000
  C   C1278     1.0  0.71963  0.97130  0.45513  1.0000
  C   C1279     1.0  0.47517  0.97645  0.07630  1.0000
  H   H1006     1.0  0.50399  0.93849  0.06923  1.0000
  H   H1007     1.0  0.68007  0.87651  0.30586  1.0000
  C   C1280     1.0  0.78392  0.87153  0.47312  1.0000
  H   H1008     1.0  0.53922  0.82567  0.28408  1.0000
  H   H1009     1.0  0.63429  0.66089  0.07911  1.0000
  C   C1281     1.0  0.66587  0.86926  0.28716  1.0000
  H   H1010     1.0  0.89174  0.67526  0.42981  1.0000
  H   H1011     1.0  0.57738  0.82312  0.26408  1.0000
  H   H1012     1.0  0.62894  0.88728  0.24456  1.0000
  C   C1282     1.0  0.53492  0.84403  0.24361  1.0000
  H   H1013     1.0  0.64134  0.67509  0.17735  1.0000
  H   H1014     1.0  0.51857  0.84570  0.25262  1.0000
  H   H1015     1.0  0.82739  0.77272  0.40050  1.0000
  C   C1283     1.0  0.64853  0.67553  0.03386  1.0000
  H   H1016     1.0  0.48179  0.69553  0.17387  1.0000
  C   C1284     1.0  0.73979  0.71922  0.48401  1.0000
  C   C1285     1.0  0.81617  0.75118  0.47420  1.0000
  H   H1017     1.0  0.63766  0.68600  0.03234  1.0000
  S   S176      1.0  0.95986  0.73540  0.36056  1.0000
  H   H1018     1.0  0.53847  0.92927  0.00997  1.0000
  H   H1019     1.0  0.50541  0.76066  0.23180  1.0000
  Fe  Fe90      1.0  0.71433  0.97002  0.30222  1.0000
  H   H1020     1.0  0.74642  0.70514  0.48054  1.0000
  C   C1286     1.0  0.67563  0.64763  0.03740  1.0000
  C   C1287     1.0  0.78081  0.96736  0.22217  1.0000
  H   H1021     1.0  0.88780  0.66046  0.27452  1.0000
  H   H1022     1.0  0.47500  0.66421  0.21548  1.0000
  C   C1288     1.0  0.88607  0.71873  0.47729  1.0000
  H   H1023     1.0  0.50870  0.64922  0.24229  1.0000
  C   C1289     1.0  0.47473  0.67493  0.16854  1.0000
  H   H1024     1.0  0.49832  0.88631  0.99947  1.0000
  H   H1025     1.0  0.68563  0.94465  0.48153  1.0000
  H   H1026     1.0  0.48732  0.83747  0.19131  1.0000
  C   C1290     1.0  0.47383  0.86525  0.19435  1.0000
  H   H1027     1.0  0.88199  0.68045  0.48414  1.0000
  H   H1028     1.0  0.47430  0.68044  0.11971  1.0000
  H   H1029     1.0  0.47284  0.83510  0.05447  1.0000
  C   C1291     1.0  0.70607  0.96007  0.48259  1.0000
  H   H1030     1.0  0.82947  0.86803  0.48130  1.0000
  C   C1292     1.0  0.47152  0.84113  0.18555  1.0000
  C   C1293     1.0  0.84090  0.75428  0.48118  1.0000
  H   H1031     1.0  0.49130  0.87990  0.20649  1.0000
  H   H1032     1.0  0.47224  0.76663  0.12135  1.0000
  C   C1294     1.0  0.47063  0.66648  0.13788  1.0000
  C   C1295     1.0  0.47200  0.78149  0.10696  1.0000
  C   C1296     1.0  0.47089  0.65715  0.19197  1.0000
  C   C1297     1.0  0.78309  0.72720  0.99260  1.0000
  H   H1033     1.0  0.66401  0.68594  0.98846  1.0000
  Fe  Fe91      1.0  0.95434  0.78000  0.65495  1.0000
  S   S177      1.0  0.93799  0.73678  0.64652  1.0000
  S   S178      1.0  0.92842  0.79761  0.66569  1.0000
  H   H1034     1.0  0.70791  0.96035  0.53235  1.0000
  C   C1298     1.0  0.77049  0.90719  0.54538  1.0000
  H   H1035     1.0  0.86916  0.66320  0.82298  1.0000
  Fe  Fe92      1.0  0.77852  0.74397  0.63311  1.0000
  S   S179      1.0  0.73818  0.71145  0.61982  1.0000
  S   S180      1.0  0.80957  0.73321  0.62104  1.0000
  Fe  Fe93      1.0  0.75699  0.77919  0.65635  1.0000
  S   S181      1.0  0.71512  0.74795  0.64579  1.0000
  S   S182      1.0  0.77158  0.82139  0.67412  1.0000
  Fe  Fe94      1.0  0.72566  0.71866  0.66624  1.0000
  S   S183      1.0  0.70210  0.67925  0.69220  1.0000
  Fe  Fe95      1.0  0.73175  0.74323  0.60088  1.0000
  S   S184      1.0  0.71414  0.74616  0.55536  1.0000
  S   S185      1.0  0.76653  0.75038  0.67995  1.0000
  S   S186      1.0  0.77300  0.77535  0.61092  1.0000
  Fe  Fe96      1.0  0.74366  0.94529  0.64192  1.0000
  S   S187      1.0  0.71494  0.95531  0.61950  1.0000
  S   S188      1.0  0.73157  0.90141  0.63589  1.0000
  H   H1036     1.0  0.64914  0.70485  0.75972  1.0000
  H   H1037     1.0  0.88046  0.93404  0.56255  1.0000
  H   H1038     1.0  0.71047  0.87119  0.57932  1.0000
  C   C1299     1.0  0.94773  0.67915  0.76978  1.0000
  H   H1039     1.0  0.65502  0.72634  0.58332  1.0000
  P   P43       1.0  0.79315  0.88215  0.51259  1.0000
  H   H1040     1.0  0.70804  0.70935  0.94431  1.0000
  C   C1300     1.0  0.88538  0.72392  0.73085  1.0000
  H   H1041     1.0  0.71414  0.86059  0.52524  1.0000
  C   C1301     1.0  0.90907  0.72525  0.73988  1.0000
  C   C1302     1.0  0.88470  0.68114  0.67708  1.0000
  C   C1303     1.0  0.76816  0.83157  0.58508  1.0000
  P   P44       1.0  0.63869  0.70756  0.69401  1.0000
  C   C1304     1.0  0.91800  0.79036  0.56994  1.0000
  C   C1305     1.0  0.72487  0.74188  0.51871  1.0000
  C   C1306     1.0  0.73485  0.72483  0.51406  1.0000
  C   C1307     1.0  0.93798  0.85168  0.60869  1.0000
  H   H1042     1.0  0.73755  0.71500  0.53347  1.0000
  P   P45       1.0  0.85698  0.69224  0.72110  1.0000
  C   C1308     1.0  0.76002  0.84334  0.66367  1.0000
  C   C1309     1.0  0.73655  0.83474  0.64723  1.0000
  C   C1310     1.0  0.72829  0.85279  0.63904  1.0000
  C   C1311     1.0  0.74321  0.87972  0.64727  1.0000
  C   C1312     1.0  0.76663  0.88832  0.66390  1.0000
  C   C1313     1.0  0.77488  0.87021  0.67211  1.0000
  H   H1043     1.0  0.72465  0.81411  0.64096  1.0000
  H   H1044     1.0  0.71004  0.84575  0.62644  1.0000
  H   H1045     1.0  0.77828  0.90887  0.67060  1.0000
  H   H1046     1.0  0.79295  0.87711  0.68508  1.0000
  H   H1047     1.0  0.66685  0.90854  0.55161  1.0000
  C   C1314     1.0  0.66858  0.73686  0.70598  1.0000
  C   C1315     1.0  0.69947  0.68068  0.75655  1.0000
  H   H1048     1.0  0.66839  0.69295  0.57417  1.0000
  H   H1049     1.0  0.71165  0.70188  0.75516  1.0000
  H   H1050     1.0  0.73926  0.83663  0.50702  1.0000
  C   C1316     1.0  0.68330  0.69608  0.90421  1.0000
  C   C1317     1.0  0.86689  0.89078  0.50335  1.0000
  C   C1318     1.0  0.89493  0.77824  0.65521  1.0000
  C   C1319     1.0  0.87646  0.78464  0.66692  1.0000
  C   C1320     1.0  0.85001  0.77061  0.65714  1.0000
  C   C1321     1.0  0.84206  0.75043  0.63523  1.0000
  C   C1322     1.0  0.86033  0.74355  0.62421  1.0000
  C   C1323     1.0  0.88662  0.75726  0.63434  1.0000
  H   H1051     1.0  0.88269  0.80055  0.68347  1.0000
  H   H1052     1.0  0.83581  0.77549  0.66626  1.0000
  H   H1053     1.0  0.85423  0.72776  0.60746  1.0000
  H   H1054     1.0  0.90060  0.75210  0.62516  1.0000
  C   C1324     1.0  0.94491  0.68185  0.73801  1.0000
  H   H1055     1.0  0.69106  0.71576  0.89517  1.0000
  C   C1325     1.0  0.78586  0.95400  0.54286  1.0000
  H   H1056     1.0  0.79484  0.66776  0.84481  1.0000
  C   C1326     1.0  0.56951  0.70535  0.67271  1.0000
  C   C1327     1.0  0.89993  0.79650  0.55699  1.0000
  H   H1057     1.0  0.69486  0.68088  0.80579  1.0000
  C   C1328     1.0  0.64587  0.71669  0.63118  1.0000
  C   C1329     1.0  0.93791  0.88058  0.56938  1.0000
  C   C1330     1.0  0.68813  0.89018  0.56888  1.0000
  H   H1058     1.0  0.86599  0.69416  0.78734  1.0000
  H   H1059     1.0  0.83680  0.67044  0.60996  1.0000
  C   C1331     1.0  0.78511  0.68102  0.74976  1.0000
  H   H1060     1.0  0.94983  0.75037  0.75245  1.0000
  H   H1061     1.0  0.86691  0.74749  0.72195  1.0000
  H   H1062     1.0  0.94728  0.84183  0.61975  1.0000
  C   C1332     1.0  0.66143  0.69474  0.59667  1.0000
  H   H1063     1.0  0.68750  0.71552  0.72184  1.0000
  H   H1064     1.0  0.87879  0.79564  0.51643  1.0000
  H   H1065     1.0  0.55435  0.69653  0.65515  1.0000
  H   H1066     1.0  0.58486  0.74319  0.73757  1.0000
  H   H1067     1.0  0.78454  0.97101  0.55039  1.0000
  H   H1068     1.0  0.83507  0.71920  0.68529  1.0000
  H   H1069     1.0  0.66936  0.89728  0.49753  1.0000
  C   C1333     1.0  0.64524  0.70074  0.65547  1.0000
  C   C1334     1.0  0.79762  0.70872  0.70495  1.0000
  C   C1335     1.0  0.85641  0.66835  0.74764  1.0000
  H   H1070     1.0  0.89196  0.80630  0.57081  1.0000
  H   H1071     1.0  0.75757  0.88839  0.55592  1.0000
  C   C1336     1.0  0.68940  0.73471  0.71875  1.0000
  H   H1072     1.0  0.92407  0.79538  0.59371  1.0000
  C   C1337     1.0  0.86915  0.91941  0.54507  1.0000
  C   C1338     1.0  0.88146  0.90950  0.52605  1.0000
  H   H1073     1.0  0.90643  0.78983  0.73310  1.0000
  H   H1074     1.0  0.74076  0.68942  0.93591  1.0000
  C   C1339     1.0  0.65377  0.71354  0.60185  1.0000
  C   C1340     1.0  0.77951  0.69507  0.72814  1.0000
  H   H1075     1.0  0.94812  0.79172  0.74805  1.0000
  C   C1341     1.0  0.48779  0.92447  0.94927  1.0000
  H   H1076     1.0  0.79333  0.71944  0.68793  1.0000
  C   C1342     1.0  0.81850  0.82029  0.54417  1.0000
  C   C1343     1.0  0.81337  0.79426  0.54427  1.0000
  C   C1344     1.0  0.82534  0.78641  0.56629  1.0000
  C   C1345     1.0  0.84177  0.80433  0.58878  1.0000
  C   C1346     1.0  0.84650  0.83030  0.58934  1.0000
  C   C1347     1.0  0.83538  0.83840  0.56628  1.0000
  P   P46       1.0  0.86918  0.85351  0.61733  1.0000
  C   C1348     1.0  0.86125  0.84080  0.65579  1.0000
  C   C1349     1.0  0.90140  0.86011  0.60524  1.0000
  C   C1350     1.0  0.91351  0.84724  0.61902  1.0000
  C   C1351     1.0  0.63091  0.66380  0.77044  1.0000
  C   C1352     1.0  0.95687  0.73210  0.49723  1.0000
  C   C1353     1.0  0.59890  0.96118  0.98819  1.0000
  C   C1354     1.0  0.91353  0.87638  0.57992  1.0000
  C   C1355     1.0  0.88077  0.85080  0.67881  1.0000
  C   C1356     1.0  0.87426  0.84260  0.70920  1.0000
  C   C1357     1.0  0.84809  0.82508  0.71703  1.0000
  C   C1358     1.0  0.82844  0.81586  0.69448  1.0000
  C   C1359     1.0  0.83495  0.82359  0.66395  1.0000
  C   C1360     1.0  0.86602  0.88260  0.61990  1.0000
  C   C1361     1.0  0.84087  0.87977  0.62333  1.0000
  C   C1362     1.0  0.83806  0.90195  0.62752  1.0000
  H   H1077     1.0  0.85812  0.94418  0.63320  1.0000
  C   C1363     1.0  0.92070  0.77121  0.52153  1.0000
  C   C1364     1.0  0.88838  0.90787  0.62223  1.0000
  H   H1078     1.0  0.80917  0.82628  0.52709  1.0000
  H   H1079     1.0  0.79988  0.78007  0.52755  1.0000
  H   H1080     1.0  0.82134  0.76620  0.56649  1.0000
  H   H1081     1.0  0.85077  0.79790  0.60575  1.0000
  H   H1082     1.0  0.83962  0.85859  0.56530  1.0000
  H   H1083     1.0  0.90405  0.83339  0.63744  1.0000
  H   H1084     1.0  0.94039  0.71214  0.49786  1.0000
  H   H1085     1.0  0.82724  0.68033  0.66135  1.0000
  H   H1086     1.0  0.89861  0.68440  0.69528  1.0000
  H   H1087     1.0  0.90396  0.88556  0.56819  1.0000
  H   H1088     1.0  0.90100  0.86515  0.67342  1.0000
  H   H1089     1.0  0.88947  0.85009  0.72676  1.0000
  H   H1090     1.0  0.84292  0.81899  0.74063  1.0000
  H   H1091     1.0  0.80801  0.80309  0.70074  1.0000
  H   H1092     1.0  0.81933  0.81663  0.64698  1.0000
  H   H1093     1.0  0.82342  0.86033  0.62357  1.0000
  H   H1094     1.0  0.81857  0.89955  0.63032  1.0000
  C   C1365     1.0  0.86244  0.68372  0.68265  1.0000
  H   H1095     1.0  0.66733  0.77877  0.49510  1.0000
  C   C1366     1.0  0.88450  0.74744  0.72906  1.0000
  C   C1367     1.0  0.85001  0.67310  0.62880  1.0000
  C   C1368     1.0  0.82680  0.69369  0.72433  1.0000
  C   C1369     1.0  0.61385  0.65419  0.70931  1.0000
  H   H1096     1.0  0.94243  0.77303  0.56216  1.0000
  C   C1370     1.0  0.50992  0.94914  0.95615  1.0000
  H   H1097     1.0  0.84400  0.74816  0.50345  1.0000
  H   H1098     1.0  0.80241  0.86815  0.57393  1.0000
  C   C1371     1.0  0.86036  0.92708  0.62924  1.0000
  C   C1372     1.0  0.67801  0.89099  0.51508  1.0000
  H   H1099     1.0  0.65421  0.67047  0.66860  1.0000
  H   H1100     1.0  0.81813  0.97633  0.51224  1.0000
  C   C1373     1.0  0.80860  0.68026  0.74785  1.0000
  H   H1101     1.0  0.90280  0.94946  0.62905  1.0000
  H   H1102     1.0  0.78696  0.72461  0.94368  1.0000
  C   C1374     1.0  0.69256  0.66528  0.72967  1.0000
  H   H1103     1.0  0.65639  0.67709  0.86625  1.0000
  H   H1104     1.0  0.87663  0.66667  0.60064  1.0000
  C   C1375     1.0  0.63765  0.68496  0.75073  1.0000
  H   H1105     1.0  0.90801  0.91046  0.62150  1.0000
  C   C1376     1.0  0.93049  0.77282  0.74408  1.0000
  H   H1106     1.0  0.90232  0.91647  0.52874  1.0000
  C   C1377     1.0  0.74295  0.81208  0.57594  1.0000
  S   S189      1.0  0.95446  0.72987  0.56058  1.0000
  C   C1378     1.0  0.70123  0.87649  0.56133  1.0000
  H   H1107     1.0  0.71313  0.79870  0.54083  1.0000
  C   C1379     1.0  0.67660  0.89750  0.54575  1.0000
  C   C1380     1.0  0.66119  0.67906  0.62079  1.0000
  H   H1108     1.0  0.80046  0.74297  0.49100  1.0000
  C   C1381     1.0  0.89223  0.79004  0.52625  1.0000
  H   H1109     1.0  0.71376  0.76763  0.49668  1.0000
  C   C1382     1.0  0.82123  0.70830  0.70330  1.0000
  H   H1110     1.0  0.64109  0.73211  0.63510  1.0000
  C   C1383     1.0  0.60908  0.97161  0.95892  1.0000
  H   H1111     1.0  0.55054  0.72361  0.69687  1.0000
  H   H1112     1.0  0.59234  0.68921  0.65379  1.0000
  C   C1384     1.0  0.78906  0.90985  0.52317  1.0000
  H   H1113     1.0  0.49376  0.96527  0.87205  1.0000
  C   C1385     1.0  0.78317  0.85306  0.56614  1.0000
  H   H1114     1.0  0.81225  0.66891  0.76450  1.0000
  H   H1115     1.0  0.75359  0.66338  0.86653  1.0000
  H   H1116     1.0  0.59697  0.64963  0.96839  1.0000
  C   C1386     1.0  0.84232  0.91073  0.54135  1.0000
  S   S190      1.0  0.74763  0.96960  0.68435  1.0000
  H   H1117     1.0  0.77598  0.82996  0.60697  1.0000
  H   H1118     1.0  0.63771  0.66739  0.79409  1.0000
  C   C1387     1.0  0.84487  0.67916  0.65824  1.0000
  H   H1119     1.0  0.73750  0.91944  0.49745  1.0000
  C   C1388     1.0  0.50156  0.90372  0.98719  1.0000
  H   H1120     1.0  0.88173  0.72064  0.50104  1.0000
  H   H1121     1.0  0.94996  0.65741  0.95811  1.0000
  H   H1122     1.0  0.77093  0.67031  0.76762  1.0000
  C   C1389     1.0  0.56732  0.72055  0.69625  1.0000
  C   C1390     1.0  0.90695  0.77171  0.73574  1.0000
  C   C1391     1.0  0.95019  0.86833  0.58388  1.0000
  H   H1123     1.0  0.61246  0.95968  0.94244  1.0000
  C   C1392     1.0  0.92838  0.77777  0.55219  1.0000
  H   H1124     1.0  0.47394  0.92265  0.93162  1.0000
  C   C1393     1.0  0.59117  0.70139  0.67191  1.0000
  C   C1394     1.0  0.74764  0.83547  0.52871  1.0000
  H   H1125     1.0  0.75449  0.92704  0.57224  1.0000
  C   C1395     1.0  0.93399  0.65428  0.78442  1.0000
  C   C1396     1.0  0.73263  0.81408  0.54786  1.0000
  C   C1397     1.0  0.58668  0.73162  0.71916  1.0000
  C   C1398     1.0  0.52877  0.97544  0.89901  1.0000
  H   H1126     1.0  0.55909  0.97055  0.82142  1.0000
  H   H1127     1.0  0.66805  0.66515  0.61709  1.0000
  C   C1399     1.0  0.84011  0.88227  0.49930  1.0000
  C   C1400     1.0  0.80478  0.95695  0.52128  1.0000
  H   H1128     1.0  0.92537  0.66043  0.69683  1.0000
  C   C1401     1.0  0.80632  0.93497  0.51134  1.0000
  C   C1402     1.0  0.56520  0.97739  0.87012  1.0000
  C   C1403     1.0  0.74761  0.69717  0.95886  1.0000
  C   C1404     1.0  0.52476  0.96734  0.84390  1.0000
  H   H1129     1.0  0.51332  0.96274  0.82289  1.0000
  C   C1405     1.0  0.65325  0.68212  0.65008  1.0000
  C   C1406     1.0  0.77587  0.65190  0.83706  1.0000
  H   H1130     1.0  0.83314  0.91856  0.55651  1.0000
  C   C1407     1.0  0.75269  0.64949  0.84930  1.0000
  H   H1131     1.0  0.68727  0.89540  0.59268  1.0000
  H   H1132     1.0  0.92946  0.76197  0.50803  1.0000
  C   C1408     1.0  0.88551  0.93002  0.62681  1.0000
  C   C1409     1.0  0.77327  0.85487  0.53751  1.0000
  C   C1410     1.0  0.60834  0.72767  0.71842  1.0000
  C   C1411     1.0  0.82760  0.89233  0.51813  1.0000
  C   C1412     1.0  0.93148  0.74957  0.74638  1.0000
  C   C1413     1.0  0.76881  0.92917  0.55499  1.0000
  C   C1414     1.0  0.69008  0.66865  0.78536  1.0000
  C   C1415     1.0  0.86213  0.67509  0.77886  1.0000
  C   C1416     1.0  0.70306  0.87032  0.53068  1.0000
  C   C1417     1.0  0.61096  0.71292  0.69448  1.0000
  C   C1418     1.0  0.52850  0.95054  0.97759  1.0000
  H   H1133     1.0  0.76101  0.69513  0.72909  1.0000
  C   C1419     1.0  0.71315  0.75734  0.72661  1.0000
  C   C1420     1.0  0.71646  0.78231  0.72115  1.0000
  C   C1421     1.0  0.69610  0.78466  0.70766  1.0000
  C   C1422     1.0  0.67226  0.76203  0.69995  1.0000
  H   H1134     1.0  0.62303  0.73609  0.73655  1.0000
  C   C1423     1.0  0.90207  0.77672  0.50850  1.0000
  P   P47       1.0  0.69660  0.66134  0.97828  1.0000
  H   H1135     1.0  0.72924  0.75552  0.73614  1.0000
  H   H1136     1.0  0.73508  0.79989  0.72659  1.0000
  H   H1137     1.0  0.69910  0.80409  0.70259  1.0000
  H   H1138     1.0  0.65702  0.76425  0.68872  1.0000
  H   H1139     1.0  0.73141  0.79532  0.59063  1.0000
  H   H1140     1.0  0.91054  0.70758  0.74162  1.0000
  C   C1424     1.0  0.62981  0.68030  0.71973  1.0000
  C   C1425     1.0  0.69100  0.87703  0.50734  1.0000
  C   C1426     1.0  0.48348  0.90192  0.96501  1.0000
  C   C1427     1.0  0.92775  0.65903  0.72123  1.0000
  C   C1428     1.0  0.51381  0.96901  0.87183  1.0000
  P   P48       1.0  0.51544  0.97806  0.93535  1.0000
  C   C1429     1.0  0.68331  0.66675  0.94343  1.0000
  C   C1430     1.0  0.65319  0.64908  0.89999  1.0000
  C   C1431     1.0  0.87236  0.67089  0.62354  1.0000
  C   C1432     1.0  0.66363  0.67440  0.88804  1.0000
  H   H1141     1.0  0.96084  0.69647  0.78321  1.0000
  H   H1142     1.0  0.54659  0.96887  0.98201  1.0000
  C   C1433     1.0  0.88945  0.67451  0.64778  1.0000
  S   S191      1.0  0.96356  0.71402  0.72077  1.0000
  S   S192      1.0  0.77888  0.97863  0.61900  1.0000
  H   H1143     1.0  0.93668  0.65282  0.80874  1.0000
  H   H1144     1.0  0.60678  0.65010  0.68582  1.0000
  C   C1434     1.0  0.72129  0.75432  0.49318  1.0000
  H   H1145     1.0  0.90696  0.67307  0.64371  1.0000
  C   C1435     1.0  0.69301  0.69232  0.93194  1.0000
  H   H1146     1.0  0.94724  0.89317  0.54985  1.0000
  H   H1147     1.0  0.73362  0.64572  0.95263  1.0000
  C   C1436     1.0  0.86391  0.65762  0.79912  1.0000
  C   C1437     1.0  0.77382  0.71708  0.96317  1.0000
  C   C1438     1.0  0.55048  0.97164  0.84303  1.0000
  H   H1148     1.0  0.64591  0.97241  0.73032  1.0000
  C   C1439     1.0  0.71863  0.96901  0.51145  1.0000
  H   H1149     1.0  0.82127  0.93762  0.49482  1.0000
  C   C1440     1.0  0.73041  0.68725  0.98400  1.0000
  H   H1150     1.0  0.66939  0.82161  0.50214  1.0000
  H   H1151     1.0  0.75886  0.64855  0.66634  1.0000
  H   H1152     1.0  0.87640  0.88305  0.48857  1.0000
