data_image0
_chemical_formula_structural       C4FeS2FeS2FeS2FeSFeS3FeS2HFeS2FeSFeSFeS3FeSFeS2FeSFeS3H3C6H5C3HC6H4C7H4C6H4C2HCHC6H5S2C6PC11H12C8H2C2H2C8HC2HC2FeC5HCH2CH3C4HC3PC2H2C12H2CH3SC4H7C3HC2HCHC4H6C2H3C3HC5H2C2HCHPH6C4HCHCSCH3C2HC4H3CH4C4H2CH3PCHCHCHC3H2CHCHC3H3C2H2C2HPH2CH3C2HPHCH2CHCHC2HCH5C2H2CHFeCH3PC2H3C2HCH3C2HCHC4H2CHC2HCH2C4HCHC2H2CH2CHC2HCHCHCFeS2HCHFeS2FeS2FeSFeS3FeS2HFeS2FeSFeSFeS3FeS2FeSFeSFeS3HC8H2FeC4H3C7H4C6H4C6H4C3HC7H5CH2CHC2H6C2H3C6H5C2HSHCH2CHSHC3HCH4CHCH2C3H2C2H3CHCHSHCH6C8PFeC2HPC2HCH3C6H5C4HCH2CH3C3HC2HCH3CH2C3H2C2H2C6H2C2PC2H2C3HCHC8PHC6H2C3H3PH3C2H4C3HCHC6PC18H15CHCHCHC2HCH2C2HCHCPCHCH3C5H2CH3C2H2CHCHC3SCH2SHCFeCH2C2HCFeSFeS2FeSFeS3FeS2FeS2FeSFeS2HFeS2FeS2FeS2FeSFeS3C2HCFeS2C9H4C2H2C7H5C10H5C2H2C6HC4HC7HCH2C4HFeHC3HC6H7CHC4H2C2HCH3C4HC2H5SCHCHC4H5C2H2C7H2SC2HPHCH3C7H4CHCHC2SHPCHCHC2H2CH2CH2C4H2CHCH3C7PC18H19C6PC9H14CPC5H3C8HC2HCHCHCHSH3C4H3C2HSCHCHC2PHC2H4C4H2CPH4FeCH3C2HC3HCH4CSC2SC2H2CH2PC2HC2HCH2C2HC2H3CH3CHC2PCHC2H2CH3C2H2CHC2HCHSCHCH2CHFeS2FeS2Fe2S3FeS2FeS2FeSFeS2FeS2HFeS2FeS2FeSFeS3C4FeS2CHC7H5C2H2C6H4C6H4CH3CSHC6H4C6H4CH3CH2CFeHCHC3HC4H2C2H4CH2C7HCHC5H3CH2CPH2CHCHCHC6PC15HC2H18CH2C3HC2HSHC4HCH3C4HCSCH2C3H9CHC4PC19PCH17C6PC18H15PC5H2CH2C2H5C2SHC4HCH3CSH2FeH3C4HC2H3C2H4CHC3HCHC2HCHC6HCHFeSHC2HC3HCH2FeS2C2FeS2H3FeS2FeS2FeSFeS3CFeS2FeS2FeSFeS3C6H4CHCHCHC7H4C6H4C7H3C6HCHC8H4C7H2C4H3CH2CHC2H2CHC3HCH5CH2C6PC3FeC10HC3H6C2H12C6PHCHC2HC5H4C2H2CHFeC2HCSC2H3CHCHCSH2C2PCHCH2C3H2C3H2CH2CH2CH4C6PC16H17SC5HC4HCHC5HCH2CH7C6HC2PC2HCPCH2PCHCHCH2CHSC3HCH2C2H2C3H2C3H2CHCHC2SHCHCHC2HC3H3CH4CHS2C3FeS3H2CFeS2FeS2FeSFeS3HC2FeS2FeS2FeSFeS3C7H4C6H2CHC6H4C6H4CH3C7H4C8H4C6H2CHC2HCPC5HCH2CH2C3FeHC2H3CHCHCPHC3SHCHCH2CHCH2CHCH3PHC2HC2HCSHCHCHCH3C3H9C3H2PCHC8H3C2H2CHC3HC2HC2H3C3H2C2H3CHCH2CFe2CH3C4HCHC3PCHC3PC18H16C3SHC2HC2H3CHC2HC5H2CHC2H2C2HSC3H3PHC3HC2HC4H4C2HC7HC2HCSC2HCH3C2H6CPC3H2CHCH2CHC2HFeCSFeS2H2C3FeS2H2C9H7C3HCH3CH2C3SPC3HC3HC3H3C5H4C4H2CHCSH4C4HC4HC2HC2HCHCHC2HC2HC2H2CH6C3HCH2C2HC2HC2HFeCHC2H4CHC4FeS2FeS2H4CS2HPC7H5CH8C2H2CH3FeC4PCHC7H3CHCHC3PC7H4C2H2C3HPC3HC4H4C2H5C3HCHCHC3H2C3H4CHC2HCH2CHC4H2C3H2CHCH2C7HC3H2CHC3HSH2CHC3H2C3H2C5H2PCHCHC2H3CHCHCHC2HC2H2FeS2HCH2CFeS2FeSHSH4C8H4CH3C4PCH2CH2CPCSHC2SC13H4CFeCH2CH10C2H2C2HCSHC2HCH2CHCH2C2HCHC6HC2HCHCH2C2H3CHCHCH3CHCHC7HCHC4HCHCHC4H2C2H2C3H5CH7CH2C3PC5HCHC2HCFeS2HCH3FeS2CHCSCHC3HFeC9H6SC2HC5H3C3H3CHC4HC3HPH2C5HPC2H2C4H3CH2C2H2C4H2C3HC2HC4H2CPH2CHCH2C2H3CH3SHC2H2CH2CH3C2HC3PC18HC2H8CH8FeCHC4HC3HC3FeCH2CHCHCH2CHCH2CPC2H6FeS2FeS2FeSFeS3HCFeS2FeS2FeSFeS3PCHFeS2FeS2C2HSC8H4CHC8HC3SC2HCH2C7H2CHC6H3C2HC6H4C6H3CHSC2HC2HC5H3CHC2H2CHCHSH2C2HCHCFeHCH5C2HC2H2C6H2C7HCH2C2H6CH3C3HC2HC2HC2H5C3H4C2HC6PC4H2C12H6C3H11C4HC3H3C2HCFeCHC2HPH2CH3PH2CH2C6HCHC3HCHFeC2H3C2H3CHC2HCH2C4HC2HSH4CH4C4H3C2HC2HC4HCFeH2CPHCH3C2H3SH4SC2HCH2FeS2FeS2FeSFeS3FeHFeS2FeS2FeSFeS3CHFeS2H2SFeS2C8H4C8H7CHC6H3C7HC8H4C6H4CH2C7H3C6PC18H20CHCHPHC2H2C3FeCHC2HCHC6PC16HCH18CHC3H2C4HC2HSC3H5C3H2CH2C3HSCSC6PC18H20CFeC2H2CSC2H2C3HCHPC3HPH4CH3CHCHSC2HSC3HC2H2PCPCHC2HCHC2HC2HCHSFeS2FeS2HFeS2FeS2FeSFeS3FeSFeS2FeSFeS3FeS2FeSFeSFeS3CHCHC2HC6H4SCHC6H4C3HC7H5C4H2C3HC6H5PH2C6PC17H6CH11C6PC18H20CHCHCHCHCHCHCH2C8HCH5C2PH2CHC3H2C2H2CHC12H8CHCHC3H2CHCH5CHCH4C2H2C5HSC8PC6HC8H2PH8CH4CHC4HCH2SCHC2H5SHCH2C4H3CHC2H2CH2CH3C4HCPHC2FeHC4HCHCHC2H2CHCFeC2HCH5SCHCFeS2CPC2S2HFeS2FeS2FeSFeS3FeS2FeSFeSFeS3FeS2FeS2Fe2S3CH5C2HC7H4CHC7H5C3HC6H4C3H2CH5C7H4CH2CHCHCHC3HC4PC15H3CH2SH2C2H7C10H3C2H3C6PC18H17CH4C5HSHCSC8HC3HCH5C3H3CH6C5PC10HCH5C2H2CH2C2H2CPHCHC2HC2H2CH2C3HC6H3CH2C2H2CHCHC2PCHCHCH2CH4CHC2HCH4C3HC3SHCH2C3HC3H2CHFeHCHCSH2C2H4CHSC2H3CFeSFeS2FeSFeS3FeS2FeS2Fe2S3HFeS2H2SH2FeS2FeS2FeSFeS3CHCH2C6H5CHC6H4C6HCH2CHC6H4C6H6CH3CH3CHCH2CH6CPC9SC8H14C6PHC2PC5HC7H3CH3CH4CH2CH5C2HCHC2HC2PC15HC2HCHC2HSC3H5CHCHC7PC15SC2H16CH3CHCH2C2H2C3HC2HFeCHCH2CH2C3H2CHC2HC9HC2HC3H5CH3CH2C2H3C2H2C2H2C5HCH3CH2CH2CPHFeSFeS2FeSFeS3FeS2FeS2FeSFeS2HCS2C2HFeSHFeS2FeS2FeSFeS3CH3C7H4C2HC6H4CHC4H3C3HC6H4C6H4C2HCH2CHS2HCH2C2H2CH2C2H2C4H3C4HC2HCH8FeHC5PC17H16C2PC13H2CH5CHCH2C5PC14H12C2HCH2CH2C3PC3HCHC12HC2H3C2H3CFeCH7CPCHCSH3CH2CHCH2C3H2C2HC2H3C4HC4HCH4C2HCHC7HCH2C2HCHC2H3SCH2C3H6C3H3C4H2PH2SH2C3H6CH2C4H2C2
_chemical_formula_sum              "C2880 Fe192 S384 H2304 P96"
_cell_length_a       57.9779
_cell_length_b       57.919
_cell_length_c       85.2013
_cell_angle_alpha    91.0217
_cell_angle_beta     90.9869
_cell_angle_gamma    117.409

_space_group_name_H-M_alt    "P 1"
_space_group_IT_number       1

loop_
  _space_group_symop_operation_xyz
  'x, y, z'

loop_
  _atom_site_type_symbol
  _atom_site_label
  _atom_site_symmetry_multiplicity
  _atom_site_fract_x
  _atom_site_fract_y
  _atom_site_fract_z
  _atom_site_occupancy
  C   C1        1.0  0.03755  0.22132  0.11217  1.0000
  C   C2        1.0  0.98682  0.14099  0.21690  1.0000
  C   C3        1.0  0.33054  0.45158  0.10420  1.0000
  C   C4        1.0  0.06599  0.19581  0.20731  1.0000
  Fe  Fe1       1.0  0.20169  0.01831  0.15651  1.0000
  S   S1        1.0  0.21974  0.06309  0.15562  1.0000
  S   S2        1.0  0.22949  0.00124  0.16114  1.0000
  Fe  Fe2       1.0  0.22596  0.24637  0.14231  1.0000
  S   S3        1.0  0.18385  0.21702  0.13797  1.0000
  S   S4        1.0  0.24788  0.26851  0.12044  1.0000
  Fe  Fe3       1.0  0.22276  0.23207  0.17767  1.0000
  S   S5        1.0  0.18056  0.20339  0.17521  1.0000
  S   S6        1.0  0.24322  0.23308  0.20109  1.0000
  Fe  Fe4       1.0  0.19186  0.18946  0.15313  1.0000
  S   S7        1.0  0.17384  0.14497  0.14899  1.0000
  Fe  Fe5       1.0  0.17681  0.23324  0.16047  1.0000
  S   S8        1.0  0.14865  0.24984  0.16426  1.0000
  S   S9        1.0  0.23436  0.21740  0.15589  1.0000
  S   S10       1.0  0.21855  0.26345  0.16446  1.0000
  Fe  Fe6       1.0  0.00213  0.20957  0.15941  1.0000
  S   S11       1.0  0.01960  0.25302  0.16101  1.0000
  S   S12       1.0  0.02557  0.18723  0.15843  1.0000
  H   H1        1.0  0.15698  0.36678  0.08231  1.0000
  Fe  Fe7       1.0  0.31275  0.40048  0.06771  1.0000
  S   S13       1.0  0.28810  0.37803  0.04695  1.0000
  S   S14       1.0  0.30120  0.38410  0.09259  1.0000
  Fe  Fe8       1.0  0.34640  0.44832  0.04731  1.0000
  S   S15       1.0  0.32197  0.42787  0.02552  1.0000
  Fe  Fe9       1.0  0.28648  0.41482  0.04057  1.0000
  S   S16       1.0  0.24847  0.41322  0.03024  1.0000
  Fe  Fe10      1.0  0.32516  0.39268  0.03343  1.0000
  S   S17       1.0  0.33256  0.36354  0.01824  1.0000
  S   S18       1.0  0.31035  0.43750  0.06177  1.0000
  S   S19       1.0  0.35053  0.41307  0.05485  1.0000
  Fe  Fe11      1.0  0.07905  0.45456  0.04689  1.0000
  S   S20       1.0  0.09569  0.43743  0.02891  1.0000
  Fe  Fe12      1.0  0.05672  0.40261  0.06519  1.0000
  S   S21       1.0  0.07077  0.38300  0.04768  1.0000
  S   S22       1.0  0.03763  0.38318  0.08823  1.0000
  Fe  Fe13      1.0  0.10858  0.42016  0.04871  1.0000
  S   S23       1.0  0.14664  0.41835  0.05572  1.0000
  Fe  Fe14      1.0  0.05669  0.40160  0.02920  1.0000
  S   S24       1.0  0.03907  0.38429  0.00475  1.0000
  S   S25       1.0  0.09471  0.43976  0.06681  1.0000
  S   S26       1.0  0.03984  0.41890  0.04660  1.0000
  H   H2        1.0  0.28422  0.32400  0.98722  1.0000
  H   H3        1.0  0.17112  0.34199  0.06541  1.0000
  H   H4        1.0  0.25902  0.04673  0.13659  1.0000
  C   C5        1.0  0.17459  0.41656  0.04826  1.0000
  C   C6        1.0  0.19427  0.41831  0.05892  1.0000
  C   C7        1.0  0.21686  0.41731  0.05369  1.0000
  C   C8        1.0  0.22010  0.41420  0.03768  1.0000
  C   C9        1.0  0.20031  0.41217  0.02703  1.0000
  C   C10       1.0  0.17779  0.41339  0.03223  1.0000
  H   H5        1.0  0.19219  0.42085  0.07133  1.0000
  H   H6        1.0  0.23192  0.41937  0.06205  1.0000
  H   H7        1.0  0.20249  0.40987  0.01460  1.0000
  H   H8        1.0  0.16299  0.41202  0.02383  1.0000
  H   H9        1.0  0.24170  0.29986  0.04581  1.0000
  C   C11       1.0  0.22527  0.34323  0.02858  1.0000
  C   C12       1.0  0.34742  0.36604  0.99973  1.0000
  C   C13       1.0  0.24367  0.38474  0.08034  1.0000
  H   H10       1.0  0.04535  0.18570  0.20945  1.0000
  C   C14       1.0  0.01446  0.30354  0.11127  1.0000
  C   C15       1.0  0.01729  0.32531  0.12014  1.0000
  C   C16       1.0  0.02520  0.34956  0.11300  1.0000
  C   C17       1.0  0.03057  0.35268  0.09689  1.0000
  C   C18       1.0  0.02906  0.33126  0.08818  1.0000
  C   C19       1.0  0.07711  0.18453  0.19735  1.0000
  H   H11       1.0  0.03252  0.30154  0.05564  1.0000
  H   H12       1.0  0.02704  0.36607  0.12004  1.0000
  H   H13       1.0  0.03369  0.33335  0.07590  1.0000
  H   H14       1.0  0.16884  0.32419  0.17369  1.0000
  C   C20       1.0  0.19476  0.02371  0.04332  1.0000
  C   C21       1.0  0.11458  0.23206  0.16211  1.0000
  C   C22       1.0  0.10224  0.20626  0.15646  1.0000
  C   C23       1.0  0.07490  0.19258  0.15554  1.0000
  C   C24       1.0  0.05982  0.20474  0.16001  1.0000
  C   C25       1.0  0.07224  0.23057  0.16557  1.0000
  C   C26       1.0  0.09950  0.24416  0.16660  1.0000
  H   H15       1.0  0.11375  0.19681  0.15296  1.0000
  H   H16       1.0  0.06542  0.17259  0.15121  1.0000
  H   H17       1.0  0.06086  0.23997  0.16926  1.0000
  H   H18       1.0  0.10900  0.26407  0.17102  1.0000
  C   C27       1.0  0.26181  0.30081  0.11284  1.0000
  C   C28       1.0  0.27290  0.30512  0.09788  1.0000
  C   C29       1.0  0.28416  0.33011  0.09129  1.0000
  C   C30       1.0  0.28518  0.35155  0.09973  1.0000
  C   C31       1.0  0.27415  0.34730  0.11472  1.0000
  C   C32       1.0  0.26230  0.32216  0.12115  1.0000
  H   H19       1.0  0.27303  0.28900  0.09135  1.0000
  H   H20       1.0  0.29273  0.33290  0.07986  1.0000
  H   H21       1.0  0.27492  0.36363  0.12146  1.0000
  H   H22       1.0  0.25405  0.31941  0.13267  1.0000
  C   C33       1.0  0.09791  0.33407  0.10925  1.0000
  C   C34       1.0  0.26944  0.02291  0.10201  1.0000
  H   H23       1.0  0.08638  0.36202  0.10037  1.0000
  C   C35       1.0  0.24332  0.35120  0.01663  1.0000
  H   H24       1.0  0.21136  0.25650  0.21199  1.0000
  C   C36       1.0  0.20644  0.08547  0.15386  1.0000
  C   C37       1.0  0.22331  0.11246  0.15483  1.0000
  C   C38       1.0  0.21376  0.13089  0.15351  1.0000
  C   C39       1.0  0.18716  0.12266  0.15096  1.0000
  C   C40       1.0  0.17033  0.09568  0.14992  1.0000
  C   C41       1.0  0.17981  0.07723  0.15149  1.0000
  H   H25       1.0  0.24397  0.11923  0.15654  1.0000
  H   H26       1.0  0.22701  0.15148  0.15427  1.0000
  H   H27       1.0  0.14973  0.08899  0.14789  1.0000
  H   H28       1.0  0.16651  0.05664  0.15064  1.0000
  H   H29       1.0  0.25415  0.22004  0.23188  1.0000
  S   S27       1.0  0.00192  0.27161  0.11920  1.0000
  S   S28       1.0  0.18035  0.98908  0.13681  1.0000
  C   C42       1.0  0.16237  0.27167  0.10498  1.0000
  C   C43       1.0  0.17954  0.27613  0.11771  1.0000
  C   C44       1.0  0.17660  0.28750  0.13161  1.0000
  C   C45       1.0  0.15660  0.29454  0.13280  1.0000
  C   C46       1.0  0.13968  0.29077  0.11988  1.0000
  C   C47       1.0  0.14265  0.27913  0.10598  1.0000
  P   P1        1.0  0.11269  0.29823  0.12127  1.0000
  C   C48       1.0  0.08357  0.26812  0.11692  1.0000
  C   C49       1.0  0.11121  0.30967  0.14090  1.0000
  C   C50       1.0  0.09058  0.29493  0.15066  1.0000
  C   C51       1.0  0.08960  0.30427  0.16573  1.0000
  C   C52       1.0  0.10910  0.32838  0.17120  1.0000
  C   C53       1.0  0.12959  0.34331  0.16151  1.0000
  C   C54       1.0  0.13060  0.33406  0.14638  1.0000
  C   C55       1.0  0.06279  0.26748  0.10786  1.0000
  C   C56       1.0  0.03989  0.24416  0.10554  1.0000
  C   C57       1.0  0.05829  0.22167  0.12090  1.0000
  C   C58       1.0  0.08120  0.24493  0.12331  1.0000
  H   H30       1.0  0.16431  0.26230  0.09436  1.0000
  H   H31       1.0  0.19485  0.27031  0.11695  1.0000
  H   H32       1.0  0.18926  0.28994  0.14171  1.0000
  H   H33       1.0  0.15403  0.30202  0.14398  1.0000
  H   H34       1.0  0.12937  0.27534  0.09605  1.0000
  H   H35       1.0  0.07512  0.27624  0.14672  1.0000
  H   H36       1.0  0.07354  0.29274  0.17309  1.0000
  H   H37       1.0  0.10821  0.33556  0.18290  1.0000
  H   H38       1.0  0.14461  0.36213  0.16568  1.0000
  H   H39       1.0  0.14649  0.34588  0.13894  1.0000
  H   H40       1.0  0.09680  0.24489  0.13051  1.0000
  H   H41       1.0  0.01308  0.34345  0.05432  1.0000
  C   C59       1.0  0.07348  0.33549  0.02709  1.0000
  C   C60       1.0  0.30760  0.03915  0.04683  1.0000
  C   C61       1.0  0.23770  0.37734  0.09585  1.0000
  C   C62       1.0  0.15103  0.30038  0.19348  1.0000
  C   C63       1.0  0.19289  0.16362  0.20077  1.0000
  C   C64       1.0  0.27244  0.01457  0.06435  1.0000
  C   C65       1.0  0.15265  0.02131  0.22936  1.0000
  C   C66       1.0  0.02105  0.30695  0.09531  1.0000
  H   H42       1.0  0.00264  0.13707  0.17886  1.0000
  H   H43       1.0  0.45318  0.00557  0.03396  1.0000
  C   C67       1.0  0.29551  0.18368  0.22111  1.0000
  C   C68       1.0  0.22295  0.06385  0.05743  1.0000
  H   H44       1.0  0.35182  0.42952  0.10204  1.0000
  H   H45       1.0  0.34561  0.40058  0.99253  1.0000
  C   C69       1.0  0.35407  0.02072  0.99364  1.0000
  C   C70       1.0  0.13906  0.30188  0.02712  1.0000
  C   C71       1.0  0.42460  0.45947  0.00931  1.0000
  C   C72       1.0  0.27361  0.03250  0.11755  1.0000
  C   C73       1.0  0.25433  0.16658  0.23416  1.0000
  C   C74       1.0  0.21593  0.34032  0.07113  1.0000
  C   C75       1.0  0.28471  0.03530  0.05414  1.0000
  C   C76       1.0  0.11894  0.22258  0.20101  1.0000
  H   H46       1.0  0.19601  0.31350  0.08944  1.0000
  C   C77       1.0  0.12848  0.31644  0.03447  1.0000
  C   C78       1.0  0.46722  0.02477  0.11690  1.0000
  H   H47       1.0  0.17515  0.30211  0.23599  1.0000
  C   C79       1.0  0.00197  0.13470  0.19150  1.0000
  C   C80       1.0  0.17270  0.31554  0.04766  1.0000
  Fe  Fe15      1.0  0.98982  0.24941  0.14255  1.0000
  C   C81       1.0  0.41728  0.44870  0.03685  1.0000
  C   C82       1.0  0.40737  0.42230  0.03284  1.0000
  C   C83       1.0  0.40622  0.41443  0.01713  1.0000
  C   C84       1.0  0.41463  0.43287  0.00538  1.0000
  C   C85       1.0  0.17349  0.26210  0.05904  1.0000
  H   H48       1.0  0.06512  0.16591  0.19153  1.0000
  C   C86       1.0  0.18568  0.07446  0.22629  1.0000
  H   H49       1.0  0.16011  0.01730  0.20504  1.0000
  H   H50       1.0  0.31689  0.05504  0.03887  1.0000
  C   C87       1.0  0.25948  0.32179  0.02560  1.0000
  H   H51       1.0  0.11221  0.18925  0.18644  1.0000
  H   H52       1.0  0.40002  0.40785  0.04183  1.0000
  H   H53       1.0  0.39805  0.39388  0.01404  1.0000
  C   C88       1.0  0.98441  0.46671  0.00269  1.0000
  C   C89       1.0  0.14855  0.19957  0.23298  1.0000
  C   C90       1.0  0.24344  0.07088  0.19805  1.0000
  C   C91       1.0  0.24646  0.06398  0.21329  1.0000
  H   H54       1.0  0.31224  0.47643  0.10346  1.0000
  C   C92       1.0  0.01579  0.12326  0.19876  1.0000
  C   C93       1.0  0.25058  0.11345  0.20784  1.0000
  C   C94       1.0  0.24541  0.09545  0.19534  1.0000
  P   P2        1.0  0.25285  0.14517  0.20429  1.0000
  C   C95       1.0  0.22099  0.14286  0.20087  1.0000
  C   C96       1.0  0.30765  0.20026  0.23412  1.0000
  H   H55       1.0  0.41273  0.42602  0.99333  1.0000
  H   H56       1.0  0.01034  0.30591  0.17028  1.0000
  C   C97       1.0  0.08133  0.22055  0.21407  1.0000
  C   C98       1.0  0.21660  0.16416  0.20467  1.0000
  C   C99       1.0  0.18799  0.23709  0.07532  1.0000
  C   C100      1.0  0.17323  0.14176  0.19306  1.0000
  C   C101      1.0  0.17725  0.12030  0.18943  1.0000
  C   C102      1.0  0.20113  0.12094  0.19314  1.0000
  C   C103      1.0  0.27166  0.15901  0.18711  1.0000
  C   C104      1.0  0.29000  0.15120  0.18201  1.0000
  C   C105      1.0  0.30418  0.16174  0.16856  1.0000
  C   C106      1.0  0.30048  0.18043  0.16026  1.0000
  C   C107      1.0  0.28277  0.18877  0.16548  1.0000
  C   C108      1.0  0.26847  0.17820  0.17887  1.0000
  H   H57       1.0  0.23954  0.05717  0.18828  1.0000
  H   H58       1.0  0.24517  0.04501  0.21537  1.0000
  C   C109      1.0  0.21082  0.25966  0.07922  1.0000
  H   H59       1.0  0.21351  0.29187  0.19646  1.0000
  H   H60       1.0  0.24304  0.10040  0.18343  1.0000
  H   H61       1.0  0.22513  0.25874  0.08723  1.0000
  S   S29       1.0  0.00323  0.27143  0.20122  1.0000
  C   C110      1.0  0.25354  0.10630  0.22314  1.0000
  C   C111      1.0  0.27133  0.48204  0.05962  1.0000
  C   C112      1.0  0.44414  0.02484  0.99787  1.0000
  C   C113      1.0  0.20922  0.33329  0.08673  1.0000
  H   H62       1.0  0.16240  0.10376  0.18290  1.0000
  H   H63       1.0  0.20431  0.10483  0.18923  1.0000
  H   H64       1.0  0.29335  0.13694  0.18834  1.0000
  H   H65       1.0  0.31797  0.15533  0.16452  1.0000
  H   H66       1.0  0.31134  0.18851  0.14979  1.0000
  H   H67       1.0  0.27996  0.20336  0.15910  1.0000
  H   H68       1.0  0.25489  0.18505  0.18267  1.0000
  C   C114      1.0  0.30644  0.00191  0.05987  1.0000
  C   C115      1.0  0.98844  0.26178  0.21969  1.0000
  C   C116      1.0  0.24149  0.31380  0.03763  1.0000
  H   H69       1.0  0.05635  0.20398  0.12615  1.0000
  C   C117      1.0  0.19651  0.28490  0.06282  1.0000
  C   C118      1.0  0.34516  0.99659  0.00109  1.0000
  H   H70       1.0  0.08170  0.32584  0.11709  1.0000
  C   C119      1.0  0.00511  0.20596  0.22142  1.0000
  H   H71       1.0  0.21202  0.02400  0.09429  1.0000
  C   C120      1.0  0.17108  0.31285  0.18300  1.0000
  C   C121      1.0  0.11601  0.32425  0.10854  1.0000
  C   C122      1.0  0.99390  0.34070  0.05093  1.0000
  C   C123      1.0  0.98901  0.25407  0.05387  1.0000
  H   H72       1.0  0.01554  0.32274  0.01009  1.0000
  H   H73       1.0  0.17920  0.01311  0.03476  1.0000
  H   H74       1.0  0.23302  0.30073  0.07609  1.0000
  H   H75       1.0  0.19365  0.06006  0.04023  1.0000
  H   H76       1.0  0.32827  0.21351  0.23405  1.0000
  H   H77       1.0  0.13032  0.29115  0.01625  1.0000
  C   C124      1.0  0.36846  0.46410  0.08835  1.0000
  C   C125      1.0  0.22443  0.32473  0.03933  1.0000
  H   H78       1.0  0.15223  0.32977  0.09836  1.0000
  H   H79       1.0  0.06372  0.28483  0.10282  1.0000
  H   H80       1.0  0.02363  0.24401  0.09901  1.0000
  C   C126      1.0  0.25589  0.03934  0.12453  1.0000
  C   C127      1.0  0.26062  0.34073  0.01527  1.0000
  C   C128      1.0  0.31840  0.02241  0.04965  1.0000
  H   H81       1.0  0.15858  0.26253  0.05146  1.0000
  C   C129      1.0  0.45443  0.00505  0.10549  1.0000
  C   C130      1.0  0.23386  0.03639  0.11603  1.0000
  C   C131      1.0  0.08816  0.27931  0.20745  1.0000
  C   C132      1.0  0.13742  0.33617  0.09875  1.0000
  C   C133      1.0  0.99751  0.31485  0.16986  1.0000
  H   H82       1.0  0.09407  0.34680  0.02507  1.0000
  H   H83       1.0  0.19992  0.99039  0.04879  1.0000
  C   C134      1.0  0.12169  0.36621  0.09004  1.0000
  C   C135      1.0  0.10056  0.35470  0.09987  1.0000
  H   H84       1.0  0.22010  0.04160  0.12156  1.0000
  C   C136      1.0  0.21797  0.25014  0.22216  1.0000
  H   H85       1.0  0.45202  0.41713  0.99253  1.0000
  P   P3        1.0  0.24193  0.00818  0.07310  1.0000
  H   H86       1.0  0.99660  0.39043  0.11579  1.0000
  H   H87       1.0  0.27357  0.31440  0.02481  1.0000
  H   H88       1.0  0.01953  0.20343  0.11077  1.0000
  H   H89       1.0  0.17798  0.26934  0.21486  1.0000
  H   H90       1.0  0.26240  0.46916  0.03538  1.0000
  H   H91       1.0  0.02732  0.11334  0.22068  1.0000
  C   C137      1.0  0.16209  0.33033  0.05490  1.0000
  C   C138      1.0  0.16385  0.03067  0.21495  1.0000
  C   C139      1.0  0.14024  0.35715  0.08961  1.0000
  C   C140      1.0  0.16123  0.30161  0.03360  1.0000
  H   H92       1.0  0.12392  0.38246  0.08293  1.0000
  C   C141      1.0  0.28359  0.99800  0.06721  1.0000
  H   H93       1.0  0.29046  0.03439  0.12425  1.0000
  C   C142      1.0  0.23324  0.23752  0.22005  1.0000
  S   S30       1.0  0.17374  0.99479  0.17497  1.0000
  C   C143      1.0  0.23484  0.05111  0.06543  1.0000
  H   H94       1.0  0.46042  0.03106  0.99016  1.0000
  H   H95       1.0  0.99685  0.20093  0.20961  1.0000
  H   H96       1.0  0.35203  0.33158  0.00314  1.0000
  C   C144      1.0  0.24741  0.02001  0.09333  1.0000
  C   C145      1.0  0.22947  0.02655  0.10056  1.0000
  H   H97       1.0  0.21588  0.34577  0.11108  1.0000
  C   C146      1.0  0.22665  0.02448  0.06250  1.0000
  C   C147      1.0  0.18035  0.05720  0.21342  1.0000
  C   C148      1.0  0.10363  0.19773  0.19442  1.0000
  C   C149      1.0  0.06500  0.32296  0.04129  1.0000
  H   H98       1.0  0.07906  0.32430  0.05026  1.0000
  H   H99       1.0  0.05811  0.28851  0.19909  1.0000
  H   H100      1.0  0.06370  0.31881  0.22127  1.0000
  C   C150      1.0  0.07588  0.30916  0.22073  1.0000
  H   H101      1.0  0.01327  0.32356  0.13248  1.0000
  H   H102      1.0  0.31618  0.43758  0.11172  1.0000
  H   H103      1.0  0.18933  0.06420  0.20228  1.0000
  H   H104      1.0  0.13357  0.30247  0.19206  1.0000
  C   C151      1.0  0.23254  0.36643  0.06799  1.0000
  C   C152      1.0  0.07282  0.29213  0.20815  1.0000
  C   C153      1.0  0.02884  0.32187  0.01879  1.0000
  C   C154      1.0  0.98771  0.14371  0.20052  1.0000
  H   H105      1.0  0.08550  0.26616  0.19758  1.0000
  H   H106      1.0  0.02686  0.11635  0.19169  1.0000
  C   C155      1.0  0.25130  0.08160  0.22585  1.0000
  H   H107      1.0  0.41754  0.45483  0.04898  1.0000
  H   H108      1.0  0.11153  0.31684  0.02928  1.0000
  H   H109      1.0  0.28332  0.01754  0.09694  1.0000
  P   P4        1.0  0.43374  0.48370  0.99436  1.0000
  C   C156      1.0  0.03843  0.31004  0.04429  1.0000
  H   H110      1.0  0.13920  0.23271  0.19802  1.0000
  C   C157      1.0  0.20658  0.01087  0.05132  1.0000
  H   H111      1.0  0.22924  0.08436  0.05985  1.0000
  C   C158      1.0  0.26871  0.16680  0.22100  1.0000
  H   H112      1.0  0.30707  0.18427  0.21114  1.0000
  C   C159      1.0  0.99875  0.33205  0.18192  1.0000
  C   C160      1.0  0.05540  0.33490  0.01587  1.0000
  C   C161      1.0  0.15345  0.28493  0.20529  1.0000
  H   H113      1.0  0.16966  0.29079  0.02758  1.0000
  H   H114      1.0  0.20132  0.00652  0.21344  1.0000
  C   C162      1.0  0.10679  0.28350  0.21940  1.0000
  H   H115      1.0  0.27585  0.34832  0.00678  1.0000
  C   C163      1.0  0.16935  0.23829  0.06521  1.0000
  H   H116      1.0  0.23187  0.18175  0.21005  1.0000
  C   C164      1.0  0.43829  0.04350  0.00480  1.0000
  C   C165      1.0  0.04761  0.05996  0.23622  1.0000
  C   C166      1.0  0.00707  0.36965  0.99609  1.0000
  H   H117      1.0  0.24481  0.36660  0.00902  1.0000
  H   H118      1.0  0.97893  0.29549  0.14819  1.0000
  H   H119      1.0  0.21284  0.35249  0.02984  1.0000
  C   C167      1.0  0.14008  0.33083  0.04828  1.0000
  C   C168      1.0  0.38629  0.48316  0.00083  1.0000
  H   H120      1.0  0.23733  0.37272  0.05609  1.0000
  H   H121      1.0  0.38587  0.47287  0.01136  1.0000
  C   C169      1.0  0.10780  0.23441  0.21067  1.0000
  C   C170      1.0  0.10982  0.30073  0.23201  1.0000
  H   H122      1.0  0.19020  0.18059  0.20338  1.0000
  P   P5        1.0  0.20215  0.31612  0.05536  1.0000
  H   H123      1.0  0.25773  0.11971  0.23298  1.0000
  H   H124      1.0  0.31477  0.98887  0.06207  1.0000
  C   C171      1.0  0.21516  0.28342  0.07294  1.0000
  H   H125      1.0  0.01491  0.06806  0.23571  1.0000
  H   H126      1.0  0.24713  0.39139  0.10539  1.0000
  H   H127      1.0  0.38499  0.00337  0.02482  1.0000
  C   C172      1.0  0.20290  0.05016  0.04639  1.0000
  C   C173      1.0  0.42599  0.46722  0.02517  1.0000
  H   H128      1.0  0.12681  0.17392  0.21366  1.0000
  P   P6        1.0  0.12697  0.26731  0.21829  1.0000
  H   H129      1.0  0.13237  0.34283  0.05370  1.0000
  C   C174      1.0  0.35505  0.34708  0.99524  1.0000
  H   H130      1.0  0.03170  0.24493  0.21544  1.0000
  H   H131      1.0  0.25759  0.40456  0.07790  1.0000
  C   C175      1.0  0.35148  0.38593  0.98934  1.0000
  H   H132      1.0  0.25038  0.06201  0.07396  1.0000
  C   C176      1.0  0.22023  0.35165  0.09904  1.0000
  H   H133      1.0  0.15530  0.14181  0.18933  1.0000
  C   C177      1.0  0.40735  0.99072  0.01039  1.0000
  C   C178      1.0  0.01589  0.12144  0.21510  1.0000
  H   H134      1.0  0.35273  0.03669  0.99960  1.0000
  C   C179      1.0  0.27769  0.47927  0.04420  1.0000
  H   H135      1.0  0.20893  0.31902  0.17580  1.0000
  H   H136      1.0  0.03108  0.45787  0.02267  1.0000
  H   H137      1.0  0.02040  0.42441  0.00147  1.0000
  H   H138      1.0  0.18471  0.21874  0.08028  1.0000
  H   H139      1.0  0.06195  0.34554  0.00513  1.0000
  C   C180      1.0  0.42867  0.99827  0.00055  1.0000
  C   C181      1.0  0.35063  0.44693  0.09869  1.0000
  H   H140      1.0  0.09551  0.14030  0.23050  1.0000
  H   H141      1.0  0.99979  0.37626  0.06264  1.0000
  C   C182      1.0  0.19365  0.30992  0.18416  1.0000
  H   H142      1.0  0.15157  0.22076  0.06228  1.0000
  Fe  Fe16      1.0  0.98893  0.24593  0.17890  1.0000
  C   C183      1.0  0.32838  0.47354  0.09948  1.0000
  H   H143      1.0  0.46817  0.04375  0.11547  1.0000
  H   H144      1.0  0.15936  0.10433  0.23200  1.0000
  H   H145      1.0  0.41208  0.05018  0.01963  1.0000
  P   P7        1.0  0.98564  0.29346  0.03707  1.0000
  C   C184      1.0  0.19619  0.29451  0.19581  1.0000
  C   C185      1.0  0.02002  0.30914  0.03298  1.0000
  H   H146      1.0  0.23362  0.15381  0.23430  1.0000
  H   H147      1.0  0.01969  0.29059  0.08833  1.0000
  H   H148      1.0  0.27664  0.04838  0.05165  1.0000
  C   C186      1.0  0.47724  0.99548  0.13210  1.0000
  C   C187      1.0  0.41707  0.03580  0.01459  1.0000
  H   H149      1.0  0.98664  0.36532  0.01753  1.0000
  C   C188      1.0  0.98642  0.35944  0.05565  1.0000
  H   H150      1.0  0.16146  0.14693  0.22656  1.0000
  H   H151      1.0  0.99916  0.25171  0.04390  1.0000
  H   H152      1.0  0.33709  0.99416  0.01266  1.0000
  C   C189      1.0  0.09433  0.31342  0.23268  1.0000
  C   C190      1.0  0.17609  0.28188  0.20624  1.0000
  H   H153      1.0  0.44981  0.06389  0.00230  1.0000
  C   C191      1.0  0.20327  0.99622  0.22341  1.0000
  H   H154      1.0  0.99314  0.22476  0.06717  1.0000
  C   C192      1.0  0.00342  0.47032  0.01419  1.0000
  C   C193      1.0  0.00167  0.13051  0.22418  1.0000
  C   C194      1.0  0.01620  0.45493  0.01382  1.0000
  C   C195      1.0  0.01021  0.43611  0.00185  1.0000
  H   H155      1.0  0.33600  0.02524  0.04388  1.0000
  H   H156      1.0  0.38351  0.46004  0.08366  1.0000
  C   C196      1.0  0.40180  0.00946  0.01750  1.0000
  H   H157      1.0  0.03763  0.04195  0.22935  1.0000
  C   C197      1.0  0.99572  0.18780  0.23333  1.0000
  C   C198      1.0  0.98472  0.36178  0.00496  1.0000
  H   H158      1.0  0.01245  0.33629  0.19169  1.0000
  C   C199      1.0  0.97937  0.30868  0.15745  1.0000
  H   H159      1.0  0.35046  0.48372  0.00615  1.0000
  H   H160      1.0  0.19892  0.09488  0.22500  1.0000
  C   C200      1.0  0.45003  0.99580  0.04502  1.0000
  C   C201      1.0  0.02514  0.23093  0.22467  1.0000
  C   C202      1.0  0.46694  0.98721  0.06922  1.0000
  C   C203      1.0  0.47114  0.99974  0.05487  1.0000
  H   H161      1.0  0.25107  0.47403  0.06268  1.0000
  C   C204      1.0  0.97986  0.27272  0.05375  1.0000
  H   H162      1.0  0.07243  0.22910  0.22168  1.0000
  C   C205      1.0  0.00368  0.27157  0.23356  1.0000
  C   C206      1.0  0.12866  0.17671  0.22631  1.0000
  H   H163      1.0  0.44551  0.00903  0.09531  1.0000
  H   H164      1.0  0.02417  0.28458  0.23284  1.0000
  C   C207      1.0  0.99109  0.43229  0.99041  1.0000
  H   H165      1.0  0.14038  0.00065  0.23067  1.0000
  H   H166      1.0  0.98057  0.37292  0.08902  1.0000
  C   C208      1.0  0.98088  0.37083  0.11415  1.0000
  H   H167      1.0  0.16202  0.21449  0.22552  1.0000
  C   C209      1.0  0.98568  0.23882  0.06703  1.0000
  C   C210      1.0  0.24199  0.22948  0.23338  1.0000
  H   H168      1.0  0.97778  0.15321  0.19464  1.0000
  C   C211      1.0  0.11110  0.15760  0.23594  1.0000
  H   H169      1.0  0.98346  0.35719  0.19064  1.0000
  C   C212      1.0  0.98226  0.34361  0.18136  1.0000
  H   H170      1.0  0.97817  0.36315  0.13872  1.0000
  C   C213      1.0  0.97754  0.44714  0.99092  1.0000
  Fe  Fe17      1.0  0.19287  0.01207  0.32614  1.0000
  S   S31       1.0  0.23076  0.02116  0.31508  1.0000
  S   S32       1.0  0.18268  0.04402  0.33474  1.0000
  H   H171      1.0  0.23188  0.40351  0.38095  1.0000
  C   C214      1.0  0.99694  0.34295  0.42468  1.0000
  H   H172      1.0  0.14963  0.03079  0.25337  1.0000
  Fe  Fe18      1.0  0.22181  0.24178  0.32876  1.0000
  S   S33       1.0  0.19395  0.19918  0.33201  1.0000
  S   S34       1.0  0.23799  0.26452  0.35234  1.0000
  Fe  Fe19      1.0  0.21115  0.23569  0.29277  1.0000
  S   S35       1.0  0.18253  0.19350  0.29392  1.0000
  S   S36       1.0  0.21473  0.25659  0.26971  1.0000
  Fe  Fe20      1.0  0.16738  0.20534  0.31499  1.0000
  S   S37       1.0  0.12424  0.18765  0.31962  1.0000
  Fe  Fe21      1.0  0.21129  0.19037  0.31078  1.0000
  S   S38       1.0  0.22222  0.15741  0.30620  1.0000
  S   S39       1.0  0.19376  0.24791  0.31286  1.0000
  S   S40       1.0  0.24136  0.23256  0.30845  1.0000
  Fe  Fe22      1.0  0.01766  0.23247  0.30383  1.0000
  S   S41       1.0  0.00668  0.26505  0.30377  1.0000
  S   S42       1.0  0.05920  0.24453  0.29709  1.0000
  H   H173      1.0  0.12585  0.06469  0.25357  1.0000
  Fe  Fe23      1.0  0.31600  0.40284  0.40375  1.0000
  S   S43       1.0  0.29304  0.38805  0.42566  1.0000
  S   S44       1.0  0.30975  0.38084  0.37991  1.0000
  Fe  Fe24      1.0  0.34586  0.45961  0.41760  1.0000
  S   S45       1.0  0.32257  0.44775  0.43965  1.0000
  Fe  Fe25      1.0  0.33073  0.41309  0.43917  1.0000
  S   S46       1.0  0.34767  0.40937  0.46323  1.0000
  Fe  Fe26      1.0  0.28663  0.42370  0.42445  1.0000
  S   S47       1.0  0.24349  0.41403  0.42817  1.0000
  S   S48       1.0  0.35452  0.42548  0.41727  1.0000
  S   S49       1.0  0.30905  0.43807  0.40237  1.0000
  Fe  Fe27      1.0  0.05911  0.40241  0.40581  1.0000
  S   S50       1.0  0.08029  0.39110  0.42404  1.0000
  S   S51       1.0  0.04787  0.38255  0.38114  1.0000
  Fe  Fe28      1.0  0.06745  0.45262  0.42509  1.0000
  S   S52       1.0  0.08971  0.44381  0.44412  1.0000
  Fe  Fe29      1.0  0.11003  0.43334  0.42494  1.0000
  S   S53       1.0  0.15467  0.45123  0.42293  1.0000
  Fe  Fe30      1.0  0.05807  0.40239  0.44175  1.0000
  S   S54       1.0  0.04137  0.37795  0.46358  1.0000
  S   S55       1.0  0.08964  0.44466  0.40600  1.0000
  S   S56       1.0  0.03505  0.41116  0.42344  1.0000
  H   H174      1.0  0.23134  0.44661  0.48387  1.0000
  C   C215      1.0  0.08625  0.09181  0.25021  1.0000
  C   C216      1.0  0.38414  0.15520  0.44010  1.0000
  C   C217      1.0  0.21853  0.42393  0.42556  1.0000
  C   C218      1.0  0.22269  0.44673  0.41796  1.0000
  C   C219      1.0  0.20279  0.45438  0.41702  1.0000
  C   C220      1.0  0.17818  0.43919  0.42335  1.0000
  C   C221      1.0  0.17367  0.41590  0.43044  1.0000
  C   C222      1.0  0.19374  0.40847  0.43160  1.0000
  H   H175      1.0  0.24132  0.45863  0.41291  1.0000
  H   H176      1.0  0.41258  0.48433  0.39844  1.0000
  Fe  Fe31      1.0  0.98545  0.24740  0.32582  1.0000
  C   C223      1.0  0.15762  0.26521  0.26837  1.0000
  C   C224      1.0  0.34923  0.36197  0.46637  1.0000
  C   C225      1.0  0.15842  0.39125  0.39054  1.0000
  C   C226      1.0  0.13314  0.24607  0.26321  1.0000
  H   H177      1.0  0.34055  0.35677  0.45467  1.0000
  H   H178      1.0  0.18675  0.29864  0.31492  1.0000
  H   H179      1.0  0.19010  0.39070  0.43741  1.0000
  C   C227      1.0  0.41106  0.42156  0.44634  1.0000
  C   C228      1.0  0.00669  0.29946  0.35822  1.0000
  C   C229      1.0  0.00878  0.30294  0.37469  1.0000
  C   C230      1.0  0.02197  0.32799  0.38193  1.0000
  C   C231      1.0  0.03256  0.35016  0.37278  1.0000
  C   C232      1.0  0.03068  0.34669  0.35630  1.0000
  C   C233      1.0  0.01802  0.32157  0.34906  1.0000
  H   H180      1.0  0.02354  0.33009  0.39458  1.0000
  H   H181      1.0  0.03877  0.36359  0.34904  1.0000
  H   H182      1.0  0.01632  0.31938  0.33640  1.0000
  H   H183      1.0  0.00474  0.27175  0.25898  1.0000
  C   C234      1.0  0.10665  0.20428  0.31395  1.0000
  C   C235      1.0  0.11830  0.22722  0.30560  1.0000
  C   C236      1.0  0.10363  0.23972  0.30087  1.0000
  C   C237      1.0  0.07728  0.22943  0.30450  1.0000
  C   C238      1.0  0.06576  0.20686  0.31322  1.0000
  C   C239      1.0  0.08040  0.19423  0.31783  1.0000
  H   H184      1.0  0.13854  0.23519  0.30269  1.0000
  H   H185      1.0  0.11266  0.25731  0.29425  1.0000
  H   H186      1.0  0.04546  0.19880  0.31607  1.0000
  H   H187      1.0  0.07132  0.17651  0.32433  1.0000
  C   C240      1.0  0.28844  0.34859  0.37252  1.0000
  C   C241      1.0  0.28602  0.34351  0.35616  1.0000
  C   C242      1.0  0.27033  0.31817  0.34973  1.0000
  C   C243      1.0  0.25707  0.29733  0.35960  1.0000
  C   C244      1.0  0.25928  0.30245  0.37595  1.0000
  C   C245      1.0  0.27474  0.32783  0.38237  1.0000
  H   H188      1.0  0.29665  0.35927  0.34840  1.0000
  H   H189      1.0  0.26900  0.31466  0.33716  1.0000
  H   H190      1.0  0.24926  0.28655  0.38375  1.0000
  H   H191      1.0  0.27653  0.33121  0.39496  1.0000
  C   C246      1.0  0.22123  0.24775  0.25077  1.0000
  C   C247      1.0  0.23571  0.23420  0.24867  1.0000
  C   C248      1.0  0.30531  0.45568  0.48093  1.0000
  H   H192      1.0  0.24298  0.22833  0.25881  1.0000
  C   C249      1.0  0.21254  0.09049  0.26586  1.0000
  C   C250      1.0  0.19535  0.07627  0.32755  1.0000
  C   C251      1.0  0.21462  0.08554  0.31630  1.0000
  C   C252      1.0  0.22312  0.11068  0.31029  1.0000
  C   C253      1.0  0.21241  0.12689  0.31535  1.0000
  C   C254      1.0  0.19379  0.11799  0.32700  1.0000
  C   C255      1.0  0.18536  0.09288  0.33305  1.0000
  H   H193      1.0  0.22281  0.07324  0.31214  1.0000
  H   H194      1.0  0.23779  0.11744  0.30147  1.0000
  H   H195      1.0  0.18590  0.13045  0.33136  1.0000
  H   H196      1.0  0.17079  0.08616  0.34195  1.0000
  H   H197      1.0  0.00117  0.18098  0.25780  1.0000
  C   C256      1.0  0.36838  0.03111  0.41147  1.0000
  H   H198      1.0  0.23071  0.33310  0.39662  1.0000
  H   H199      1.0  0.41713  0.42185  0.42149  1.0000
  C   C257      1.0  0.30906  0.43359  0.48224  1.0000
  H   H200      1.0  0.30623  0.05995  0.42311  1.0000
  C   C258      1.0  0.37154  0.01308  0.47733  1.0000
  C   C259      1.0  0.35515  0.34440  0.47475  1.0000
  H   H201      1.0  0.42223  0.01034  0.42818  1.0000
  H   H202      1.0  0.10627  0.09832  0.25385  1.0000
  H   H203      1.0  0.05087  0.25778  0.24246  1.0000
  H   H204      1.0  0.99268  0.45662  0.44153  1.0000
  H   H205      1.0  0.38936  0.46596  0.46196  1.0000
  H   H206      1.0  0.09322  0.34210  0.41668  1.0000
  C   C260      1.0  0.02505  0.43497  0.38427  1.0000
  C   C261      1.0  0.32958  0.08276  0.44275  1.0000
  H   H207      1.0  0.09997  0.05234  0.30107  1.0000
  H   H208      1.0  0.12156  0.23063  0.27097  1.0000
  H   H209      1.0  0.05578  0.27420  0.32668  1.0000
  C   C262      1.0  0.17263  0.28530  0.25848  1.0000
  C   C263      1.0  0.26657  0.18305  0.24718  1.0000
  C   C264      1.0  0.20412  0.00599  0.23880  1.0000
  C   C265      1.0  0.38714  0.16479  0.47274  1.0000
  C   C266      1.0  0.02762  0.28031  0.40856  1.0000
  C   C267      1.0  0.07868  0.31802  0.35742  1.0000
  H   H210      1.0  0.08116  0.33721  0.36051  1.0000
  H   H211      1.0  0.27756  0.13244  0.26709  1.0000
  H   H212      1.0  0.10495  0.23145  0.24424  1.0000
  H   H213      1.0  0.26491  0.01136  0.41670  1.0000
  H   H214      1.0  0.38300  0.15156  0.42751  1.0000
  C   C268      1.0  0.10437  0.36743  0.38639  1.0000
  C   C269      1.0  0.44070  0.01161  0.45060  1.0000
  H   H215      1.0  0.02568  0.47172  0.46905  1.0000
  S   S57       1.0  0.26500  0.98744  0.34099  1.0000
  H   H216      1.0  0.15643  0.42750  0.39010  1.0000
  C   C270      1.0  0.12388  0.24659  0.24801  1.0000
  H   H217      1.0  0.20830  0.31036  0.37217  1.0000
  H   H218      1.0  0.15494  0.40393  0.43537  1.0000
  C   C271      1.0  0.07498  0.32482  0.41423  1.0000
  H   H219      1.0  0.12393  0.01402  0.29039  1.0000
  S   S58       1.0  0.99828  0.21599  0.32643  1.0000
  H   H220      1.0  0.20940  0.38120  0.35610  1.0000
  C   C272      1.0  0.98928  0.35145  0.41125  1.0000
  C   C273      1.0  0.03591  0.23811  0.23986  1.0000
  C   C274      1.0  0.15083  0.28804  0.38912  1.0000
  H   H221      1.0  0.15479  0.35287  0.39119  1.0000
  C   C275      1.0  0.42250  0.43323  0.43241  1.0000
  H   H222      1.0  0.32255  0.09710  0.44191  1.0000
  H   H223      1.0  0.23963  0.01481  0.39398  1.0000
  H   H224      1.0  0.37235  0.05035  0.41569  1.0000
  H   H225      1.0  0.00059  0.35500  0.40077  1.0000
  C   C276      1.0  0.19910  0.16381  0.25993  1.0000
  H   H226      1.0  0.24249  0.37956  0.40120  1.0000
  C   C277      1.0  0.17077  0.12080  0.23981  1.0000
  H   H227      1.0  0.17417  0.45996  0.45847  1.0000
  H   H228      1.0  0.38497  0.02843  0.47016  1.0000
  C   C278      1.0  0.43489  0.46295  0.46058  1.0000
  C   C279      1.0  0.14555  0.40646  0.38916  1.0000
  C   C280      1.0  0.35680  0.06690  0.45569  1.0000
  H   H229      1.0  0.41457  0.14897  0.47295  1.0000
  H   H230      1.0  0.25540  0.18304  0.25726  1.0000
  C   C281      1.0  0.05456  0.31869  0.42452  1.0000
  C   C282      1.0  0.34764  0.08532  0.45459  1.0000
  H   H231      1.0  0.24763  0.42819  0.46026  1.0000
  H   H232      1.0  0.46629  0.45016  0.48412  1.0000
  H   H233      1.0  0.04179  0.44017  0.37699  1.0000
  C   C283      1.0  0.29059  0.40969  0.47581  1.0000
  H   H234      1.0  0.20150  0.26638  0.23890  1.0000
  C   C284      1.0  0.44023  0.45968  0.43252  1.0000
  H   H235      1.0  0.35972  0.17978  0.46788  1.0000
  S   S59       1.0  0.20878  0.00680  0.27091  1.0000
  H   H236      1.0  0.09016  0.05042  0.27245  1.0000
  C   C285      1.0  0.16129  0.07519  0.28760  1.0000
  H   H237      1.0  0.00016  0.39415  0.46028  1.0000
  H   H238      1.0  0.13804  0.28470  0.42803  1.0000
  H   H239      1.0  0.16245  0.28380  0.38084  1.0000
  H   H240      1.0  0.35440  0.10156  0.46292  1.0000
  H   H241      1.0  0.45524  0.00702  0.47303  1.0000
  H   H242      1.0  0.21967  0.30304  0.29559  1.0000
  C   C286      1.0  0.14146  0.99577  0.27615  1.0000
  C   C287      1.0  0.01354  0.37240  0.47474  1.0000
  C   C288      1.0  0.11378  0.12657  0.30902  1.0000
  C   C289      1.0  0.13691  0.12553  0.30619  1.0000
  C   C290      1.0  0.14612  0.12818  0.29098  1.0000
  C   C291      1.0  0.13223  0.13192  0.27855  1.0000
  C   C292      1.0  0.10881  0.13290  0.28124  1.0000
  C   C293      1.0  0.09979  0.13028  0.29664  1.0000
  P   P8        1.0  0.09067  0.13716  0.26498  1.0000
  Fe  Fe32      1.0  0.20623  0.99228  0.29597  1.0000
  C   C294      1.0  0.06816  0.14859  0.27191  1.0000
  C   C295      1.0  0.04605  0.13193  0.28011  1.0000
  H   H243      1.0  0.19179  0.29990  0.26246  1.0000
  P   P9        1.0  0.18203  0.08698  0.25768  1.0000
  C   C296      1.0  0.05501  0.18274  0.27452  1.0000
  C   C297      1.0  0.07233  0.17403  0.26905  1.0000
  H   H244      1.0  0.37062  0.06869  0.46499  1.0000
  C   C298      1.0  0.19436  0.46497  0.46102  1.0000
  H   H245      1.0  0.16479  0.27525  0.40904  1.0000
  H   H246      1.0  0.40777  0.04377  0.40428  1.0000
  H   H247      1.0  0.04244  0.11226  0.28251  1.0000
  C   C299      1.0  0.11371  0.16108  0.25236  1.0000
  C   C300      1.0  0.13398  0.18392  0.25897  1.0000
  C   C301      1.0  0.15116  0.20313  0.24929  1.0000
  C   C302      1.0  0.02388  0.45349  0.39449  1.0000
  C   C303      1.0  0.98315  0.33932  0.43847  1.0000
  C   C304      1.0  0.13907  0.26647  0.23787  1.0000
  H   H248      1.0  0.10728  0.12570  0.32094  1.0000
  H   H249      1.0  0.14808  0.12339  0.31586  1.0000
  H   H250      1.0  0.16452  0.12816  0.28903  1.0000
  H   H251      1.0  0.14017  0.13470  0.26694  1.0000
  H   H252      1.0  0.08262  0.13213  0.29942  1.0000
  C   C305      1.0  0.37105  0.17103  0.46307  1.0000
  C   C306      1.0  0.02695  0.22005  0.25177  1.0000
  C   C307      1.0  0.24646  0.47616  0.46632  1.0000
  C   C308      1.0  0.20674  0.99285  0.25191  1.0000
  H   H253      1.0  0.08899  0.18740  0.26277  1.0000
  C   C309      1.0  0.23600  0.11274  0.26310  1.0000
  H   H254      1.0  0.03500  0.22581  0.26363  1.0000
  H   H255      1.0  0.16110  0.01075  0.27871  1.0000
  C   C310      1.0  0.14109  0.06709  0.29821  1.0000
  H   H256      1.0  0.40750  0.42706  0.47089  1.0000
  H   H257      1.0  0.13625  0.18714  0.27162  1.0000
  H   H258      1.0  0.16652  0.22084  0.25451  1.0000
  C   C311      1.0  0.36956  0.16621  0.44684  1.0000
  C   C312      1.0  0.13691  0.28835  0.41569  1.0000
  C   C313      1.0  0.42298  0.99932  0.43814  1.0000
  H   H259      1.0  0.20693  0.13779  0.27400  1.0000
  C   C314      1.0  0.40189  0.15389  0.46581  1.0000
  C   C315      1.0  0.98286  0.42076  0.40397  1.0000
  H   H260      1.0  0.07791  0.48189  0.46328  1.0000
  C   C316      1.0  0.32034  0.06157  0.43210  1.0000
  H   H261      1.0  0.23739  0.05652  0.28632  1.0000
  H   H262      1.0  0.09656  0.32651  0.24249  1.0000
  H   H263      1.0  0.17931  0.40056  0.39263  1.0000
  C   C317      1.0  0.18654  0.16653  0.24651  1.0000
  H   H264      1.0  0.32032  0.47421  0.48540  1.0000
  H   H265      1.0  0.35719  0.17121  0.43945  1.0000
  C   C318      1.0  0.00280  0.44640  0.40433  1.0000
  C   C319      1.0  0.26010  0.09476  0.27742  1.0000
  C   C320      1.0  0.06842  0.30752  0.34248  1.0000
  H   H266      1.0  0.30353  0.03040  0.36403  1.0000
  H   H267      1.0  0.00242  0.46075  0.41252  1.0000
  C   C321      1.0  0.35441  0.38609  0.47320  1.0000
  C   C322      1.0  0.19758  0.13965  0.26330  1.0000
  H   H268      1.0  0.35726  0.48228  0.46384  1.0000
  H   H269      1.0  0.06332  0.31864  0.33429  1.0000
  C   C323      1.0  0.17187  0.14492  0.23667  1.0000
  C   C324      1.0  0.06951  0.26759  0.34895  1.0000
  C   C325      1.0  0.11711  0.35193  0.38758  1.0000
  C   C326      1.0  0.34334  0.01007  0.41233  1.0000
  C   C327      1.0  0.44153  0.99722  0.46341  1.0000
  C   C328      1.0  0.04794  0.28647  0.39817  1.0000
  H   H270      1.0  0.25454  0.38958  0.46250  1.0000
  H   H271      1.0  0.39669  0.40121  0.44625  1.0000
  C   C329      1.0  0.40035  0.14910  0.44958  1.0000
  C   C330      1.0  0.11002  0.05724  0.27665  1.0000
  P   P10       1.0  0.31680  0.01486  0.41974  1.0000
  C   C331      1.0  0.13023  0.06523  0.26601  1.0000
  C   C332      1.0  0.32922  0.04279  0.43317  1.0000
  H   H272      1.0  0.02017  0.17319  0.28727  1.0000
  H   H273      1.0  0.01193  0.12797  0.29207  1.0000
  C   C333      1.0  0.98157  0.46213  0.44952  1.0000
  C   C334      1.0  0.35651  0.98788  0.47056  1.0000
  C   C335      1.0  0.34784  0.04586  0.44492  1.0000
  H   H274      1.0  0.19574  0.05230  0.27585  1.0000
  C   C336      1.0  0.07991  0.27805  0.36389  1.0000
  H   H275      1.0  0.18097  0.08261  0.29208  1.0000
  C   C337      1.0  0.16329  0.28617  0.24337  1.0000
  C   C338      1.0  0.00728  0.19479  0.24848  1.0000
  C   C339      1.0  0.29907  0.01921  0.40335  1.0000
  C   C340      1.0  0.27373  0.01592  0.40532  1.0000
  C   C341      1.0  0.25935  0.01788  0.39252  1.0000
  C   C342      1.0  0.27020  0.02323  0.37768  1.0000
  C   C343      1.0  0.29551  0.02692  0.37567  1.0000
  C   C344      1.0  0.30992  0.02488  0.38841  1.0000
  P   P11       1.0  0.09821  0.31686  0.38763  1.0000
  H   H276      1.0  0.04130  0.43966  0.47552  1.0000
  C   C345      1.0  0.28279  0.45391  0.47340  1.0000
  C   C346      1.0  0.29501  0.98604  0.42993  1.0000
  C   C347      1.0  0.03087  0.29646  0.42168  1.0000
  C   C348      1.0  0.21333  0.07002  0.27398  1.0000
  C   C349      1.0  0.11549  0.05830  0.29276  1.0000
  C   C350      1.0  0.12040  0.29839  0.41047  1.0000
  H   H277      1.0  0.35512  0.03171  0.44592  1.0000
  H   H278      1.0  0.04480  0.27392  0.38794  1.0000
  C   C351      1.0  0.26834  0.40785  0.46809  1.0000
  C   C352      1.0  0.08519  0.30365  0.36814  1.0000
  C   C353      1.0  0.06398  0.28240  0.33821  1.0000
  H   H279      1.0  0.20996  0.18042  0.26782  1.0000
  H   H280      1.0  0.25886  0.02399  0.36761  1.0000
  H   H281      1.0  0.31329  0.99905  0.45311  1.0000
  P   P12       1.0  0.44013  0.48200  0.47855  1.0000
  H   H282      1.0  0.12408  0.30444  0.24136  1.0000
  H   H283      1.0  0.32921  0.02713  0.38641  1.0000
  H   H284      1.0  0.98943  0.33326  0.44898  1.0000
  C   C354      1.0  0.25963  0.11498  0.26899  1.0000
  C   C355      1.0  0.15603  0.07423  0.27143  1.0000
  H   H285      1.0  0.41175  0.14066  0.44436  1.0000
  H   H286      1.0  0.10895  0.30243  0.41894  1.0000
  H   H287      1.0  0.23622  0.12841  0.25643  1.0000
  H   H288      1.0  0.10847  0.40631  0.38630  1.0000
  C   C356      1.0  0.03482  0.07469  0.23981  1.0000
  C   C357      1.0  0.11855  0.39455  0.38707  1.0000
  C   C358      1.0  0.15204  0.28309  0.40501  1.0000
  H   H289      1.0  0.08338  0.35859  0.38524  1.0000
  C   C359      1.0  0.38849  0.02752  0.40488  1.0000
  H   H290      1.0  0.20659  0.47236  0.41144  1.0000
  C   C360      1.0  0.16778  0.25025  0.34990  1.0000
  C   C361      1.0  0.14074  0.23851  0.34829  1.0000
  C   C362      1.0  0.12822  0.25368  0.34529  1.0000
  C   C363      1.0  0.14270  0.28068  0.34421  1.0000
  C   C364      1.0  0.16995  0.29269  0.34609  1.0000
  C   C365      1.0  0.18231  0.27715  0.34858  1.0000
  P   P13       1.0  0.18939  0.32740  0.34412  1.0000
  C   C366      1.0  0.21314  0.33174  0.32947  1.0000
  C   C367      1.0  0.16829  0.34078  0.33756  1.0000
  C   C368      1.0  0.16313  0.34174  0.32149  1.0000
  C   C369      1.0  0.14583  0.35102  0.31658  1.0000
  C   C370      1.0  0.13368  0.35950  0.32766  1.0000
  C   C371      1.0  0.13868  0.35856  0.34367  1.0000
  C   C372      1.0  0.15560  0.34889  0.34861  1.0000
  C   C373      1.0  0.23882  0.35163  0.33126  1.0000
  C   C374      1.0  0.25730  0.35409  0.32018  1.0000
  C   C375      1.0  0.25037  0.33666  0.30732  1.0000
  C   C376      1.0  0.22487  0.31687  0.30542  1.0000
  C   C377      1.0  0.20631  0.31441  0.31643  1.0000
  C   C378      1.0  0.20585  0.34361  0.36243  1.0000
  C   C379      1.0  0.21243  0.33039  0.37394  1.0000
  C   C380      1.0  0.22530  0.34328  0.38792  1.0000
  C   C381      1.0  0.23207  0.36952  0.39047  1.0000
  C   C382      1.0  0.22606  0.38299  0.37902  1.0000
  C   C383      1.0  0.21321  0.37020  0.36501  1.0000
  H   H291      1.0  0.17763  0.23845  0.35174  1.0000
  H   H292      1.0  0.12957  0.21755  0.34887  1.0000
  H   H293      1.0  0.10733  0.24431  0.34339  1.0000
  H   H294      1.0  0.13249  0.29185  0.34164  1.0000
  H   H295      1.0  0.20331  0.28580  0.34921  1.0000
  H   H296      1.0  0.17216  0.33512  0.31271  1.0000
  H   H297      1.0  0.14175  0.35151  0.30417  1.0000
  H   H298      1.0  0.12029  0.36668  0.32384  1.0000
  H   H299      1.0  0.12933  0.36521  0.35227  1.0000
  H   H300      1.0  0.15876  0.34773  0.36105  1.0000
  H   H301      1.0  0.24492  0.36489  0.34136  1.0000
  H   H302      1.0  0.27721  0.36910  0.32183  1.0000
  H   H303      1.0  0.26485  0.33819  0.29896  1.0000
  H   H304      1.0  0.27832  0.09642  0.28211  1.0000
  H   H305      1.0  0.03764  0.10943  0.25082  1.0000
  C   C384      1.0  0.99647  0.38237  0.47055  1.0000
  H   H306      1.0  0.26829  0.46903  0.43658  1.0000
  C   C385      1.0  0.26449  0.42987  0.46684  1.0000
  H   H307      1.0  0.99978  0.28607  0.38189  1.0000
  C   C386      1.0  0.00506  0.40940  0.38377  1.0000
  H   H308      1.0  0.06534  0.24784  0.34570  1.0000
  C   C387      1.0  0.23699  0.07228  0.27984  1.0000
  C   C388      1.0  0.07335  0.06859  0.24135  1.0000
  H   H309      1.0  0.08355  0.26601  0.37213  1.0000
  C   C389      1.0  0.03320  0.16611  0.28273  1.0000
  H   H310      1.0  0.00684  0.39523  0.37613  1.0000
  H   H311      1.0  0.16516  0.26431  0.27996  1.0000
  C   C390      1.0  0.98359  0.40216  0.39344  1.0000
  C   C391      1.0  0.41724  0.43633  0.46034  1.0000
  H   H312      1.0  0.00918  0.26320  0.40624  1.0000
  C   C392      1.0  0.13467  0.29846  0.38391  1.0000
  H   H313      1.0  0.25342  0.07608  0.23769  1.0000
  C   C393      1.0  0.11899  0.30331  0.39449  1.0000
  P   P14       1.0  0.27993  0.48307  0.46963  1.0000
  C   C394      1.0  0.07177  0.30883  0.40090  1.0000
  H   H314      1.0  0.13439  0.30271  0.37163  1.0000
  C   C395      1.0  0.14431  0.36409  0.38977  1.0000
  H   H315      1.0  0.05708  0.33131  0.43467  1.0000
  H   H316      1.0  0.05891  0.20269  0.27280  1.0000
  H   H317      1.0  0.01500  0.29184  0.42959  1.0000
  C   C396      1.0  0.04774  0.09805  0.24856  1.0000
  C   C397      1.0  0.02867  0.14068  0.28548  1.0000
  C   C398      1.0  0.39272  0.48133  0.47052  1.0000
  C   C399      1.0  0.33851  0.98578  0.40585  1.0000
  C   C400      1.0  0.38361  0.00308  0.39878  1.0000
  H   H318      1.0  0.14539  0.06782  0.31070  1.0000
  H   H319      1.0  0.39908  0.00023  0.39358  1.0000
  C   C401      1.0  0.18416  0.11816  0.25298  1.0000
  H   H320      1.0  0.30256  0.21297  0.25716  1.0000
  H   H321      1.0  0.35086  0.32575  0.46936  1.0000
  H   H322      1.0  0.43838  0.21175  0.48401  1.0000
  C   C402      1.0  0.29319  0.19996  0.24714  1.0000
  C   C403      1.0  0.07346  0.10660  0.25407  1.0000
  H   H323      1.0  0.08335  0.05732  0.23835  1.0000
  H   H324      1.0  0.01403  0.33993  0.42452  1.0000
  C   C404      1.0  0.99271  0.26424  0.24842  1.0000
  H   H325      1.0  0.45370  0.03228  0.45037  1.0000
  C   C405      1.0  0.12046  0.99768  0.28265  1.0000
  H   H326      1.0  0.18808  0.18540  0.24384  1.0000
  C   C406      1.0  0.03051  0.44471  0.48403  1.0000
  C   C407      1.0  0.15792  0.03849  0.24222  1.0000
  C   C408      1.0  0.17424  0.06522  0.24075  1.0000
  S   S60       1.0  0.98773  0.26735  0.34994  1.0000
  C   C409      1.0  0.22673  0.45728  0.47511  1.0000
  H   H327      1.0  0.29404  0.39281  0.47632  1.0000
  H   H328      1.0  0.03962  0.47319  0.39511  1.0000
  S   S61       1.0  0.98332  0.20498  0.28893  1.0000
  H   H329      1.0  0.20307  0.02402  0.24057  1.0000
  C   C410      1.0  0.20075  0.45153  0.47233  1.0000
  Fe  Fe33      1.0  0.22944  0.98688  0.32827  1.0000
  C   C411      1.0  0.44634  0.47458  0.44652  1.0000
  H   H330      1.0  0.18548  0.43630  0.47873  1.0000
  H   H331      1.0  0.44865  0.46871  0.42164  1.0000
  C   C412      1.0  0.02152  0.46264  0.48038  1.0000
  C   C413      1.0  0.21244  0.25567  0.23741  1.0000
  H   H332      1.0  0.00254  0.12972  0.23687  1.0000
  C   C414      1.0  0.21395  0.48441  0.45262  1.0000
  Fe  Fe34      1.0  0.43625  0.08485  0.55371  1.0000
  S   S62       1.0  0.43102  0.10458  0.53224  1.0000
  Fe  Fe35      1.0  0.37747  0.06145  0.56156  1.0000
  S   S63       1.0  0.36966  0.07889  0.54003  1.0000
  S   S64       1.0  0.33974  0.03616  0.57471  1.0000
  Fe  Fe36      1.0  0.39529  0.06614  0.52693  1.0000
  S   S65       1.0  0.38841  0.05082  0.50119  1.0000
  Fe  Fe37      1.0  0.40547  0.11594  0.54706  1.0000
  S   S66       1.0  0.39545  0.15038  0.54771  1.0000
  S   S67       1.0  0.40125  0.04614  0.54789  1.0000
  S   S68       1.0  0.41273  0.09864  0.56906  1.0000
  Fe  Fe38      1.0  0.39248  0.32811  0.52402  1.0000
  S   S69       1.0  0.39426  0.35176  0.54572  1.0000
  S   S70       1.0  0.37316  0.32731  0.50002  1.0000
  Fe  Fe39      1.0  0.42212  0.30197  0.54079  1.0000
  S   S71       1.0  0.42696  0.32571  0.56299  1.0000
  S   S72       1.0  0.44046  0.27399  0.53966  1.0000
  Fe  Fe40      1.0  0.38448  0.31521  0.55941  1.0000
  S   S73       1.0  0.35554  0.29122  0.57841  1.0000
  Fe  Fe41      1.0  0.43670  0.36020  0.54748  1.0000
  S   S74       1.0  0.37986  0.29092  0.53739  1.0000
  S   S75       1.0  0.43476  0.33722  0.52549  1.0000
  H   H333      1.0  0.44860  0.19320  0.54407  1.0000
  Fe  Fe42      1.0  0.19588  0.01559  0.65347  1.0000
  S   S76       1.0  0.17820  0.04137  0.64552  1.0000
  S   S77       1.0  0.23447  0.03216  0.66599  1.0000
  Fe  Fe43      1.0  0.18447  0.20719  0.64650  1.0000
  S   S78       1.0  0.20886  0.24739  0.65658  1.0000
  S   S79       1.0  0.14282  0.19315  0.63686  1.0000
  Fe  Fe44      1.0  0.22700  0.19120  0.65448  1.0000
  S   S80       1.0  0.25330  0.23017  0.66590  1.0000
  S   S81       1.0  0.24497  0.16381  0.65455  1.0000
  Fe  Fe45      1.0  0.21695  0.22733  0.67683  1.0000
  S   S82       1.0  0.20343  0.23136  0.70129  1.0000
  Fe  Fe46      1.0  0.24290  0.24619  0.64444  1.0000
  S   S83       1.0  0.27250  0.28095  0.63072  1.0000
  S   S84       1.0  0.19161  0.18704  0.66690  1.0000
  S   S85       1.0  0.21770  0.20720  0.63275  1.0000
  C   C415      1.0  0.02143  0.27878  0.59520  1.0000
  C   C416      1.0  0.36539  0.11625  0.49692  1.0000
  H   H334      1.0  0.33866  0.17073  0.49353  1.0000
  C   C417      1.0  0.30721  0.19084  0.60432  1.0000
  Fe  Fe47      1.0  0.02037  0.22241  0.65470  1.0000
  S   S86       1.0  0.06412  0.23621  0.65861  1.0000
  S   S87       1.0  0.00424  0.25047  0.66065  1.0000
  C   C418      1.0  0.34589  0.20912  0.50099  1.0000
  C   C419      1.0  0.36497  0.98997  0.56841  1.0000
  C   C420      1.0  0.29776  0.10392  0.71523  1.0000
  C   C421      1.0  0.12030  0.20378  0.64381  1.0000
  C   C422      1.0  0.09557  0.19421  0.63641  1.0000
  C   C423      1.0  0.07764  0.20300  0.64118  1.0000
  C   C424      1.0  0.08439  0.22181  0.65331  1.0000
  C   C425      1.0  0.10891  0.23099  0.66087  1.0000
  C   C426      1.0  0.12666  0.22191  0.65626  1.0000
  H   H335      1.0  0.09037  0.18012  0.62678  1.0000
  H   H336      1.0  0.05893  0.19580  0.63517  1.0000
  H   H337      1.0  0.11431  0.24544  0.67028  1.0000
  H   H338      1.0  0.14544  0.22919  0.66218  1.0000
  C   C427      1.0  0.21908  0.23545  0.71994  1.0000
  C   C428      1.0  0.24613  0.24677  0.72185  1.0000
  H   H339      1.0  0.41815  0.22474  0.50654  1.0000
  H   H340      1.0  0.25816  0.25261  0.71165  1.0000
  C   C429      1.0  0.02080  0.28480  0.50342  1.0000
  C   C430      1.0  0.19695  0.07547  0.64781  1.0000
  C   C431      1.0  0.22341  0.08680  0.65193  1.0000
  C   C432      1.0  0.23771  0.11385  0.65422  1.0000
  C   C433      1.0  0.22580  0.12991  0.65222  1.0000
  C   C434      1.0  0.19940  0.11875  0.64791  1.0000
  C   C435      1.0  0.18506  0.09159  0.64563  1.0000
  H   H341      1.0  0.23301  0.07483  0.65317  1.0000
  H   H342      1.0  0.25812  0.12236  0.65747  1.0000
  H   H343      1.0  0.19010  0.13103  0.64625  1.0000
  H   H344      1.0  0.16462  0.08299  0.64234  1.0000
  H   H345      1.0  0.02114  0.34908  0.49145  1.0000
  C   C436      1.0  0.99183  0.35318  0.57102  1.0000
  C   C437      1.0  0.04301  0.23420  0.72977  1.0000
  C   C438      1.0  0.38823  0.01854  0.60594  1.0000
  C   C439      1.0  0.45419  0.44816  0.49402  1.0000
  C   C440      1.0  0.33207  0.28876  0.59262  1.0000
  C   C441      1.0  0.31785  0.26492  0.60009  1.0000
  C   C442      1.0  0.29938  0.26206  0.61155  1.0000
  C   C443      1.0  0.29501  0.28311  0.61592  1.0000
  C   C444      1.0  0.30917  0.30691  0.60843  1.0000
  C   C445      1.0  0.32741  0.30971  0.59683  1.0000
  H   H346      1.0  0.32102  0.24847  0.59694  1.0000
  H   H347      1.0  0.28863  0.24363  0.61710  1.0000
  H   H348      1.0  0.30600  0.32337  0.61163  1.0000
  H   H349      1.0  0.33790  0.32811  0.59119  1.0000
  H   H350      1.0  0.44089  0.02595  0.56211  1.0000
  C   C446      1.0  0.18498  0.37892  0.61105  1.0000
  C   C447      1.0  0.37186  0.37487  0.49679  1.0000
  H   H351      1.0  0.40953  0.43861  0.52925  1.0000
  H   H352      1.0  0.38056  0.38005  0.50849  1.0000
  C   C448      1.0  0.32384  0.03430  0.59292  1.0000
  C   C449      1.0  0.33628  0.05093  0.60587  1.0000
  C   C450      1.0  0.35279  0.13984  0.51579  1.0000
  C   C451      1.0  0.29785  0.02759  0.62205  1.0000
  C   C452      1.0  0.28503  0.01165  0.60890  1.0000
  C   C453      1.0  0.29799  0.01487  0.59453  1.0000
  H   H353      1.0  0.35601  0.06603  0.60486  1.0000
  C   C454      1.0  0.30026  0.20331  0.70561  1.0000
  C   C455      1.0  0.45310  0.43159  0.50606  1.0000
  C   C456      1.0  0.99360  0.32996  0.56966  1.0000
  C   C457      1.0  0.36938  0.01852  0.49329  1.0000
  H   H354      1.0  0.44294  0.29011  0.58078  1.0000
  C   C458      1.0  0.40708  0.35811  0.59391  1.0000
  C   C459      1.0  0.40858  0.18491  0.54565  1.0000
  C   C460      1.0  0.39161  0.19621  0.54586  1.0000
  C   C461      1.0  0.40092  0.22332  0.54428  1.0000
  C   C462      1.0  0.42742  0.23963  0.54225  1.0000
  C   C463      1.0  0.44439  0.22835  0.54211  1.0000
  C   C464      1.0  0.43514  0.20131  0.54396  1.0000
  H   H355      1.0  0.37106  0.18391  0.54722  1.0000
  C   C465      1.0  0.07733  0.25083  0.61819  1.0000
  H   H356      1.0  0.35887  0.24900  0.50870  1.0000
  H   H357      1.0  0.03303  0.46590  0.56673  1.0000
  C   C466      1.0  0.39049  0.23932  0.50789  1.0000
  C   C467      1.0  0.31032  0.08250  0.69493  1.0000
  C   C468      1.0  0.33271  0.09276  0.51587  1.0000
  C   C469      1.0  0.00822  0.35702  0.48812  1.0000
  H   H358      1.0  0.18234  0.05400  0.72618  1.0000
  Fe  Fe48      1.0  0.21533  0.00065  0.68337  1.0000
  H   H359      1.0  0.02666  0.47905  0.54020  1.0000
  C   C470      1.0  0.38299  0.22495  0.59037  1.0000
  C   C471      1.0  0.18979  0.06256  0.68898  1.0000
  C   C472      1.0  0.15280  0.15840  0.70146  1.0000
  H   H360      1.0  0.14337  0.31722  0.59882  1.0000
  C   C473      1.0  0.33642  0.18724  0.57322  1.0000
  C   C474      1.0  0.32158  0.16125  0.56801  1.0000
  C   C475      1.0  0.30932  0.15547  0.55314  1.0000
  C   C476      1.0  0.31156  0.17557  0.54344  1.0000
  C   C477      1.0  0.32582  0.20146  0.54867  1.0000
  C   C478      1.0  0.33808  0.20730  0.56353  1.0000
  H   H361      1.0  0.31971  0.14545  0.57533  1.0000
  H   H362      1.0  0.29825  0.13540  0.54911  1.0000
  H   H363      1.0  0.30227  0.17115  0.53186  1.0000
  H   H364      1.0  0.32761  0.21715  0.54121  1.0000
  H   H365      1.0  0.34905  0.22755  0.56727  1.0000
  H   H366      1.0  0.35934  0.13118  0.62818  1.0000
  H   H367      1.0  0.34846  0.16617  0.62146  1.0000
  C   C479      1.0  0.12269  0.26401  0.60168  1.0000
  H   H368      1.0  0.99556  0.43238  0.58058  1.0000
  C   C480      1.0  0.34800  0.09275  0.50338  1.0000
  C   C481      1.0  0.43912  0.99877  0.57972  1.0000
  C   C482      1.0  0.27739  0.10262  0.70547  1.0000
  C   C483      1.0  0.07576  0.24109  0.60290  1.0000
  H   H369      1.0  0.22209  0.06181  0.70113  1.0000
  H   H370      1.0  0.99468  0.24369  0.50298  1.0000
  C   C484      1.0  0.13096  0.11147  0.69848  1.0000
  C   C485      1.0  0.13749  0.13594  0.69243  1.0000
  H   H371      1.0  0.19188  0.39885  0.60750  1.0000
  C   C486      1.0  0.12449  0.27365  0.61717  1.0000
  H   H372      1.0  0.28754  0.07281  0.67342  1.0000
  H   H373      1.0  0.11886  0.09405  0.69151  1.0000
  H   H374      1.0  0.13071  0.13757  0.68074  1.0000
  C   C487      1.0  0.10877  0.21876  0.71193  1.0000
  C   C488      1.0  0.13321  0.23087  0.70525  1.0000
  C   C489      1.0  0.15439  0.24959  0.71396  1.0000
  C   C490      1.0  0.10563  0.22478  0.72748  1.0000
  H   H375      1.0  0.33268  0.98822  0.55466  1.0000
  C   C491      1.0  0.27262  0.15971  0.69532  1.0000
  C   C492      1.0  0.33390  0.19933  0.60699  1.0000
  H   H376      1.0  0.09224  0.20483  0.70497  1.0000
  H   H377      1.0  0.13576  0.22593  0.69328  1.0000
  H   H378      1.0  0.17337  0.25901  0.70877  1.0000
  H   H379      1.0  0.17795  0.09356  0.72089  1.0000
  H   H380      1.0  0.00515  0.42776  0.52011  1.0000
  S   S88       1.0  0.99360  0.19142  0.67040  1.0000
  C   C493      1.0  0.30391  0.20591  0.63052  1.0000
  H   H381      1.0  0.15780  0.17745  0.69685  1.0000
  C   C494      1.0  0.31406  0.09376  0.71000  1.0000
  H   H382      1.0  0.36491  0.24941  0.59623  1.0000
  C   C495      1.0  0.00230  0.26178  0.50981  1.0000
  C   C496      1.0  0.33545  0.11632  0.52225  1.0000
  C   C497      1.0  0.43901  0.34614  0.60452  1.0000
  C   C498      1.0  0.40843  0.02131  0.59603  1.0000
  H   H383      1.0  0.01464  0.27406  0.60709  1.0000
  H   H384      1.0  0.37301  0.03791  0.62123  1.0000
  H   H385      1.0  0.33372  0.05994  0.63033  1.0000
  H   H386      1.0  0.40949  0.08188  0.61727  1.0000
  H   H387      1.0  0.17389  0.17416  0.72315  1.0000
  C   C499      1.0  0.42222  0.17959  0.49982  1.0000
  C   C500      1.0  0.29233  0.19417  0.61608  1.0000
  H   H388      1.0  0.18119  0.04216  0.68539  1.0000
  H   H389      1.0  0.46494  0.24065  0.54061  1.0000
  C   C501      1.0  0.17603  0.08679  0.73274  1.0000
  C   C502      1.0  0.42841  0.99876  0.52597  1.0000
  C   C503      1.0  0.45294  0.38584  0.59015  1.0000
  C   C504      1.0  0.98449  0.36286  0.55800  1.0000
  C   C505      1.0  0.18959  0.10422  0.68855  1.0000
  C   C506      1.0  0.99648  0.25310  0.72151  1.0000
  C   C507      1.0  0.45250  0.98641  0.58667  1.0000
  H   H390      1.0  0.38694  0.35359  0.59176  1.0000
  H   H391      1.0  0.44540  0.08711  0.59980  1.0000
  S   S89       1.0  0.20361  0.98818  0.63786  1.0000
  C   C508      1.0  0.35209  0.99835  0.50241  1.0000
  C   C509      1.0  0.28567  0.18655  0.69321  1.0000
  H   H392      1.0  0.09728  0.23995  0.58281  1.0000
  P   P15       1.0  0.38895  0.17021  0.49385  1.0000
  H   H393      1.0  0.41116  0.01737  0.51177  1.0000
  C   C510      1.0  0.42918  0.04621  0.59407  1.0000
  H   H394      1.0  0.37428  0.16529  0.57435  1.0000
  H   H395      1.0  0.31962  0.07454  0.52105  1.0000
  H   H396      1.0  0.09655  0.31169  0.72773  1.0000
  C   C511      1.0  0.00136  0.45659  0.50583  1.0000
  C   C512      1.0  0.05537  0.29028  0.57629  1.0000
  C   C513      1.0  0.04683  0.28426  0.59163  1.0000
  C   C514      1.0  0.42224  0.44160  0.51948  1.0000
  C   C515      1.0  0.21314  0.07381  0.69775  1.0000
  C   C516      1.0  0.01290  0.28529  0.56800  1.0000
  C   C517      1.0  0.03852  0.29089  0.56450  1.0000
  H   H397      1.0  0.11993  0.28559  0.73061  1.0000
  H   H398      1.0  0.02747  0.28460  0.49163  1.0000
  H   H399      1.0  0.05804  0.26482  0.71308  1.0000
  H   H400      1.0  0.00358  0.26541  0.71150  1.0000
  C   C518      1.0  0.42949  0.06794  0.60167  1.0000
  H   H401      1.0  0.41960  0.99103  0.61930  1.0000
  C   C519      1.0  0.01015  0.43825  0.50928  1.0000
  H   H402      1.0  0.98512  0.27537  0.58646  1.0000
  C   C520      1.0  0.40578  0.22507  0.58488  1.0000
  C   C521      1.0  0.41832  0.00306  0.51200  1.0000
  S   S90       1.0  0.99371  0.20554  0.63344  1.0000
  H   H403      1.0  0.98245  0.38047  0.55920  1.0000
  P   P16       1.0  0.99088  0.28645  0.55307  1.0000
  C   C522      1.0  0.40930  0.06500  0.61147  1.0000
  H   H404      1.0  0.35011  0.00220  0.51465  1.0000
  C   C523      1.0  0.21948  0.99922  0.72690  1.0000
  H   H405      1.0  0.39744  0.32344  0.60677  1.0000
  C   C524      1.0  0.03063  0.30813  0.51220  1.0000
  C   C525      1.0  0.02187  0.30851  0.52735  1.0000
  H   H406      1.0  0.07508  0.29454  0.57354  1.0000
  H   H407      1.0  0.05987  0.28393  0.60079  1.0000
  C   C526      1.0  0.00297  0.28553  0.53377  1.0000
  H   H408      1.0  0.11450  0.15380  0.72999  1.0000
  H   H409      1.0  0.04558  0.29570  0.55274  1.0000
  C   C527      1.0  0.37384  0.12920  0.60537  1.0000
  H   H410      1.0  0.26539  0.99627  0.60995  1.0000
  H   H411      1.0  0.99863  0.32263  0.58004  1.0000
  C   C528      1.0  0.09844  0.24776  0.59461  1.0000
  C   C529      1.0  0.41308  0.34105  0.60237  1.0000
  C   C530      1.0  0.97883  0.34927  0.54358  1.0000
  C   C531      1.0  0.37954  0.19518  0.49908  1.0000
  H   H412      1.0  0.30078  0.11241  0.72699  1.0000
  H   H413      1.0  0.27179  0.18783  0.61405  1.0000
  C   C532      1.0  0.42700  0.38046  0.58778  1.0000
  H   H414      1.0  0.46856  0.37113  0.63100  1.0000
  C   C533      1.0  0.45920  0.36887  0.59867  1.0000
  H   H415      1.0  0.32475  0.11646  0.53251  1.0000
  H   H416      1.0  0.04488  0.32601  0.50720  1.0000
  H   H417      1.0  0.02965  0.32680  0.53398  1.0000
  C   C534      1.0  0.15760  0.33272  0.60625  1.0000
  C   C535      1.0  0.18922  0.03054  0.60693  1.0000
  C   C536      1.0  0.19391  0.00952  0.60324  1.0000
  C   C537      1.0  0.21894  0.01388  0.59957  1.0000
  C   C538      1.0  0.23919  0.03926  0.59934  1.0000
  C   C539      1.0  0.23454  0.06065  0.60262  1.0000
  C   C540      1.0  0.20940  0.05598  0.60668  1.0000
  P   P17       1.0  0.26091  0.09340  0.60156  1.0000
  C   C541      1.0  0.28057  0.09147  0.58581  1.0000
  C   C542      1.0  0.24858  0.11648  0.59773  1.0000
  C   C543      1.0  0.23526  0.12237  0.60949  1.0000
  C   C544      1.0  0.22603  0.14048  0.60698  1.0000
  C   C545      1.0  0.23029  0.15317  0.59273  1.0000
  C   C546      1.0  0.24397  0.14788  0.58104  1.0000
  C   C547      1.0  0.25317  0.12969  0.58353  1.0000
  C   C548      1.0  0.26920  0.08284  0.57074  1.0000
  C   C549      1.0  0.28301  0.07810  0.55889  1.0000
  C   C550      1.0  0.30805  0.08133  0.56209  1.0000
  C   C551      1.0  0.31936  0.08956  0.57705  1.0000
  C   C552      1.0  0.30581  0.09476  0.58888  1.0000
  C   C553      1.0  0.27940  0.10251  0.61993  1.0000
  C   C554      1.0  0.28962  0.12807  0.62613  1.0000
  C   C555      1.0  0.30415  0.13511  0.64025  1.0000
  C   C556      1.0  0.30923  0.11689  0.64807  1.0000
  C   C557      1.0  0.29966  0.09161  0.64179  1.0000
  C   C558      1.0  0.28451  0.08432  0.62791  1.0000
  H   H418      1.0  0.17004  0.02709  0.61045  1.0000
  H   H419      1.0  0.41301  0.14875  0.51640  1.0000
  H   H420      1.0  0.25849  0.04206  0.59666  1.0000
  H   H421      1.0  0.20503  0.07162  0.60982  1.0000
  H   H422      1.0  0.23217  0.11309  0.62073  1.0000
  H   H423      1.0  0.21588  0.14490  0.61622  1.0000
  H   H424      1.0  0.22327  0.16735  0.59086  1.0000
  H   H425      1.0  0.24761  0.15806  0.57009  1.0000
  H   H426      1.0  0.26408  0.12638  0.57442  1.0000
  H   H427      1.0  0.24928  0.07891  0.56834  1.0000
  H   H428      1.0  0.27396  0.07095  0.54740  1.0000
  H   H429      1.0  0.31849  0.07668  0.55316  1.0000
  H   H430      1.0  0.33830  0.09086  0.57960  1.0000
  H   H431      1.0  0.31475  0.10030  0.60049  1.0000
  H   H432      1.0  0.28621  0.14260  0.62023  1.0000
  H   H433      1.0  0.31120  0.15466  0.64516  1.0000
  H   H434      1.0  0.32042  0.12227  0.65904  1.0000
  H   H435      1.0  0.30375  0.07744  0.64769  1.0000
  H   H436      1.0  0.27699  0.06452  0.62341  1.0000
  C   C559      1.0  0.18736  0.24618  0.61381  1.0000
  C   C560      1.0  0.21324  0.26351  0.61101  1.0000
  C   C561      1.0  0.22185  0.29029  0.61263  1.0000
  C   C562      1.0  0.20456  0.29982  0.61693  1.0000
  C   C563      1.0  0.17842  0.28250  0.61958  1.0000
  C   C564      1.0  0.17008  0.25560  0.61822  1.0000
  P   P18       1.0  0.15613  0.29418  0.62623  1.0000
  C   C565      1.0  0.15579  0.29440  0.64747  1.0000
  C   C566      1.0  0.16716  0.32728  0.62021  1.0000
  C   C567      1.0  0.18582  0.34797  0.62950  1.0000
  C   C568      1.0  0.19466  0.37367  0.62492  1.0000
  C   C569      1.0  0.14266  0.30596  0.65556  1.0000
  C   C570      1.0  0.14292  0.30672  0.67199  1.0000
  C   C571      1.0  0.15679  0.29649  0.68049  1.0000
  C   C572      1.0  0.17046  0.28557  0.67254  1.0000
  C   C573      1.0  0.16998  0.28455  0.65612  1.0000
  H   H437      1.0  0.18079  0.22538  0.61295  1.0000
  H   H438      1.0  0.22685  0.25622  0.60800  1.0000
  H   H439      1.0  0.24218  0.30356  0.61094  1.0000
  H   H440      1.0  0.21183  0.32060  0.61839  1.0000
  H   H441      1.0  0.15029  0.24181  0.62081  1.0000
  H   H442      1.0  0.19373  0.34424  0.64022  1.0000
  H   H443      1.0  0.20911  0.38951  0.63213  1.0000
  H   H444      1.0  0.13209  0.31426  0.64916  1.0000
  H   H445      1.0  0.13222  0.31510  0.67813  1.0000
  H   H446      1.0  0.15688  0.29691  0.69320  1.0000
  H   H447      1.0  0.18122  0.27755  0.67906  1.0000
  H   H448      1.0  0.18051  0.27581  0.65025  1.0000
  H   H449      1.0  0.10209  0.27349  0.63733  1.0000
  H   H450      1.0  0.99507  0.36310  0.58236  1.0000
  C   C574      1.0  0.21787  0.16818  0.73272  1.0000
  P   P19       1.0  0.01776  0.15616  0.72229  1.0000
  C   C575      1.0  0.04734  0.15326  0.72486  1.0000
  C   C576      1.0  0.99824  0.13750  0.70553  1.0000
  C   C577      1.0  0.99881  0.11462  0.70032  1.0000
  C   C578      1.0  0.00657  0.46818  0.49111  1.0000
  C   C579      1.0  0.47699  0.99114  0.58139  1.0000
  H   H451      1.0  0.42915  0.00996  0.53642  1.0000
  H   H452      1.0  0.44520  0.04921  0.58669  1.0000
  H   H453      1.0  0.28799  0.00190  0.58465  1.0000
  C   C580      1.0  0.36451  0.23391  0.50609  1.0000
  C   C581      1.0  0.98617  0.35155  0.49717  1.0000
  C   C582      1.0  0.08432  0.15049  0.71359  1.0000
  C   C583      1.0  0.06035  0.15062  0.71171  1.0000
  C   C584      1.0  0.02951  0.19045  0.71926  1.0000
  C   C585      1.0  0.03765  0.20068  0.70438  1.0000
  C   C586      1.0  0.04793  0.22744  0.70222  1.0000
  C   C587      1.0  0.05056  0.24418  0.71488  1.0000
  H   H454      1.0  0.41111  0.46775  0.50812  1.0000
  C   C588      1.0  0.47422  0.19356  0.50799  1.0000
  C   C589      1.0  0.43715  0.42833  0.51879  1.0000
  H   H455      1.0  0.01084  0.10763  0.70637  1.0000
  C   C590      1.0  0.36577  0.39237  0.48846  1.0000
  H   H456      1.0  0.13463  0.09036  0.71798  1.0000
  C   C591      1.0  0.41728  0.98887  0.49835  1.0000
  H   H457      1.0  0.45856  0.16135  0.52357  1.0000
  C   C592      1.0  0.99282  0.43802  0.56891  1.0000
  H   H458      1.0  0.40868  0.99214  0.48778  1.0000
  S   S91       1.0  0.47489  0.08603  0.56288  1.0000
  H   H459      1.0  0.09433  0.14863  0.70338  1.0000
  H   H460      1.0  0.05237  0.14938  0.69995  1.0000
  H   H461      1.0  0.03597  0.18809  0.69440  1.0000
  C   C593      1.0  0.24866  0.10578  0.73299  1.0000
  C   C594      1.0  0.29063  0.08188  0.68500  1.0000
  C   C595      1.0  0.10155  0.26698  0.62532  1.0000
  C   C596      1.0  0.27326  0.14945  0.71006  1.0000
  H   H462      1.0  0.28430  0.19427  0.68190  1.0000
  H   H463      1.0  0.43611  0.41524  0.52803  1.0000
  H   H464      1.0  0.38633  0.13132  0.58149  1.0000
  C   C597      1.0  0.33052  0.21471  0.63319  1.0000
  C   C598      1.0  0.42752  0.24856  0.58177  1.0000
  H   H465      1.0  0.31372  0.20618  0.72963  1.0000
  S   S92       1.0  0.46741  0.40346  0.55177  1.0000
  C   C599      1.0  0.36295  0.13900  0.61651  1.0000
  H   H466      1.0  0.40486  0.25846  0.51210  1.0000
  C   C600      1.0  0.16647  0.35846  0.60172  1.0000
  H   H467      1.0  0.99874  0.48118  0.48786  1.0000
  C   C601      1.0  0.16211  0.15646  0.71635  1.0000
  C   C602      1.0  0.45055  0.01569  0.56737  1.0000
  P   P20       1.0  0.40733  0.99286  0.58616  1.0000
  H   H468      1.0  0.98491  0.08344  0.68280  1.0000
  C   C603      1.0  0.42820  0.16521  0.51080  1.0000
  C   C604      1.0  0.09577  0.15354  0.72856  1.0000
  H   H469      1.0  0.03080  0.41774  0.50097  1.0000
  H   H470      1.0  0.25938  0.09163  0.68216  1.0000
  H   H471      1.0  0.98009  0.16253  0.70195  1.0000
  H   H472      1.0  0.05979  0.24524  0.62478  1.0000
  C   C605      1.0  0.00462  0.27941  0.58346  1.0000
  C   C606      1.0  0.35668  0.15885  0.61259  1.0000
  C   C607      1.0  0.47488  0.02016  0.56203  1.0000
  C   C608      1.0  0.37128  0.15835  0.58622  1.0000
  H   H473      1.0  0.22120  0.13590  0.70073  1.0000
  H   H474      1.0  0.14009  0.26877  0.59513  1.0000
  C   C609      1.0  0.36099  0.16887  0.59741  1.0000
  P   P21       1.0  0.35340  0.19481  0.59208  1.0000
  H   H475      1.0  0.35526  0.15787  0.52125  1.0000
  H   H476      1.0  0.16052  0.06917  0.67697  1.0000
  H   H477      1.0  0.15904  0.36254  0.59093  1.0000
  H   H478      1.0  0.32251  0.07403  0.69097  1.0000
  Fe  Fe49      1.0  0.24206  0.00382  0.65116  1.0000
  C   C610      1.0  0.30211  0.19318  0.72008  1.0000
  H   H479      1.0  0.38756  0.23157  0.54447  1.0000
  H   H480      1.0  0.44462  0.24846  0.57691  1.0000
  H   H481      1.0  0.37183  0.99963  0.60755  1.0000
  C   C611      1.0  0.42664  0.27206  0.58397  1.0000
  C   C612      1.0  0.38247  0.24878  0.59270  1.0000
  H   H482      1.0  0.05697  0.22809  0.59758  1.0000
  C   C613      1.0  0.98548  0.45261  0.53871  1.0000
  C   C614      1.0  0.15664  0.13201  0.72225  1.0000
  C   C615      1.0  0.27443  0.09223  0.69012  1.0000
  H   H483      1.0  0.32933  0.09424  0.71772  1.0000
  C   C616      1.0  0.98818  0.31627  0.55518  1.0000
  H   H484      1.0  0.47462  0.03526  0.50904  1.0000
  H   H485      1.0  0.29784  0.18175  0.59322  1.0000
  H   H486      1.0  0.37885  0.11395  0.60840  1.0000
  H   H487      1.0  0.40676  0.20723  0.58238  1.0000
  C   C617      1.0  0.21286  0.11548  0.69745  1.0000
  S   S93       1.0  0.21621  0.01286  0.70908  1.0000
  C   C618      1.0  0.01389  0.45687  0.56109  1.0000
  C   C619      1.0  0.32352  0.04740  0.62033  1.0000
  S   S94       1.0  0.28350  0.02294  0.64103  1.0000
  C   C620      1.0  0.28882  0.16632  0.72229  1.0000
  C   C621      1.0  0.37805  0.13895  0.59024  1.0000
  H   H488      1.0  0.36613  0.21852  0.62367  1.0000
  H   H489      1.0  0.28413  0.47649  0.50353  1.0000
  C   C622      1.0  0.14024  0.10947  0.71341  1.0000
  H   H490      1.0  0.40317  0.29027  0.59071  1.0000
  H   H491      1.0  0.33951  0.22422  0.64431  1.0000
  P   P22       1.0  0.25579  0.11473  0.71271  1.0000
  C   C623      1.0  0.17809  0.07778  0.68430  1.0000
  C   C624      1.0  0.22524  0.10048  0.70170  1.0000
  H   H492      1.0  0.31022  0.22414  0.70396  1.0000
  C   C625      1.0  0.34550  0.21152  0.62146  1.0000
  C   C626      1.0  0.99341  0.26209  0.52494  1.0000
  H   H493      1.0  0.44327  0.33214  0.61050  1.0000
  C   C627      1.0  0.01023  0.46424  0.54607  1.0000
  H   H494      1.0  0.29224  0.20844  0.63957  1.0000
  H   H495      1.0  0.18081  0.11616  0.68464  1.0000
  C   C628      1.0  0.40422  0.27216  0.58954  1.0000
  C   C629      1.0  0.02469  0.43243  0.49843  1.0000
  H   H496      1.0  0.05363  0.23520  0.69065  1.0000
  C   C630      1.0  0.39801  0.22005  0.50453  1.0000
  C   C631      1.0  0.38878  0.04027  0.61369  1.0000
  H   H497      1.0  0.21109  0.16322  0.72064  1.0000
  H   H498      1.0  0.26182  0.14705  0.68544  1.0000
  H   H499      1.0  0.36195  0.00093  0.57784  1.0000
  C   C632      1.0  0.43943  0.46174  0.49466  1.0000
  H   H500      1.0  0.22277  0.99753  0.59720  1.0000
  H   H501      1.0  0.18282  0.21981  0.73199  1.0000
  H   H502      1.0  0.42237  0.39327  0.58076  1.0000
  C   C633      1.0  0.36646  0.35062  0.49002  1.0000
  H   H503      1.0  0.36998  0.41096  0.49388  1.0000
  C   C634      1.0  0.36738  0.13996  0.50276  1.0000
  C   C635      1.0  0.35334  0.18983  0.49751  1.0000
  P   P23       1.0  0.98119  0.46293  0.51948  1.0000
  C   C636      1.0  0.45411  0.17221  0.51485  1.0000
  H   H504      1.0  0.37764  0.11583  0.48764  1.0000
  C   C637      1.0  0.15122  0.25615  0.72936  1.0000
  C   C638      1.0  0.98146  0.14533  0.69791  1.0000
  H   H505      1.0  0.46432  0.42093  0.50549  1.0000
  H   H506      1.0  0.97896  0.24408  0.52963  1.0000
  C   C639      1.0  0.98394  0.10069  0.68707  1.0000
  H   H507      1.0  0.29080  0.15885  0.73350  1.0000
  H   H508      1.0  0.08652  0.21532  0.73240  1.0000
  H   H509      1.0  0.17831  0.98982  0.60378  1.0000
  C   C640      1.0  0.98053  0.32603  0.54219  1.0000
  C   C641      1.0  0.03237  0.20744  0.73196  1.0000
  H   H510      1.0  0.25061  0.06936  0.73029  1.0000
  H   H511      1.0  0.32573  0.20498  0.49963  1.0000
  C   C642      1.0  0.20374  0.22833  0.73334  1.0000
  H   H512      1.0  0.46794  0.40283  0.58486  1.0000
  C   C643      1.0  0.46845  0.20774  0.49689  1.0000
  C   C644      1.0  0.42330  0.45821  0.50747  1.0000
  H   H513      1.0  0.25527  0.19799  0.72611  1.0000
  C   C645      1.0  0.44257  0.20066  0.49270  1.0000
  H   H514      1.0  0.98226  0.33941  0.50723  1.0000
  S   S95       1.0  0.17592  0.98585  0.67169  1.0000
  C   C646      1.0  0.17863  0.06441  0.73571  1.0000
  H   H515      1.0  0.34692  0.07455  0.49900  1.0000
  C   C647      1.0  0.24327  0.18757  0.73575  1.0000
  H   H516      1.0  0.16781  0.27135  0.73562  1.0000
  H   H517      1.0  0.32678  0.43506  0.48764  1.0000
  C   C648      1.0  0.12693  0.24326  0.73642  1.0000
  H   H518      1.0  0.97760  0.16935  0.73259  1.0000
  Fe  Fe50      1.0  0.40193  0.34750  0.93723  1.0000
  S   S96       1.0  0.41994  0.36696  0.91466  1.0000
  S   S97       1.0  0.38588  0.37059  0.95185  1.0000
  Fe  Fe51      1.0  0.41363  0.30116  0.92991  1.0000
  S   S98       1.0  0.43293  0.31854  0.90734  1.0000
  S   S99       1.0  0.40198  0.25985  0.93896  1.0000
  Fe  Fe52      1.0  0.45247  0.35757  0.92073  1.0000
  Fe  Fe53      1.0  0.39893  0.32687  0.90299  1.0000
  S   S100      1.0  0.37733  0.31914  0.87894  1.0000
  S   S101      1.0  0.43529  0.33939  0.94383  1.0000
  S   S102      1.0  0.37911  0.30844  0.92494  1.0000
  Fe  Fe54      1.0  0.39396  0.07218  0.94621  1.0000
  S   S103      1.0  0.40026  0.04957  0.92653  1.0000
  S   S104      1.0  0.37489  0.05519  0.96964  1.0000
  Fe  Fe55      1.0  0.41897  0.12369  0.92809  1.0000
  S   S105      1.0  0.42767  0.10332  0.90786  1.0000
  S   S106      1.0  0.43092  0.16696  0.92314  1.0000
  Fe  Fe56      1.0  0.38655  0.07173  0.91033  1.0000
  S   S107      1.0  0.36291  0.06209  0.88694  1.0000
  Fe  Fe57      1.0  0.44087  0.08314  0.92568  1.0000
  S   S108      1.0  0.37774  0.09234  0.93012  1.0000
  S   S109      1.0  0.43485  0.10540  0.94593  1.0000
  Fe  Fe58      1.0  0.22036  0.02982  0.81512  1.0000
  S   S110      1.0  0.25187  0.01747  0.81378  1.0000
  S   S111      1.0  0.23796  0.07379  0.81511  1.0000
  H   H519      1.0  0.36535  0.40179  0.96664  1.0000
  Fe  Fe59      1.0  0.19103  0.23250  0.81193  1.0000
  S   S112      1.0  0.23398  0.26070  0.81194  1.0000
  S   S113      1.0  0.16194  0.24901  0.81129  1.0000
  Fe  Fe60      1.0  0.20149  0.18547  0.80817  1.0000
  S   S114      1.0  0.24479  0.20995  0.80781  1.0000
  S   S115      1.0  0.17939  0.14174  0.80387  1.0000
  Fe  Fe61      1.0  0.23993  0.23306  0.82798  1.0000
  S   S116      1.0  0.26270  0.24077  0.85173  1.0000
  Fe  Fe62      1.0  0.23552  0.23549  0.79187  1.0000
  S   S117      1.0  0.25770  0.25072  0.76941  1.0000
  S   S118      1.0  0.19652  0.20653  0.82930  1.0000
  S   S119      1.0  0.19272  0.20945  0.79095  1.0000
  C   C649      1.0  0.43268  0.02158  0.89858  1.0000
  C   C650      1.0  0.42918  0.30802  0.86561  1.0000
  C   C651      1.0  0.11012  0.20990  0.77513  1.0000
  C   C652      1.0  0.35856  0.23605  0.82598  1.0000
  Fe  Fe63      1.0  0.00979  0.20612  0.81357  1.0000
  S   S120      1.0  0.03915  0.19162  0.82035  1.0000
  S   S121      1.0  0.01464  0.24700  0.81466  1.0000
  C   C653      1.0  0.14706  0.13259  0.75525  1.0000
  H   H520      1.0  0.14410  0.29758  0.77833  1.0000
  C   C654      1.0  0.41288  0.26171  0.86982  1.0000
  C   C655      1.0  0.12777  0.23235  0.81363  1.0000
  C   C656      1.0  0.11561  0.20839  0.82094  1.0000
  C   C657      1.0  0.08853  0.19639  0.82311  1.0000
  C   C658      1.0  0.07327  0.20793  0.81774  1.0000
  C   C659      1.0  0.08539  0.23170  0.81026  1.0000
  C   C660      1.0  0.11254  0.24404  0.80845  1.0000
  H   H521      1.0  0.12710  0.19930  0.82514  1.0000
  H   H522      1.0  0.07934  0.17797  0.82891  1.0000
  H   H523      1.0  0.07376  0.24039  0.80575  1.0000
  H   H524      1.0  0.12176  0.26257  0.80281  1.0000
  H   H525      1.0  0.28749  0.19241  0.88974  1.0000
  C   C661      1.0  0.24232  0.24428  0.75047  1.0000
  C   C662      1.0  0.40702  0.03686  0.88352  1.0000
  H   H526      1.0  0.45156  0.02438  0.90278  1.0000
  H   H527      1.0  0.20317  0.22624  0.75860  1.0000
  C   C663      1.0  0.22105  0.09195  0.81168  1.0000
  C   C664      1.0  0.23512  0.11919  0.81227  1.0000
  C   C665      1.0  0.22252  0.13459  0.80994  1.0000
  C   C666      1.0  0.19574  0.12285  0.80682  1.0000
  C   C667      1.0  0.18168  0.09556  0.80593  1.0000
  C   C668      1.0  0.19428  0.08009  0.80843  1.0000
  H   H528      1.0  0.25589  0.12844  0.81460  1.0000
  H   H529      1.0  0.23355  0.15553  0.81057  1.0000
  H   H530      1.0  0.16093  0.08638  0.80352  1.0000
  H   H531      1.0  0.18331  0.05910  0.80794  1.0000
  C   C669      1.0  0.33073  0.04217  0.87927  1.0000
  C   C670      1.0  0.31108  0.02367  0.88820  1.0000
  C   C671      1.0  0.28654  0.00713  0.88120  1.0000
  C   C672      1.0  0.28098  0.00932  0.86530  1.0000
  C   C673      1.0  0.30025  0.02847  0.85652  1.0000
  C   C674      1.0  0.32500  0.04460  0.86343  1.0000
  H   H532      1.0  0.31474  0.02202  0.90046  1.0000
  H   H533      1.0  0.29631  0.03050  0.84430  1.0000
  H   H534      1.0  0.33991  0.05895  0.85641  1.0000
  H   H535      1.0  0.38948  0.27980  0.86168  1.0000
  C   C675      1.0  0.21161  0.16207  0.76070  1.0000
  H   H536      1.0  0.45401  0.44533  0.93688  1.0000
  H   H537      1.0  0.27172  0.99262  0.88818  1.0000
  H   H538      1.0  0.26878  0.13333  0.84312  1.0000
  C   C676      1.0  0.34555  0.21590  0.91679  1.0000
  S   S122      1.0  0.19354  0.99948  0.79754  1.0000
  H   H539      1.0  0.02120  0.37089  0.97273  1.0000
  C   C677      1.0  0.34553  0.29656  0.87162  1.0000
  C   C678      1.0  0.32718  0.27730  0.88087  1.0000
  C   C679      1.0  0.30218  0.26028  0.87451  1.0000
  C   C680      1.0  0.29500  0.26228  0.85887  1.0000
  C   C681      1.0  0.31347  0.28125  0.84958  1.0000
  C   C682      1.0  0.33849  0.29818  0.85592  1.0000
  H   H540      1.0  0.33219  0.27559  0.89292  1.0000
  H   H541      1.0  0.28819  0.24567  0.88184  1.0000
  H   H542      1.0  0.30844  0.28307  0.83754  1.0000
  H   H543      1.0  0.35246  0.31287  0.84860  1.0000
  C   C683      1.0  0.40957  0.23395  0.93372  1.0000
  C   C684      1.0  0.39561  0.20945  0.94053  1.0000
  C   C685      1.0  0.40145  0.18864  0.93728  1.0000
  C   C686      1.0  0.42170  0.19208  0.92731  1.0000
  C   C687      1.0  0.43549  0.21652  0.92041  1.0000
  C   C688      1.0  0.42935  0.23717  0.92344  1.0000
  H   H544      1.0  0.38034  0.20662  0.94854  1.0000
  H   H545      1.0  0.39066  0.17014  0.94277  1.0000
  H   H546      1.0  0.45126  0.21959  0.91274  1.0000
  H   H547      1.0  0.44037  0.25579  0.91811  1.0000
  C   C689      1.0  0.37095  0.36800  0.97035  1.0000
  H   H548      1.0  0.25388  0.16694  0.84342  1.0000
  H   H549      1.0  0.06969  0.31453  0.74934  1.0000
  H   H550      1.0  0.26284  0.19627  0.86674  1.0000
  C   C690      1.0  0.38430  0.01522  0.88784  1.0000
  H   H551      1.0  0.01950  0.20001  0.85110  1.0000
  H   H552      1.0  0.20955  0.26540  0.77325  1.0000
  C   C691      1.0  0.46711  0.98932  0.94695  1.0000
  Fe  Fe64      1.0  0.99339  0.23606  0.79089  1.0000
  H   H553      1.0  0.11980  0.09155  0.75363  1.0000
  C   C692      1.0  0.01492  0.23209  0.86098  1.0000
  H   H554      1.0  0.02636  0.20016  0.74357  1.0000
  C   C693      1.0  0.25629  0.32754  0.97163  1.0000
  C   C694      1.0  0.02743  0.25840  0.86554  1.0000
  C   C695      1.0  0.43119  0.04016  0.88900  1.0000
  H   H555      1.0  0.20693  0.02286  0.74040  1.0000
  C   C696      1.0  0.23714  0.18125  0.76365  1.0000
  C   C697      1.0  0.45839  0.29201  0.87535  1.0000
  C   C698      1.0  0.24746  0.32566  0.95606  1.0000
  C   C699      1.0  0.45022  0.45294  0.94771  1.0000
  H   H556      1.0  0.23671  0.08795  0.77705  1.0000
  H   H557      1.0  0.42373  0.01301  0.94164  1.0000
  C   C700      1.0  0.42487  0.44295  0.95303  1.0000
  C   C701      1.0  0.39751  0.20502  0.86673  1.0000
  H   H558      1.0  0.27239  0.20961  0.75359  1.0000
  H   H559      1.0  0.30296  0.21919  0.84576  1.0000
  H   H560      1.0  0.11993  0.99625  0.79263  1.0000
  H   H561      1.0  0.24451  0.18669  0.77563  1.0000
  C   C702      1.0  0.25295  0.19402  0.75120  1.0000
  H   H562      1.0  0.15446  0.00408  0.77359  1.0000
  H   H563      1.0  0.32055  0.23147  0.81933  1.0000
  C   C703      1.0  0.15276  0.26876  0.76699  1.0000
  C   C704      1.0  0.45346  0.00081  0.93951  1.0000
  C   C705      1.0  0.43796  0.26664  0.87495  1.0000
  C   C706      1.0  0.10038  0.22370  0.76610  1.0000
  C   C707      1.0  0.10734  0.27406  0.75431  1.0000
  C   C708      1.0  0.09302  0.27677  0.76673  1.0000
  C   C709      1.0  0.07941  0.29121  0.76485  1.0000
  H   H564      1.0  0.21407  0.00777  0.76621  1.0000
  C   C710      1.0  0.37442  0.23507  0.83823  1.0000
  H   H565      1.0  0.02050  0.28328  0.73848  1.0000
  C   C711      1.0  0.17141  0.25969  0.76581  1.0000
  C   C712      1.0  0.33274  0.23007  0.82869  1.0000
  C   C713      1.0  0.18187  0.30291  0.78530  1.0000
  C   C714      1.0  0.32275  0.22297  0.84362  1.0000
  C   C715      1.0  0.33847  0.22175  0.85588  1.0000
  H   H566      1.0  0.09245  0.15984  0.75320  1.0000
  H   H567      1.0  0.30216  0.15888  0.88985  1.0000
  H   H568      1.0  0.10098  0.17881  0.79120  1.0000
  C   C716      1.0  0.17138  0.10041  0.74504  1.0000
  H   H569      1.0  0.09166  0.26701  0.77768  1.0000
  H   H570      1.0  0.06723  0.29215  0.77411  1.0000
  C   C717      1.0  0.45791  0.40684  0.96912  1.0000
  P   P24       1.0  0.12214  0.25264  0.75600  1.0000
  H   H571      1.0  0.05366  0.16478  0.79031  1.0000
  H   H572      1.0  0.17269  0.06327  0.77538  1.0000
  C   C718      1.0  0.31946  0.99480  0.94401  1.0000
  H   H573      1.0  0.21855  0.30328  0.79061  1.0000
  C   C719      1.0  0.35965  0.19928  0.89473  1.0000
  H   H574      1.0  0.99628  0.44282  0.91648  1.0000
  C   C720      1.0  0.40869  0.28272  0.86524  1.0000
  H   H575      1.0  0.13077  0.21629  0.77633  1.0000
  C   C721      1.0  0.25819  0.27764  0.88893  1.0000
  C   C722      1.0  0.23488  0.25661  0.89299  1.0000
  C   C723      1.0  0.22963  0.25081  0.90879  1.0000
  C   C724      1.0  0.24789  0.26584  0.92051  1.0000
  C   C725      1.0  0.27165  0.28678  0.91651  1.0000
  C   C726      1.0  0.27653  0.29269  0.90059  1.0000
  P   P25       1.0  0.29569  0.30463  0.93190  1.0000
  C   C727      1.0  0.31048  0.28523  0.93919  1.0000
  C   C728      1.0  0.32124  0.33460  0.92481  1.0000
  C   C729      1.0  0.32516  0.35891  0.93093  1.0000
  C   C730      1.0  0.34486  0.38190  0.92521  1.0000
  C   C731      1.0  0.36066  0.38085  0.91331  1.0000
  C   C732      1.0  0.35691  0.35681  0.90722  1.0000
  C   C733      1.0  0.33768  0.33378  0.91316  1.0000
  C   C734      1.0  0.33274  0.29682  0.94907  1.0000
  C   C735      1.0  0.34401  0.28197  0.95516  1.0000
  C   C736      1.0  0.33351  0.25553  0.95114  1.0000
  C   C737      1.0  0.31143  0.24382  0.94124  1.0000
  C   C738      1.0  0.30001  0.25858  0.93522  1.0000
  C   C739      1.0  0.27974  0.31260  0.94762  1.0000
  C   C740      1.0  0.28858  0.31475  0.96331  1.0000
  C   C741      1.0  0.27690  0.32216  0.97522  1.0000
  H   H576      1.0  0.10048  0.13699  0.78605  1.0000
  C   C742      1.0  0.17050  0.09191  0.76048  1.0000
  C   C743      1.0  0.25921  0.31835  0.94408  1.0000
  H   H577      1.0  0.26234  0.28196  0.87664  1.0000
  H   H578      1.0  0.22106  0.24473  0.88383  1.0000
  H   H579      1.0  0.21154  0.23445  0.91193  1.0000
  H   H580      1.0  0.24373  0.26087  0.93269  1.0000
  H   H581      1.0  0.29437  0.30865  0.89692  1.0000
  H   H582      1.0  0.31351  0.36035  0.94029  1.0000
  H   H583      1.0  0.34822  0.40052  0.93023  1.0000
  H   H584      1.0  0.37610  0.39861  0.90898  1.0000
  H   H585      1.0  0.36919  0.35599  0.89801  1.0000
  H   H586      1.0  0.33551  0.31535  0.90849  1.0000
  H   H587      1.0  0.34173  0.31750  0.95184  1.0000
  H   H588      1.0  0.98237  0.10860  0.77123  1.0000
  H   H589      1.0  0.34290  0.24435  0.95547  1.0000
  H   H590      1.0  0.30330  0.22333  0.93811  1.0000
  H   H591      1.0  0.28324  0.24908  0.92739  1.0000
  H   H592      1.0  0.30474  0.31123  0.96652  1.0000
  H   H593      1.0  0.05037  0.16027  0.74999  1.0000
  H   H594      1.0  0.46945  0.40122  0.94601  1.0000
  C   C744      1.0  0.36455  0.02437  0.97854  1.0000
  H   H595      1.0  0.25254  0.31759  0.93204  1.0000
  H   H596      1.0  0.42554  0.32413  0.86244  1.0000
  C   C745      1.0  0.39254  0.19012  0.85272  1.0000
  C   C746      1.0  0.15817  0.29043  0.77689  1.0000
  C   C747      1.0  0.05665  0.19404  0.77410  1.0000
  H   H597      1.0  0.24406  0.05887  0.75831  1.0000
  C   C748      1.0  0.19518  0.27240  0.77413  1.0000
  C   C749      1.0  0.99630  0.24769  0.75008  1.0000
  H   H598      1.0  0.34721  0.15778  0.82009  1.0000
  S   S123      1.0  0.99069  0.19626  0.78953  1.0000
  H   H599      1.0  0.09035  0.09456  0.77322  1.0000
  C   C750      1.0  0.97901  0.15630  0.74105  1.0000
  C   C751      1.0  0.35367  0.23960  0.90939  1.0000
  C   C752      1.0  0.33146  0.01159  0.93181  1.0000
  C   C753      1.0  0.10889  0.28713  0.74032  1.0000
  H   H600      1.0  0.31238  0.00145  0.95393  1.0000
  C   C754      1.0  0.17703  0.05571  0.75104  1.0000
  H   H601      1.0  0.97740  0.34781  0.95980  1.0000
  H   H602      1.0  0.41314  0.99777  0.96872  1.0000
  H   H603      1.0  0.35108  0.01696  0.91009  1.0000
  C   C755      1.0  0.25768  0.25150  0.73706  1.0000
  C   C756      1.0  0.24794  0.08262  0.73833  1.0000
  C   C757      1.0  0.23982  0.09280  0.76475  1.0000
  C   C758      1.0  0.42804  0.99501  0.96270  1.0000
  H   H604      1.0  0.00955  0.11916  0.74777  1.0000
  C   C759      1.0  0.20167  0.15558  0.74520  1.0000
  S   S124      1.0  0.20139  0.00528  0.83578  1.0000
  C   C760      1.0  0.11304  0.13591  0.77712  1.0000
  H   H605      1.0  0.42208  0.15300  0.86230  1.0000
  H   H606      1.0  0.30356  0.07436  0.81754  1.0000
  C   C761      1.0  0.42017  0.18213  0.87748  1.0000
  C   C762      1.0  0.41532  0.16755  0.86347  1.0000
  C   C763      1.0  0.41114  0.20059  0.87914  1.0000
  H   H607      1.0  0.33351  0.11581  0.80546  1.0000
  H   H608      1.0  0.28748  0.07442  0.84399  1.0000
  H   H609      1.0  0.43053  0.17882  0.88723  1.0000
  H   H610      1.0  0.19965  0.15245  0.77054  1.0000
  H   H611      1.0  0.41451  0.21123  0.89023  1.0000
  H   H612      1.0  0.36644  0.24211  0.81447  1.0000
  H   H613      1.0  0.33103  0.15831  0.84668  1.0000
  H   H614      1.0  0.36149  0.18325  0.88925  1.0000
  H   H615      1.0  0.34256  0.17758  0.91533  1.0000
  C   C764      1.0  0.36446  0.22773  0.85327  1.0000
  H   H616      1.0  0.37266  0.26244  0.88966  1.0000
  C   C765      1.0  0.40138  0.17143  0.85113  1.0000
  C   C766      1.0  0.05618  0.23465  0.85370  1.0000
  C   C767      1.0  0.06904  0.26096  0.85856  1.0000
  C   C768      1.0  0.05441  0.27285  0.86434  1.0000
  P   P26       1.0  0.10352  0.27972  0.85555  1.0000
  C   C769      1.0  0.11892  0.25912  0.85893  1.0000
  C   C770      1.0  0.10858  0.29249  0.83599  1.0000
  C   C771      1.0  0.13344  0.31093  0.83161  1.0000
  C   C772      1.0  0.13725  0.32145  0.81665  1.0000
  C   C773      1.0  0.11617  0.31408  0.80608  1.0000
  C   C774      1.0  0.09129  0.29618  0.81049  1.0000
  C   C775      1.0  0.08751  0.28540  0.82535  1.0000
  C   C776      1.0  0.13954  0.26088  0.84977  1.0000
  C   C777      1.0  0.15134  0.24501  0.85271  1.0000
  C   C778      1.0  0.14246  0.22700  0.86464  1.0000
  C   C779      1.0  0.12192  0.22503  0.87381  1.0000
  C   C780      1.0  0.11027  0.24108  0.87102  1.0000
  C   C781      1.0  0.11708  0.30713  0.86932  1.0000
  C   C782      1.0  0.12907  0.30592  0.88353  1.0000
  C   C783      1.0  0.13937  0.32729  0.89409  1.0000
  C   C784      1.0  0.13773  0.34997  0.89056  1.0000
  C   C785      1.0  0.12581  0.35133  0.87646  1.0000
  C   C786      1.0  0.11553  0.33003  0.86587  1.0000
  C   C787      1.0  0.13508  0.15836  0.77293  1.0000
  P   P27       1.0  0.38598  0.22908  0.86929  1.0000
  C   C788      1.0  0.41999  0.45255  0.96708  1.0000
  H   H617      1.0  0.06682  0.22528  0.84859  1.0000
  H   H618      1.0  0.06358  0.29327  0.86771  1.0000
  H   H619      1.0  0.14989  0.31713  0.83976  1.0000
  H   H620      1.0  0.15655  0.33537  0.81328  1.0000
  H   H621      1.0  0.11907  0.32228  0.79451  1.0000
  H   H622      1.0  0.07481  0.29043  0.80240  1.0000
  H   H623      1.0  0.06811  0.27136  0.82839  1.0000
  H   H624      1.0  0.14637  0.27395  0.84011  1.0000
  H   H625      1.0  0.16701  0.24625  0.84542  1.0000
  H   H626      1.0  0.15135  0.21439  0.86662  1.0000
  H   H627      1.0  0.11488  0.21091  0.88298  1.0000
  H   H628      1.0  0.09438  0.23930  0.87826  1.0000
  H   H629      1.0  0.13057  0.28861  0.88655  1.0000
  H   H630      1.0  0.14860  0.32625  0.90503  1.0000
  H   H631      1.0  0.14566  0.36649  0.89876  1.0000
  H   H632      1.0  0.12444  0.36888  0.87374  1.0000
  H   H633      1.0  0.10619  0.33137  0.85504  1.0000
  C   C789      1.0  0.22190  0.05617  0.86429  1.0000
  C   C790      1.0  0.22465  0.03706  0.87270  1.0000
  C   C791      1.0  0.24878  0.04233  0.87938  1.0000
  C   C792      1.0  0.27025  0.06665  0.87761  1.0000
  C   C793      1.0  0.26752  0.08624  0.86952  1.0000
  C   C794      1.0  0.24323  0.08059  0.86262  1.0000
  P   P28       1.0  0.29560  0.11716  0.86646  1.0000
  C   C795      1.0  0.28595  0.14284  0.86666  1.0000
  C   C796      1.0  0.31980  0.12258  0.88174  1.0000
  C   C797      1.0  0.31308  0.12108  0.89760  1.0000
  C   C798      1.0  0.33164  0.12532  0.90952  1.0000
  C   C799      1.0  0.35686  0.13056  0.90568  1.0000
  C   C800      1.0  0.36330  0.13068  0.88998  1.0000
  C   C801      1.0  0.34498  0.12693  0.87801  1.0000
  C   C802      1.0  0.29143  0.15999  0.87969  1.0000
  C   C803      1.0  0.28310  0.17915  0.87971  1.0000
  C   C804      1.0  0.26933  0.18144  0.86673  1.0000
  C   C805      1.0  0.26433  0.16493  0.85357  1.0000
  C   C806      1.0  0.27278  0.14588  0.85347  1.0000
  C   C807      1.0  0.30820  0.11644  0.84735  1.0000
  C   C808      1.0  0.32520  0.13988  0.84048  1.0000
  C   C809      1.0  0.33443  0.13965  0.82544  1.0000
  C   C810      1.0  0.32673  0.11604  0.81720  1.0000
  C   C811      1.0  0.30994  0.09265  0.82402  1.0000
  C   C812      1.0  0.30074  0.09279  0.83906  1.0000
  H   H634      1.0  0.20341  0.05186  0.85864  1.0000
  H   H635      1.0  0.20830  0.01789  0.87363  1.0000
  H   H636      1.0  0.25102  0.02725  0.88550  1.0000
  H   H637      1.0  0.28901  0.06979  0.88228  1.0000
  H   H638      1.0  0.24067  0.09460  0.85558  1.0000
  H   H639      1.0  0.29348  0.11665  0.90074  1.0000
  H   H640      1.0  0.32653  0.12445  0.92174  1.0000
  H   H641      1.0  0.37142  0.13417  0.91486  1.0000
  H   H642      1.0  0.38247  0.13327  0.88717  1.0000
  H   H643      1.0  0.35050  0.12700  0.86595  1.0000
  H   H644      1.0  0.18576  0.31925  0.79316  1.0000
  H   H645      1.0  0.35167  0.25526  0.91524  1.0000
  H   H646      1.0  0.39466  0.24063  0.83611  1.0000
  H   H647      1.0  0.03604  0.18843  0.77415  1.0000
  H   H648      1.0  0.40901  0.42752  0.94632  1.0000
  P   P29       1.0  0.16907  0.12999  0.74150  1.0000
  C   C813      1.0  0.17312  0.06954  0.76343  1.0000
  C   C814      1.0  0.02928  0.22024  0.85505  1.0000
  C   C815      1.0  0.21525  0.23221  0.74848  1.0000
  C   C816      1.0  0.34175  0.00356  0.91937  1.0000
  C   C817      1.0  0.23932  0.11523  0.75939  1.0000
  H   H649      1.0  0.33339  0.03114  0.93219  1.0000
  H   H650      1.0  0.33793  0.21352  0.92848  1.0000
  C   C818      1.0  0.07343  0.21526  0.76547  1.0000
  H   H651      1.0  0.38169  0.19262  0.84305  1.0000
  H   H652      1.0  0.40580  0.05139  0.87618  1.0000
  C   C819      1.0  0.24355  0.12160  0.74357  1.0000
  C   C820      1.0  0.34835  0.19570  0.90941  1.0000
  H   H653      1.0  0.16820  0.10274  0.77033  1.0000
  H   H654      1.0  0.16764  0.24279  0.75849  1.0000
  H   H655      1.0  0.13952  0.17689  0.77856  1.0000
  H   H656      1.0  0.44879  0.05729  0.88601  1.0000
  H   H657      1.0  0.17947  0.03862  0.75335  1.0000
  C   C821      1.0  0.12425  0.11031  0.75895  1.0000
  C   C822      1.0  0.15192  0.15681  0.76189  1.0000
  S   S125      1.0  0.00838  0.26101  0.76926  1.0000
  H   H658      1.0  0.39738  0.15986  0.84035  1.0000
  C   C823      1.0  0.06653  0.18053  0.78308  1.0000
  C   C824      1.0  0.10742  0.11195  0.76996  1.0000
  C   C825      1.0  0.36288  0.38668  0.97470  1.0000
  C   C826      1.0  0.36572  0.24359  0.89492  1.0000
  H   H659      1.0  0.37370  0.00579  0.95931  1.0000
  C   C827      1.0  0.36920  0.22356  0.88759  1.0000
  H   H660      1.0  0.33047  0.21697  0.86743  1.0000
  H   H661      1.0  0.44198  0.25122  0.87883  1.0000
  H   H662      1.0  0.24306  0.13896  0.73962  1.0000
  C   C828      1.0  0.36598  0.00344  0.97097  1.0000
  S   S126      1.0  0.25003  0.98714  0.85693  1.0000
  H   H663      1.0  0.24735  0.33344  0.98088  1.0000
  H   H664      1.0  0.40020  0.44480  0.97097  1.0000
  Fe  Fe65      1.0  0.23187  0.99170  0.83375  1.0000
  H   H665      1.0  0.98671  0.41748  0.98125  1.0000
  H   H666      1.0  0.01600  0.26762  0.86972  1.0000
  H   H667      1.0  0.46550  0.05365  0.95855  1.0000
  C   C829      1.0  0.20038  0.29394  0.78389  1.0000
  C   C830      1.0  0.09321  0.18839  0.78353  1.0000
  C   C831      1.0  0.08065  0.30373  0.75081  1.0000
  C   C832      1.0  0.00261  0.46061  0.93967  1.0000
  H   H668      1.0  0.23562  0.12762  0.76757  1.0000
  C   C833      1.0  0.45403  0.31269  0.87065  1.0000
  C   C834      1.0  0.21782  0.99987  0.75556  1.0000
  H   H669      1.0  0.43792  0.39201  0.96728  1.0000
  H   H670      1.0  0.16904  0.17439  0.75890  1.0000
  H   H671      1.0  0.46670  0.09296  0.97098  1.0000
  C   C835      1.0  0.24395  0.07642  0.75419  1.0000
  C   C836      1.0  0.08330  0.15685  0.74164  1.0000
  H   H672      1.0  0.06539  0.22562  0.75878  1.0000
  H   H673      1.0  0.36577  0.01323  0.88351  1.0000
  H   H674      1.0  0.00336  0.47416  0.96340  1.0000
  H   H675      1.0  0.23172  0.33018  0.95326  1.0000
  C   C837      1.0  0.99189  0.45992  0.95435  1.0000
  H   H676      1.0  0.02222  0.47521  0.93745  1.0000
  C   C838      1.0  0.99713  0.12825  0.74957  1.0000
  C   C839      1.0  0.05930  0.15688  0.73980  1.0000
  C   C840      1.0  0.09564  0.30197  0.73862  1.0000
  H   H677      1.0  0.27863  0.26082  0.73847  1.0000
  C   C841      1.0  0.40999  0.00002  0.90307  1.0000
  H   H678      1.0  0.45848  0.00819  0.92780  1.0000
  C   C842      1.0  0.43381  0.00347  0.94732  1.0000
  C   C843      1.0  0.44053  0.47172  0.97618  1.0000
  H   H679      1.0  0.36153  0.29119  0.96251  1.0000
  C   C844      1.0  0.21389  0.00850  0.74091  1.0000
  H   H680      1.0  0.99400  0.22099  0.86174  1.0000
  C   C845      1.0  0.47071  0.47252  0.95646  1.0000
  C   C846      1.0  0.38549  0.99681  0.89790  1.0000
  C   C847      1.0  0.47564  0.41200  0.95714  1.0000
  C   C848      1.0  0.36700  0.34819  0.98076  1.0000
  C   C849      1.0  0.00410  0.36486  0.97973  1.0000
  C   C850      1.0  0.99681  0.14641  0.73898  1.0000
  H   H681      1.0  0.04484  0.24715  0.73959  1.0000
  C   C851      1.0  0.46594  0.48185  0.97067  1.0000
  H   H682      1.0  0.41190  0.98622  0.91061  1.0000
  Fe  Fe66      1.0  0.22367  0.98548  0.79751  1.0000
  S   S127      1.0  0.47227  0.06868  0.92591  1.0000
  H   H683      1.0  0.37319  0.33375  0.97769  1.0000
  C   C852      1.0  0.98155  0.12199  0.76279  1.0000
  C   C853      1.0  0.97923  0.35183  0.97234  1.0000
  H   H684      1.0  0.46971  0.33242  0.87134  1.0000
  C   C854      1.0  0.98802  0.44238  0.92785  1.0000
  C   C855      1.0  0.46589  0.42104  0.98334  1.0000
  C   C856      1.0  0.00590  0.26324  0.73685  1.0000
  H   H685      1.0  0.04191  0.78451  0.19743  1.0000
  C   C857      1.0  0.11300  0.89804  0.11720  1.0000
  H   H686      1.0  0.08667  0.77988  0.10281  1.0000
  H   H687      1.0  0.19399  0.86116  0.14848  1.0000
  Fe  Fe67      1.0  0.00639  0.79601  0.16311  1.0000
  S   S128      1.0  0.04929  0.82198  0.16855  1.0000
  S   S129      1.0  0.99649  0.75364  0.16367  1.0000
  C   C858      1.0  0.13677  0.80067  0.21734  1.0000
  C   C859      1.0  0.44800  0.93105  0.09375  1.0000
  Fe  Fe68      1.0  0.15458  0.96425  0.15573  1.0000
  S   S130      1.0  0.11058  0.94193  0.15283  1.0000
  S   S131      1.0  0.17890  0.94425  0.16016  1.0000
  H   H688      1.0  0.02613  0.81395  0.21297  1.0000
  H   H689      1.0  0.17593  0.92507  0.09346  1.0000
  H   H690      1.0  0.12826  0.81793  0.14766  1.0000
  Fe  Fe69      1.0  0.06420  0.68080  0.06421  1.0000
  S   S132      1.0  0.08366  0.70540  0.04355  1.0000
  S   S133      1.0  0.05498  0.69729  0.08673  1.0000
  Fe  Fe70      1.0  0.07632  0.63570  0.05273  1.0000
  S   S134      1.0  0.09733  0.65828  0.03169  1.0000
  S   S135      1.0  0.06730  0.59438  0.06085  1.0000
  Fe  Fe71      1.0  0.11571  0.69450  0.04766  1.0000
  S   S136      1.0  0.15945  0.72349  0.05071  1.0000
  Fe  Fe72      1.0  0.06361  0.66763  0.02911  1.0000
  S   S137      1.0  0.04654  0.66682  0.00451  1.0000
  S   S138      1.0  0.09703  0.67104  0.06888  1.0000
  S   S139      1.0  0.04197  0.64377  0.04945  1.0000
  C   C860      1.0  0.99972  0.63518  0.08155  1.0000
  Fe  Fe73      1.0  0.34007  0.89510  0.04854  1.0000
  S   S140      1.0  0.31515  0.88373  0.02628  1.0000
  S   S141      1.0  0.37089  0.88063  0.05318  1.0000
  Fe  Fe74      1.0  0.31087  0.92438  0.06171  1.0000
  S   S142      1.0  0.28590  0.91617  0.03972  1.0000
  S   S143      1.0  0.30969  0.94866  0.08319  1.0000
  Fe  Fe75      1.0  0.28046  0.87492  0.04136  1.0000
  S   S144      1.0  0.23759  0.84349  0.03715  1.0000
  Fe  Fe76      1.0  0.32237  0.92563  0.02628  1.0000
  S   S145      1.0  0.33569  0.94459  0.00223  1.0000
  S   S146      1.0  0.30462  0.88318  0.06375  1.0000
  S   S147      1.0  0.34811  0.93701  0.04819  1.0000
  C   C861      1.0  0.45939  0.90714  0.04653  1.0000
  C   C862      1.0  0.44306  0.88296  0.05281  1.0000
  C   C863      1.0  0.41626  0.87528  0.05481  1.0000
  C   C864      1.0  0.40511  0.89145  0.05050  1.0000
  C   C865      1.0  0.42143  0.91560  0.04428  1.0000
  C   C866      1.0  0.44823  0.92339  0.04235  1.0000
  H   H691      1.0  0.45107  0.87015  0.05620  1.0000
  H   H692      1.0  0.40405  0.85655  0.05969  1.0000
  H   H693      1.0  0.41326  0.92821  0.04096  1.0000
  H   H694      1.0  0.35356  0.95304  0.10871  1.0000
  C   C867      1.0  0.06324  0.78922  0.06161  1.0000
  H   H695      1.0  0.09287  0.78278  0.16207  1.0000
  C   C868      1.0  0.99869  0.66728  0.04662  1.0000
  H   H696      1.0  0.04750  0.76410  0.15191  1.0000
  C   C869      1.0  0.12370  0.90881  0.10294  1.0000
  H   H697      1.0  0.26535  0.67875  0.00746  1.0000
  C   C870      1.0  0.40706  0.94298  0.99166  1.0000
  C   C871      1.0  0.21614  0.81025  0.04154  1.0000
  C   C872      1.0  0.18968  0.79947  0.03680  1.0000
  C   C873      1.0  0.17201  0.77323  0.03965  1.0000
  C   C874      1.0  0.18050  0.75718  0.04729  1.0000
  C   C875      1.0  0.20689  0.76801  0.05215  1.0000
  C   C876      1.0  0.22455  0.79426  0.04931  1.0000
  H   H698      1.0  0.18282  0.81149  0.03075  1.0000
  H   H699      1.0  0.15188  0.76536  0.03580  1.0000
  H   H700      1.0  0.21381  0.75590  0.05805  1.0000
  H   H701      1.0  0.24475  0.80206  0.05300  1.0000
  C   C877      1.0  0.07156  0.56678  0.05464  1.0000
  C   C878      1.0  0.08321  0.56602  0.04054  1.0000
  C   C879      1.0  0.08703  0.54425  0.03638  1.0000
  C   C880      1.0  0.07892  0.52256  0.04612  1.0000
  C   C881      1.0  0.06691  0.52317  0.06015  1.0000
  C   C882      1.0  0.06333  0.54509  0.06436  1.0000
  H   H702      1.0  0.08957  0.58242  0.03301  1.0000
  H   H703      1.0  0.09659  0.54432  0.02558  1.0000
  H   H704      1.0  0.06057  0.50684  0.06784  1.0000
  H   H705      1.0  0.05432  0.54530  0.07533  1.0000
  C   C883      1.0  0.41166  0.51609  0.04611  1.0000
  C   C884      1.0  0.42724  0.51649  0.05898  1.0000
  C   C885      1.0  0.45174  0.53832  0.06216  1.0000
  C   C886      1.0  0.46158  0.56004  0.05240  1.0000
  C   C887      1.0  0.44644  0.55923  0.03917  1.0000
  C   C888      1.0  0.42170  0.53755  0.03613  1.0000
  C   C889      1.0  0.04916  0.53033  0.99720  1.0000
  H   H706      1.0  0.34395  0.87790  0.99609  1.0000
  H   H707      1.0  0.00565  0.69322  0.01042  1.0000
  H   H708      1.0  0.41012  0.53757  0.02605  1.0000
  C   C890      1.0  0.24249  0.94850  0.11230  1.0000
  C   C891      1.0  0.26831  0.96720  0.11519  1.0000
  C   C892      1.0  0.28853  0.96680  0.10627  1.0000
  C   C893      1.0  0.28333  0.94779  0.09429  1.0000
  C   C894      1.0  0.25755  0.92898  0.09146  1.0000
  C   C895      1.0  0.23743  0.92916  0.10055  1.0000
  H   H709      1.0  0.03507  0.60294  0.08890  1.0000
  C   C896      1.0  0.14272  0.80802  0.20179  1.0000
  H   H710      1.0  0.25311  0.91423  0.08232  1.0000
  C   C897      1.0  0.98961  0.55264  0.99705  1.0000
  C   C898      1.0  0.03594  0.77184  0.20739  1.0000
  C   C899      1.0  0.06597  0.85481  0.16318  1.0000
  C   C900      1.0  0.09288  0.86856  0.16624  1.0000
  C   C901      1.0  0.10671  0.89519  0.16312  1.0000
  C   C902      1.0  0.09379  0.90833  0.15679  1.0000
  C   C903      1.0  0.06693  0.89445  0.15346  1.0000
  C   C904      1.0  0.05304  0.86776  0.15661  1.0000
  H   H711      1.0  0.10299  0.85868  0.17134  1.0000
  H   H712      1.0  0.12727  0.90557  0.16584  1.0000
  H   H713      1.0  0.05680  0.90442  0.14848  1.0000
  H   H714      1.0  0.03230  0.85731  0.15420  1.0000
  C   C905      1.0  0.99743  0.72211  0.10949  1.0000
  C   C906      1.0  0.01804  0.72202  0.11824  1.0000
  C   C907      1.0  0.03568  0.71490  0.11098  1.0000
  C   C908      1.0  0.03302  0.70775  0.09490  1.0000
  C   C909      1.0  0.01295  0.70873  0.08604  1.0000
  C   C910      1.0  0.99533  0.71583  0.09331  1.0000
  C   C911      1.0  0.32026  0.55877  0.12190  1.0000
  H   H715      1.0  0.05118  0.71440  0.11797  1.0000
  H   H716      1.0  0.01084  0.70391  0.07363  1.0000
  C   C912      1.0  0.08853  0.78984  0.15130  1.0000
  C   C913      1.0  0.15651  0.70323  0.00542  1.0000
  C   C914      1.0  0.06287  0.77930  0.14558  1.0000
  C   C915      1.0  0.10837  0.80963  0.14322  1.0000
  H   H717      1.0  0.05513  0.81822  0.07266  1.0000
  H   H718      1.0  0.19358  0.83245  0.12653  1.0000
  H   H719      1.0  0.44690  0.53967  0.99562  1.0000
  C   C916      1.0  0.43779  0.91144  0.10488  1.0000
  H   H720      1.0  0.10073  0.89807  0.20029  1.0000
  H   H721      1.0  0.07192  0.75838  0.05398  1.0000
  C   C917      1.0  0.04771  0.78085  0.22231  1.0000
  H   H722      1.0  0.34340  0.50770  0.04857  1.0000
  C   C918      1.0  0.08869  0.86173  0.21185  1.0000
  C   C919      1.0  0.98382  0.78150  0.23379  1.0000
  H   H723      1.0  0.34020  0.54456  0.13750  1.0000
  H   H724      1.0  0.46312  0.53848  0.07240  1.0000
  C   C920      1.0  0.11592  0.80231  0.22437  1.0000
  H   H725      1.0  0.11813  0.83413  0.12332  1.0000
  C   C921      1.0  0.01689  0.56397  0.99805  1.0000
  C   C922      1.0  0.11250  0.95207  0.20164  1.0000
  C   C923      1.0  0.08879  0.94221  0.20924  1.0000
  H   H726      1.0  0.28566  0.49551  0.08310  1.0000
  C   C924      1.0  0.00545  0.83322  0.10857  1.0000
  H   H727      1.0  0.45344  0.57563  0.03152  1.0000
  H   H728      1.0  0.31443  0.54922  0.08224  1.0000
  H   H729      1.0  0.27271  0.98195  0.12431  1.0000
  H   H730      1.0  0.46359  0.95688  0.12249  1.0000
  H   H731      1.0  0.11368  0.95779  0.18949  1.0000
  C   C925      1.0  0.34659  0.97566  0.99352  1.0000
  H   H732      1.0  0.08863  0.86336  0.12925  1.0000
  H   H733      1.0  0.14824  0.79356  0.22393  1.0000
  C   C926      1.0  0.15149  0.65818  0.06867  1.0000
  C   C927      1.0  0.13750  0.63250  0.07338  1.0000
  C   C928      1.0  0.13583  0.61208  0.06365  1.0000
  C   C929      1.0  0.14748  0.61724  0.04903  1.0000
  C   C930      1.0  0.16080  0.64297  0.04398  1.0000
  C   C931      1.0  0.16330  0.66341  0.05410  1.0000
  P   P30       1.0  0.17559  0.64975  0.02500  1.0000
  C   C932      1.0  0.20806  0.65301  0.02668  1.0000
  C   C933      1.0  0.15577  0.62299  0.01164  1.0000
  C   C934      1.0  0.16706  0.61158  0.00173  1.0000
  Fe  Fe77      1.0  0.19976  0.97607  0.17842  1.0000
  C   C935      1.0  0.46560  0.94985  0.99838  1.0000
  C   C936      1.0  0.11297  0.59007  0.00264  1.0000
  C   C937      1.0  0.12859  0.61219  0.01188  1.0000
  C   C938      1.0  0.22620  0.66599  0.01513  1.0000
  C   C939      1.0  0.25137  0.66856  0.01634  1.0000
  C   C940      1.0  0.25855  0.65805  0.02903  1.0000
  C   C941      1.0  0.24055  0.64492  0.04050  1.0000
  C   C942      1.0  0.21537  0.64236  0.03934  1.0000
  C   C943      1.0  0.17691  0.67981  0.01827  1.0000
  C   C944      1.0  0.15598  0.67978  0.00968  1.0000
  H   H734      1.0  0.20981  0.94259  0.23232  1.0000
  C   C945      1.0  0.17800  0.72690  0.00958  1.0000
  C   C946      1.0  0.19897  0.72714  0.01802  1.0000
  C   C947      1.0  0.19837  0.70375  0.02248  1.0000
  H   H735      1.0  0.15287  0.67411  0.07618  1.0000
  H   H736      1.0  0.12774  0.62837  0.08448  1.0000
  H   H737      1.0  0.12494  0.59217  0.06732  1.0000
  H   H738      1.0  0.14577  0.60107  0.04166  1.0000
  H   H739      1.0  0.17409  0.68342  0.05075  1.0000
  H   H740      1.0  0.18793  0.61924  0.00138  1.0000
  C   C948      1.0  0.15134  0.58953  0.99241  1.0000
  C   C949      1.0  0.18798  0.93434  0.08362  1.0000
  H   H741      1.0  0.09205  0.58156  0.00325  1.0000
  H   H742      1.0  0.11944  0.62047  0.01956  1.0000
  H   H743      1.0  0.22088  0.67416  0.00520  1.0000
  H   H744      1.0  0.45123  0.93300  0.99184  1.0000
  H   H745      1.0  0.27808  0.66009  0.02998  1.0000
  H   H746      1.0  0.24611  0.63674  0.05032  1.0000
  H   H747      1.0  0.20176  0.63210  0.04836  1.0000
  H   H748      1.0  0.13889  0.66183  0.00665  1.0000
  H   H749      1.0  0.23486  0.96731  0.04982  1.0000
  H   H750      1.0  0.20308  0.97225  0.09452  1.0000
  H   H751      1.0  0.21522  0.74556  0.02169  1.0000
  H   H752      1.0  0.21428  0.70449  0.02967  1.0000
  C   C950      1.0  0.36277  0.94201  0.10384  1.0000
  C   C951      1.0  0.34734  0.91668  0.09800  1.0000
  C   C952      1.0  0.35896  0.90267  0.09116  1.0000
  C   C953      1.0  0.38595  0.91405  0.09001  1.0000
  C   C954      1.0  0.40165  0.93940  0.09599  1.0000
  C   C955      1.0  0.38983  0.95339  0.10284  1.0000
  P   P31       1.0  0.43612  0.95496  0.09252  1.0000
  H   H753      1.0  0.99701  0.80206  0.23440  1.0000
  C   C956      1.0  0.46301  0.97277  0.99977  1.0000
  H   H754      1.0  0.04607  0.85527  0.11396  1.0000
  C   C957      1.0  0.09717  0.87124  0.11811  1.0000
  C   C958      1.0  0.05917  0.87467  0.19886  1.0000
  H   H755      1.0  0.20717  0.91979  0.04896  1.0000
  C   C959      1.0  0.01607  0.64459  0.99552  1.0000
  C   C960      1.0  0.36629  0.48600  0.08359  1.0000
  C   C961      1.0  0.46693  0.89446  0.09660  1.0000
  C   C962      1.0  0.08065  0.78324  0.09136  1.0000
  C   C963      1.0  0.42053  0.96634  0.06367  1.0000
  H   H756      1.0  0.17738  0.89843  0.07065  1.0000
  H   H757      1.0  0.32636  0.90823  0.09843  1.0000
  H   H758      1.0  0.34707  0.88326  0.08622  1.0000
  H   H759      1.0  0.39447  0.90326  0.08403  1.0000
  C   C964      1.0  0.36594  0.48919  0.99783  1.0000
  C   C965      1.0  0.18596  0.84612  0.12457  1.0000
  H   H760      1.0  0.39448  0.97040  0.01237  1.0000
  H   H761      1.0  0.43742  0.59885  0.06041  1.0000
  C   C966      1.0  0.32341  0.50124  0.05171  1.0000
  H   H762      1.0  0.00327  0.57205  0.06944  1.0000
  Fe  Fe78      1.0  0.20637  0.97060  0.14242  1.0000
  C   C967      1.0  0.39572  0.57831  0.05697  1.0000
  C   C968      1.0  0.36172  0.89579  0.99470  1.0000
  H   H763      1.0  0.05597  0.79109  0.05016  1.0000
  C   C969      1.0  0.13471  0.95451  0.20972  1.0000
  S   S148      1.0  0.08425  0.49550  0.04006  1.0000
  C   C970      1.0  0.04001  0.76360  0.23484  1.0000
  C   C971      1.0  0.38123  0.90432  0.00643  1.0000
  H   H764      1.0  0.43291  0.48754  0.02849  1.0000
  H   H765      1.0  0.35236  0.52293  0.11636  1.0000
  H   H766      1.0  0.42031  0.50016  0.06668  1.0000
  C   C972      1.0  0.29101  0.49442  0.07111  1.0000
  H   H767      1.0  0.47410  0.88022  0.09751  1.0000
  C   C973      1.0  0.31726  0.50470  0.06715  1.0000
  H   H768      1.0  0.15321  0.96236  0.20394  1.0000
  C   C974      1.0  0.46442  0.97569  0.12072  1.0000
  S   S149      1.0  0.98424  0.79181  0.14053  1.0000
  H   H769      1.0  0.01950  0.77568  0.09772  1.0000
  H   H770      1.0  0.00857  0.48527  0.02333  1.0000
  C   C975      1.0  0.31978  0.54772  0.09429  1.0000
  C   C976      1.0  0.20792  0.96017  0.23410  1.0000
  P   P32       1.0  0.43537  0.97431  0.99054  1.0000
  C   C977      1.0  0.20569  0.97350  0.22098  1.0000
  H   H771      1.0  0.07167  0.94066  0.20300  1.0000
  C   C978      1.0  0.10664  0.81818  0.20015  1.0000
  H   H772      1.0  0.00122  0.84891  0.11211  1.0000
  H   H773      1.0  0.41842  0.93446  0.01425  1.0000
  C   C979      1.0  0.03819  0.85095  0.20252  1.0000
  C   C980      1.0  0.99639  0.62495  0.00383  1.0000
  C   C981      1.0  0.04247  0.83245  0.21066  1.0000
  H   H774      1.0  0.13575  0.92967  0.10233  1.0000
  H   H775      1.0  0.39565  0.58915  0.04676  1.0000
  C   C982      1.0  0.13319  0.94675  0.22527  1.0000
  C   C983      1.0  0.00192  0.58946  0.07296  1.0000
  C   C984      1.0  0.18909  0.91937  0.07089  1.0000
  H   H776      1.0  0.15891  0.80680  0.19638  1.0000
  H   H777      1.0  0.37959  0.49850  0.07512  1.0000
  C   C985      1.0  0.01987  0.60685  0.08399  1.0000
  H   H778      1.0  0.03268  0.64321  0.09685  1.0000
  H   H779      1.0  0.01007  0.66956  0.05725  1.0000
  C   C986      1.0  0.41924  0.58393  0.06470  1.0000
  H   H780      1.0  0.42258  0.91024  0.11253  1.0000
  H   H781      1.0  0.11685  0.91057  0.12755  1.0000
  C   C987      1.0  0.20595  0.93139  0.05872  1.0000
  H   H782      1.0  0.00644  0.73956  0.19390  1.0000
  H   H783      1.0  0.17810  0.74511  0.00674  1.0000
  H   H784      1.0  0.37863  0.89296  0.01686  1.0000
  H   H785      1.0  0.01874  0.84636  0.19838  1.0000
  C   C988      1.0  0.13452  0.75033  0.08448  1.0000
  C   C989      1.0  0.12134  0.74144  0.09842  1.0000
  C   C990      1.0  0.12488  0.75902  0.11079  1.0000
  C   C991      1.0  0.14211  0.78546  0.10938  1.0000
  C   C992      1.0  0.15581  0.79451  0.09550  1.0000
  C   C993      1.0  0.15146  0.77677  0.08295  1.0000
  P   P33       1.0  0.17867  0.82845  0.09343  1.0000
  C   C994      1.0  0.21184  0.83341  0.09347  1.0000
  C   C995      1.0  0.17077  0.83825  0.07496  1.0000
  C   C996      1.0  0.14491  0.83240  0.07132  1.0000
  C   C997      1.0  0.13833  0.83899  0.05680  1.0000
  C   C998      1.0  0.15750  0.85129  0.04578  1.0000
  C   C999      1.0  0.18326  0.85709  0.04931  1.0000
  C   C1000     1.0  0.18993  0.85064  0.06383  1.0000
  C   C1001     1.0  0.23223  0.85824  0.09726  1.0000
  C   C1002     1.0  0.25808  0.86284  0.09680  1.0000
  C   C1003     1.0  0.26380  0.84265  0.09260  1.0000
  C   C1004     1.0  0.24367  0.81791  0.08877  1.0000
  C   C1005     1.0  0.21778  0.81327  0.08915  1.0000
  C   C1006     1.0  0.17661  0.84806  0.10958  1.0000
  C   C1007     1.0  0.37254  0.54383  0.07519  1.0000
  C   C1008     1.0  0.10115  0.81175  0.21595  1.0000
  C   C1009     1.0  0.16768  0.86659  0.10724  1.0000
  H   H786      1.0  0.13150  0.73670  0.07482  1.0000
  H   H787      1.0  0.10805  0.72093  0.09952  1.0000
  H   H788      1.0  0.11416  0.75208  0.12145  1.0000
  H   H789      1.0  0.14441  0.79860  0.11912  1.0000
  H   H790      1.0  0.16142  0.78331  0.07200  1.0000
  H   H791      1.0  0.12984  0.82247  0.07966  1.0000
  H   H792      1.0  0.11828  0.83407  0.05398  1.0000
  H   H793      1.0  0.15239  0.85593  0.03440  1.0000
  H   H794      1.0  0.19813  0.86594  0.04065  1.0000
  H   H795      1.0  0.20995  0.85481  0.06606  1.0000
  H   H796      1.0  0.22823  0.87422  0.10039  1.0000
  H   H797      1.0  0.27366  0.88221  0.09946  1.0000
  H   H798      1.0  0.28384  0.84627  0.09207  1.0000
  H   H799      1.0  0.24813  0.80240  0.08520  1.0000
  H   H800      1.0  0.20271  0.79405  0.08586  1.0000
  H   H801      1.0  0.06146  0.50563  0.00970  1.0000
  H   H802      1.0  0.16108  0.86919  0.09579  1.0000
  S   S150      1.0  0.20639  0.96122  0.20185  1.0000
  C   C1010     1.0  0.06780  0.83756  0.21515  1.0000
  C   C1011     1.0  0.16815  0.88283  0.11973  1.0000
  C   C1012     1.0  0.18622  0.86230  0.13703  1.0000
  C   C1013     1.0  0.01555  0.57424  0.02573  1.0000
  C   C1014     1.0  0.05685  0.78878  0.13195  1.0000
  H   H803      1.0  0.40127  0.97324  0.10708  1.0000
  C   C1015     1.0  0.22180  0.95834  0.05933  1.0000
  C   C1016     1.0  0.98526  0.80931  0.10337  1.0000
  C   C1017     1.0  0.33434  0.54528  0.12545  1.0000
  C   C1018     1.0  0.44713  0.89316  0.10622  1.0000
  H   H804      1.0  0.03057  0.69816  0.03518  1.0000
  C   C1019     1.0  0.01858  0.62955  0.08841  1.0000
  H   H805      1.0  0.01995  0.72670  0.13069  1.0000
  C   C1020     1.0  0.02974  0.57467  0.01254  1.0000
  C   C1021     1.0  0.10250  0.81893  0.12948  1.0000
  C   C1022     1.0  0.07194  0.80200  0.08931  1.0000
  C   C1023     1.0  0.07665  0.80880  0.12386  1.0000
  C   C1024     1.0  0.33339  0.53364  0.09781  1.0000
  H   H806      1.0  0.16229  0.89783  0.11787  1.0000
  C   C1025     1.0  0.34105  0.53289  0.11344  1.0000
  H   H807      1.0  0.03676  0.78050  0.12788  1.0000
  H   H808      1.0  0.08674  0.75282  0.08030  1.0000
  C   C1026     1.0  0.44159  0.97012  0.07364  1.0000
  H   H809      1.0  0.13189  0.82205  0.18107  1.0000
  H   H810      1.0  0.13512  0.90256  0.23463  1.0000
  H   H811      1.0  0.15091  0.94981  0.23143  1.0000
  H   H812      1.0  0.43781  0.57423  0.08368  1.0000
  H   H813      1.0  0.21773  0.91417  0.09842  1.0000
  H   H814      1.0  0.10839  0.86605  0.21518  1.0000
  H   H815      1.0  0.09975  0.85386  0.07997  1.0000
  C   C1027     1.0  0.08439  0.88007  0.20357  1.0000
  C   C1028     1.0  0.31307  0.56007  0.10632  1.0000
  C   C1029     1.0  0.11899  0.89269  0.08960  1.0000
  C   C1030     1.0  0.08075  0.76778  0.07859  1.0000
  C   C1031     1.0  0.41945  0.56998  0.07785  1.0000
  C   C1032     1.0  0.46280  0.53735  0.00084  1.0000
  H   H816      1.0  0.35438  0.55468  0.05623  1.0000
  C   C1033     1.0  0.01608  0.74636  0.20525  1.0000
  C   C1034     1.0  0.07217  0.77080  0.06373  1.0000
  P   P34       1.0  0.07400  0.81349  0.22488  1.0000
  C   C1035     1.0  0.40376  0.92784  0.00493  1.0000
  C   C1036     1.0  0.03650  0.81623  0.10540  1.0000
  H   H817      1.0  0.12740  0.90110  0.07856  1.0000
  C   C1037     1.0  0.10318  0.86583  0.09046  1.0000
  P   P35       1.0  0.06949  0.82060  0.10590  1.0000
  C   C1038     1.0  0.09178  0.85492  0.10468  1.0000
  H   H818      1.0  0.06869  0.92676  0.23050  1.0000
  H   H819      1.0  0.30835  0.98144  0.10864  1.0000
  P   P36       1.0  0.34256  0.51831  0.08224  1.0000
  C   C1039     1.0  0.17740  0.88072  0.13458  1.0000
  H   H820      1.0  0.05072  0.58343  0.01368  1.0000
  C   C1040     1.0  0.01597  0.79208  0.10054  1.0000
  H   H821      1.0  0.09466  0.82419  0.19312  1.0000
  C   C1041     1.0  0.01987  0.73830  0.23267  1.0000
  H   H822      1.0  0.39677  0.53960  0.09341  1.0000
  H   H823      1.0  0.17845  0.89395  0.14406  1.0000
  C   C1042     1.0  0.06294  0.80463  0.07436  1.0000
  H   H824      1.0  0.04474  0.53748  0.00795  1.0000
  S   S151      1.0  0.21577  0.94844  0.12267  1.0000
  C   C1043     1.0  0.46177  0.51270  0.00181  1.0000
  C   C1044     1.0  0.12756  0.81664  0.19318  1.0000
  C   C1045     1.0  0.34652  0.49112  0.08930  1.0000
  H   H825      1.0  0.97983  0.71633  0.08634  1.0000
  C   C1046     1.0  0.00787  0.72970  0.21788  1.0000
  H   H826      1.0  0.02563  0.58262  0.03685  1.0000
  H   H827      1.0  0.31512  0.56841  0.13121  1.0000
  C   C1047     1.0  0.10915  0.93537  0.23271  1.0000
  C   C1048     1.0  0.39619  0.55017  0.08318  1.0000
  H   H828      1.0  0.40074  0.95326  0.06665  1.0000
  H   H829      1.0  0.99953  0.65321  0.08488  1.0000
  C   C1049     1.0  0.03096  0.83667  0.10968  1.0000
  C   C1050     1.0  0.99051  0.78870  0.09947  1.0000
  C   C1051     1.0  0.37240  0.55852  0.06227  1.0000
  H   H830      1.0  0.99964  0.62265  0.01612  1.0000
  H   H831      1.0  0.05601  0.88845  0.19186  1.0000
  C   C1052     1.0  0.46780  0.93207  0.08407  1.0000
  C   C1053     1.0  0.01036  0.68375  0.03419  1.0000
  C   C1054     1.0  0.08713  0.93405  0.22475  1.0000
  H   H832      1.0  0.46044  0.94223  0.03762  1.0000
  H   H833      1.0  0.30241  0.57077  0.10355  1.0000
  C   C1055     1.0  0.99623  0.68117  0.02026  1.0000
  H   H834      1.0  0.06494  0.88300  0.23421  1.0000
  C   C1056     1.0  0.98847  0.56310  0.02458  1.0000
  H   H835      1.0  0.43894  0.87790  0.11467  1.0000
  C   C1057     1.0  0.05866  0.51216  0.99828  1.0000
  C   C1058     1.0  0.45292  0.98033  0.10731  1.0000
  S   S152      1.0  0.37965  0.48959  0.04199  1.0000
  H   H836      1.0  0.99180  0.71031  0.21624  1.0000
  C   C1059     1.0  0.12429  0.57866  0.99295  1.0000
  H   H837      1.0  0.13993  0.70312  0.99930  1.0000
  C   C1060     1.0  0.98280  0.59486  0.06622  1.0000
  H   H838      1.0  0.04795  0.61698  0.99296  1.0000
  C   C1061     1.0  0.98173  0.61797  0.07030  1.0000
  C   C1062     1.0  0.30370  0.48870  0.04027  1.0000
  H   H839      1.0  0.98099  0.77984  0.20855  1.0000
  C   C1063     1.0  0.40674  0.49040  0.99034  1.0000
  C   C1064     1.0  0.20381  0.96125  0.08429  1.0000
  C   C1065     1.0  0.22117  0.97342  0.07228  1.0000
  H   H840      1.0  0.08683  0.65912  0.99088  1.0000
  H   H841      1.0  0.97755  0.56284  0.03478  1.0000
  H   H842      1.0  0.40831  0.97591  0.04189  1.0000
  C   C1066     1.0  0.42477  0.97921  0.04948  1.0000
  H   H843      1.0  0.47577  0.94638  0.07512  1.0000
  H   H844      1.0  0.27449  0.98187  0.07501  1.0000
  H   H845      1.0  0.30857  0.48563  0.02846  1.0000
  H   H846      1.0  0.11121  0.79607  0.23632  1.0000
  C   C1067     1.0  0.06427  0.61783  0.98653  1.0000
  H   H847      1.0  0.04709  0.82003  0.27872  1.0000
  S   S153      1.0  0.01728  0.78845  0.30797  1.0000
  S   S154      1.0  0.02178  0.85271  0.32756  1.0000
  C   C1068     1.0  0.32736  0.51435  0.42514  1.0000
  C   C1069     1.0  0.44564  0.69883  0.41431  1.0000
  C   C1070     1.0  0.10557  0.83843  0.25146  1.0000
  Fe  Fe79      1.0  0.17240  0.95289  0.32009  1.0000
  S   S155      1.0  0.20896  0.95919  0.30790  1.0000
  S   S156      1.0  0.14471  0.90964  0.32153  1.0000
  S   S157      1.0  0.05704  0.48603  0.43121  1.0000
  H   H848      1.0  0.08874  0.76837  0.46486  1.0000
  H   H849      1.0  0.17611  0.90105  0.36025  1.0000
  C   C1071     1.0  0.08015  0.82350  0.24538  1.0000
  Fe  Fe80      1.0  0.31564  0.91520  0.44792  1.0000
  S   S158      1.0  0.33505  0.93484  0.42600  1.0000
  S   S159      1.0  0.31844  0.93578  0.47182  1.0000
  Fe  Fe81      1.0  0.28992  0.86046  0.43122  1.0000
  S   S160      1.0  0.30963  0.87733  0.40854  1.0000
  S   S161      1.0  0.26333  0.81603  0.43267  1.0000
  Fe  Fe82      1.0  0.34605  0.90203  0.42326  1.0000
  S   S162      1.0  0.38889  0.91494  0.41647  1.0000
  Fe  Fe83      1.0  0.29733  0.90854  0.41295  1.0000
  S   S163      1.0  0.26940  0.91471  0.39588  1.0000
  S   S164      1.0  0.32738  0.88307  0.44568  1.0000
  S   S165      1.0  0.27697  0.89098  0.43533  1.0000
  H   H850      1.0  0.03350  0.76653  0.45692  1.0000
  C   C1072     1.0  0.41850  0.49936  0.37516  1.0000
  C   C1073     1.0  0.29152  0.50578  0.48614  1.0000
  Fe  Fe84      1.0  0.05125  0.67475  0.41385  1.0000
  S   S166      1.0  0.06775  0.69732  0.43660  1.0000
  S   S167      1.0  0.02556  0.68927  0.40051  1.0000
  Fe  Fe85      1.0  0.07577  0.63809  0.42124  1.0000
  S   S168      1.0  0.09476  0.66049  0.44378  1.0000
  S   S169      1.0  0.08077  0.60245  0.41225  1.0000
  Fe  Fe86      1.0  0.05545  0.65877  0.44797  1.0000
  S   S170      1.0  0.03850  0.64596  0.47252  1.0000
  Fe  Fe87      1.0  0.10548  0.69742  0.43030  1.0000
  S   S171      1.0  0.13957  0.73963  0.43108  1.0000
  S   S172      1.0  0.03648  0.63587  0.42576  1.0000
  S   S173      1.0  0.08899  0.67529  0.40731  1.0000
  C   C1074     1.0  0.46329  0.52595  0.36820  1.0000
  C   C1075     1.0  0.06506  0.51875  0.42584  1.0000
  C   C1076     1.0  0.06035  0.53486  0.43654  1.0000
  C   C1077     1.0  0.06517  0.56040  0.43274  1.0000
  C   C1078     1.0  0.07449  0.57030  0.41798  1.0000
  C   C1079     1.0  0.07948  0.55427  0.40734  1.0000
  C   C1080     1.0  0.07486  0.52880  0.41122  1.0000
  H   H851      1.0  0.05314  0.52753  0.44792  1.0000
  H   H852      1.0  0.06205  0.57258  0.44131  1.0000
  H   H853      1.0  0.08682  0.56157  0.39592  1.0000
  H   H854      1.0  0.07853  0.51683  0.40276  1.0000
  C   C1081     1.0  0.40922  0.52745  0.41706  1.0000
  C   C1082     1.0  0.41746  0.55212  0.41050  1.0000
  C   C1083     1.0  0.44309  0.57246  0.41309  1.0000
  C   C1084     1.0  0.46125  0.56858  0.42226  1.0000
  C   C1085     1.0  0.45318  0.54379  0.42863  1.0000
  C   C1086     1.0  0.42739  0.52351  0.42625  1.0000
  H   H855      1.0  0.40387  0.55556  0.40329  1.0000
  H   H856      1.0  0.44880  0.59118  0.40794  1.0000
  C   C1087     1.0  0.07464  0.71124  0.48253  1.0000
  H   H857      1.0  0.42163  0.50473  0.43131  1.0000
  C   C1088     1.0  0.17411  0.76046  0.43127  1.0000
  C   C1089     1.0  0.18359  0.78772  0.43151  1.0000
  C   C1090     1.0  0.21062  0.80498  0.43173  1.0000
  C   C1091     1.0  0.22877  0.79531  0.43187  1.0000
  C   C1092     1.0  0.21927  0.76806  0.43157  1.0000
  C   C1093     1.0  0.19226  0.75080  0.43121  1.0000
  H   H858      1.0  0.16993  0.79561  0.43155  1.0000
  H   H859      1.0  0.21743  0.82578  0.43195  1.0000
  H   H860      1.0  0.23298  0.76022  0.43166  1.0000
  H   H861      1.0  0.18551  0.73000  0.43099  1.0000
  C   C1094     1.0  0.45846  0.89584  0.42248  1.0000
  C   C1095     1.0  0.46129  0.91832  0.41501  1.0000
  C   C1096     1.0  0.43994  0.92384  0.41345  1.0000
  C   C1097     1.0  0.41536  0.90717  0.41939  1.0000
  C   C1098     1.0  0.41268  0.88497  0.42715  1.0000
  C   C1099     1.0  0.43398  0.87934  0.42860  1.0000
  H   H862      1.0  0.01954  0.58002  0.41655  1.0000
  H   H863      1.0  0.44240  0.94105  0.40740  1.0000
  H   H864      1.0  0.39405  0.87187  0.43181  1.0000
  H   H865      1.0  0.43140  0.86194  0.43446  1.0000
  C   C1100     1.0  0.09708  0.70926  0.47884  1.0000
  H   H866      1.0  0.46660  0.82064  0.42151  1.0000
  H   H867      1.0  0.04749  0.71194  0.34487  1.0000
  H   H868      1.0  0.18983  0.89594  0.33378  1.0000
  C   C1101     1.0  0.20823  0.96966  0.24950  1.0000
  C   C1102     1.0  0.26889  0.93509  0.38049  1.0000
  C   C1103     1.0  0.24473  0.93252  0.37501  1.0000
  C   C1104     1.0  0.24311  0.94818  0.36292  1.0000
  C   C1105     1.0  0.26573  0.96669  0.35610  1.0000
  C   C1106     1.0  0.28989  0.96920  0.36156  1.0000
  C   C1107     1.0  0.29149  0.95353  0.37364  1.0000
  H   H869      1.0  0.22711  0.91834  0.38018  1.0000
  H   H870      1.0  0.22440  0.94597  0.35889  1.0000
  H   H871      1.0  0.15045  0.56915  0.47667  1.0000
  H   H872      1.0  0.31018  0.95549  0.37744  1.0000
  C   C1108     1.0  0.46808  0.69556  0.41480  1.0000
  C   C1109     1.0  0.47284  0.53232  0.46926  1.0000
  C   C1110     1.0  0.05586  0.86861  0.32521  1.0000
  C   C1111     1.0  0.06962  0.85446  0.32275  1.0000
  C   C1112     1.0  0.09674  0.86745  0.32134  1.0000
  C   C1113     1.0  0.11046  0.89471  0.32235  1.0000
  C   C1114     1.0  0.09676  0.90899  0.32462  1.0000
  C   C1115     1.0  0.06954  0.89594  0.32612  1.0000
  H   H873      1.0  0.05950  0.83348  0.32235  1.0000
  H   H874      1.0  0.10723  0.85627  0.31975  1.0000
  H   H875      1.0  0.10716  0.93001  0.32550  1.0000
  H   H876      1.0  0.05907  0.90705  0.32807  1.0000
  C   C1116     1.0  0.01798  0.72216  0.35241  1.0000
  C   C1117     1.0  0.03610  0.71251  0.35465  1.0000
  C   C1118     1.0  0.03917  0.70294  0.36930  1.0000
  C   C1119     1.0  0.02396  0.70268  0.38196  1.0000
  C   C1120     1.0  0.00626  0.71287  0.37980  1.0000
  C   C1121     1.0  0.00336  0.72264  0.36520  1.0000
  H   H877      1.0  0.05274  0.69507  0.37066  1.0000
  H   H878      1.0  0.07886  0.97973  0.28445  1.0000
  C   C1122     1.0  0.39236  0.76620  0.44285  1.0000
  H   H879      1.0  0.04934  0.76948  0.24633  1.0000
  C   C1123     1.0  0.07160  0.73280  0.47784  1.0000
  C   C1124     1.0  0.19543  0.86268  0.33961  1.0000
  H   H880      1.0  0.02291  0.84734  0.24167  1.0000
  C   C1125     1.0  0.26099  0.94086  0.44527  1.0000
  P   P37       1.0  0.98174  0.52992  0.46420  1.0000
  C   C1126     1.0  0.02535  0.74668  0.45244  1.0000
  C   C1127     1.0  0.15957  0.63763  0.44355  1.0000
  C   C1128     1.0  0.29953  0.53232  0.48389  1.0000
  C   C1129     1.0  0.00288  0.55942  0.43759  1.0000
  C   C1130     1.0  0.13738  0.97401  0.26691  1.0000
  H   H881      1.0  0.21558  0.53353  0.47558  1.0000
  C   C1131     1.0  0.11664  0.72878  0.47044  1.0000
  H   H882      1.0  0.35836  0.98404  0.45829  1.0000
  H   H883      1.0  0.13372  0.72694  0.46715  1.0000
  C   C1132     1.0  0.18743  0.55744  0.44932  1.0000
  H   H884      1.0  0.31918  0.96946  0.40586  1.0000
  H   H885      1.0  0.47718  0.53801  0.35976  1.0000
  C   C1133     1.0  0.44114  0.77077  0.43505  1.0000
  C   C1134     1.0  0.18073  0.88527  0.35780  1.0000
  C   C1135     1.0  0.12756  0.89933  0.36763  1.0000
  Fe  Fe88      1.0  0.99284  0.75449  0.32303  1.0000
  H   H886      1.0  0.15398  0.97264  0.26224  1.0000
  C   C1136     1.0  0.18264  0.63581  0.44571  1.0000
  C   C1137     1.0  0.29857  0.49607  0.45233  1.0000
  H   H887      1.0  0.98527  0.69857  0.48083  1.0000
  H   H888      1.0  0.04181  0.87017  0.29032  1.0000
  H   H889      1.0  0.17085  0.86159  0.44170  1.0000
  C   C1138     1.0  0.13526  0.59065  0.44236  1.0000
  H   H890      1.0  0.27263  0.96594  0.40888  1.0000
  C   C1139     1.0  0.11978  0.81667  0.33423  1.0000
  H   H891      1.0  0.39786  0.49080  0.37230  1.0000
  C   C1140     1.0  0.11216  0.95387  0.26417  1.0000
  P   P38       1.0  0.08031  0.82136  0.37254  1.0000
  H   H892      1.0  0.24307  0.92664  0.42238  1.0000
  C   C1141     1.0  0.27495  0.96521  0.42148  1.0000
  C   C1142     1.0  0.01405  0.54877  0.47272  1.0000
  C   C1143     1.0  0.13479  0.54999  0.47370  1.0000
  S   S174      1.0  0.37639  0.50243  0.41296  1.0000
  H   H893      1.0  0.09883  0.86775  0.35372  1.0000
  C   C1144     1.0  0.09117  0.75216  0.46920  1.0000
  H   H894      1.0  0.00223  0.50262  0.44425  1.0000
  C   C1145     1.0  0.15836  0.58861  0.44418  1.0000
  H   H895      1.0  0.42928  0.72480  0.41839  1.0000
  H   H896      1.0  0.33857  0.52117  0.41463  1.0000
  C   C1146     1.0  0.19024  0.54459  0.46250  1.0000
  H   H897      1.0  0.16000  0.65653  0.44303  1.0000
  C   C1147     1.0  0.06813  0.79421  0.34359  1.0000
  H   H898      1.0  0.98506  0.77201  0.37755  1.0000
  H   H899      1.0  0.08529  0.77280  0.37176  1.0000
  C   C1148     1.0  0.07427  0.78771  0.32889  1.0000
  H   H900      1.0  0.25231  0.55461  0.45762  1.0000
  C   C1149     1.0  0.39906  0.76712  0.42711  1.0000
  H   H901      1.0  0.46714  0.67701  0.41140  1.0000
  H   H902      1.0  0.16893  0.91576  0.28965  1.0000
  H   H903      1.0  0.15565  0.50912  0.43129  1.0000
  P   P39       1.0  0.15666  0.55666  0.44428  1.0000
  H   H904      1.0  0.10402  0.72266  0.36962  1.0000
  C   C1150     1.0  0.01444  0.74083  0.43720  1.0000
  C   C1151     1.0  0.07197  0.78573  0.41466  1.0000
  H   H905      1.0  0.10456  0.79409  0.31270  1.0000
  C   C1152     1.0  0.13286  0.53883  0.45865  1.0000
  C   C1153     1.0  0.42684  0.49562  0.38992  1.0000
  H   H906      1.0  0.02107  0.56935  0.44414  1.0000
  C   C1154     1.0  0.07915  0.75900  0.39524  1.0000
  S   S175      1.0  0.01369  0.73219  0.33327  1.0000
  H   H907      1.0  0.00956  0.58372  0.47587  1.0000
  C   C1155     1.0  0.01663  0.70180  0.45505  1.0000
  H   H908      1.0  0.46714  0.54021  0.43531  1.0000
  C   C1156     1.0  0.37797  0.51031  0.48248  1.0000
  H   H909      1.0  0.35467  0.96339  0.39424  1.0000
  C   C1157     1.0  0.13248  0.91639  0.25800  1.0000
  H   H910      1.0  0.11799  0.61642  0.44006  1.0000
  H   H911      1.0  0.33385  0.52341  0.46475  1.0000
  H   H912      1.0  0.09209  0.84540  0.28953  1.0000
  C   C1158     1.0  0.00581  0.69605  0.43982  1.0000
  C   C1159     1.0  0.08881  0.83936  0.27723  1.0000
  C   C1160     1.0  0.09615  0.51182  0.48131  1.0000
  H   H913      1.0  0.28361  0.95961  0.46624  1.0000
  H   H914      1.0  0.03941  0.80729  0.25065  1.0000
  H   H915      1.0  0.15614  0.92713  0.38384  1.0000
  H   H916      1.0  0.39283  0.96309  0.42866  1.0000
  H   H917      1.0  0.17432  0.53471  0.47029  1.0000
  H   H918      1.0  0.44747  0.77062  0.46021  1.0000
  H   H919      1.0  0.08378  0.90622  0.28308  1.0000
  H   H920      1.0  0.20016  0.61050  0.44778  1.0000
  H   H921      1.0  0.13974  0.82570  0.33053  1.0000
  C   C1161     1.0  0.00116  0.79071  0.37502  1.0000
  C   C1162     1.0  0.40986  0.76732  0.45469  1.0000
  C   C1163     1.0  0.00203  0.56576  0.42191  1.0000
  H   H922      1.0  0.43706  0.92257  0.45692  1.0000
  H   H923      1.0  0.07137  0.74893  0.41942  1.0000
  P   P40       1.0  0.47284  0.77468  0.42990  1.0000
  C   C1164     1.0  0.18866  0.88248  0.34282  1.0000
  H   H924      1.0  0.20098  0.65340  0.44698  1.0000
  C   C1165     1.0  0.44688  0.72274  0.41886  1.0000
  C   C1166     1.0  0.35860  0.98230  0.39916  1.0000
  C   C1167     1.0  0.11377  0.82299  0.34899  1.0000
  C   C1168     1.0  0.47066  0.51159  0.47850  1.0000
  C   C1169     1.0  0.99646  0.81143  0.37088  1.0000
  C   C1170     1.0  0.43416  0.76957  0.45084  1.0000
  C   C1171     1.0  0.08234  0.77713  0.38375  1.0000
  C   C1172     1.0  0.10982  0.84603  0.26739  1.0000
  H   H925      1.0  0.06753  0.78875  0.42658  1.0000
  H   H926      1.0  0.02565  0.51817  0.47113  1.0000
  H   H927      1.0  0.05894  0.77390  0.32111  1.0000
  C   C1173     1.0  0.02930  0.85708  0.26639  1.0000
  C   C1174     1.0  0.23431  0.55552  0.45536  1.0000
  H   H928      1.0  0.12209  0.84426  0.24397  1.0000
  H   H929      1.0  0.11620  0.84905  0.39980  1.0000
  C   C1175     1.0  0.11862  0.86281  0.39083  1.0000
  H   H930      1.0  0.01340  0.85085  0.36303  1.0000
  C   C1176     1.0  0.07045  0.89389  0.27386  1.0000
  C   C1177     1.0  0.02652  0.79376  0.37534  1.0000
  C   C1178     1.0  0.30188  0.49437  0.42399  1.0000
  H   H931      1.0  0.12859  0.76492  0.45873  1.0000
  C   C1179     1.0  0.10904  0.87343  0.36499  1.0000
  C   C1180     1.0  0.98054  0.54043  0.44450  1.0000
  H   H932      1.0  0.39401  0.93744  0.45109  1.0000
  C   C1181     1.0  0.13588  0.61504  0.44193  1.0000
  C   C1182     1.0  0.23157  0.56810  0.44214  1.0000
  H   H933      1.0  0.01332  0.72544  0.24250  1.0000
  H   H934      1.0  0.42824  0.77014  0.41095  1.0000
  H   H935      1.0  0.99430  0.71276  0.38942  1.0000
  C   C1183     1.0  0.05985  0.88099  0.24641  1.0000
  C   C1184     1.0  0.10001  0.79900  0.32417  1.0000
  C   C1185     1.0  0.14157  0.90706  0.38190  1.0000
  H   H936      1.0  0.14855  0.89467  0.40437  1.0000
  H   H937      1.0  0.24744  0.57689  0.43412  1.0000
  C   C1186     1.0  0.03139  0.53817  0.47440  1.0000
  C   C1187     1.0  0.47187  0.52203  0.38298  1.0000
  H   H938      1.0  0.37366  0.76477  0.44585  1.0000
  H   H939      1.0  0.20880  0.49441  0.44364  1.0000
  H   H940      1.0  0.45652  0.53048  0.46199  1.0000
  C   C1188     1.0  0.09396  0.50078  0.46631  1.0000
  H   H941      1.0  0.01816  0.68669  0.46164  1.0000
  C   C1189     1.0  0.02615  0.72706  0.46155  1.0000
  H   H942      1.0  0.45915  0.50511  0.40567  1.0000
  H   H943      1.0  0.11676  0.57331  0.44093  1.0000
  C   C1190     1.0  0.39820  0.89840  0.48377  1.0000
  Fe  Fe89      1.0  0.98288  0.77464  0.29118  1.0000
  Fe  Fe90      1.0  0.99919  0.80978  0.32067  1.0000
  C   C1191     1.0  0.09515  0.97821  0.27942  1.0000
  H   H944      1.0  0.04798  0.78528  0.34692  1.0000
  H   H945      1.0  0.07121  0.94157  0.26769  1.0000
  H   H946      1.0  0.12933  0.83668  0.35661  1.0000
  C   C1192     1.0  0.14419  0.50640  0.40702  1.0000
  C   C1193     1.0  0.42330  0.76930  0.42321  1.0000
  C   C1194     1.0  0.13722  0.88877  0.39345  1.0000
  C   C1195     1.0  0.11371  0.75026  0.46568  1.0000
  H   H947      1.0  0.18883  0.90039  0.26909  1.0000
  C   C1196     1.0  0.45337  0.50720  0.39391  1.0000
  H   H948      1.0  0.05792  0.85671  0.36385  1.0000
  C   C1197     1.0  0.11228  0.51415  0.45502  1.0000
  C   C1198     1.0  0.10396  0.85498  0.37666  1.0000
  C   C1199     1.0  0.07455  0.80364  0.40315  1.0000
  P   P41       1.0  0.10736  0.92536  0.25286  1.0000
  C   C1200     1.0  0.20819  0.56893  0.43907  1.0000
  H   H949      1.0  0.20206  0.86088  0.32806  1.0000
  C   C1201     1.0  0.17931  0.86816  0.36959  1.0000
  C   C1202     1.0  0.18587  0.84806  0.36642  1.0000
  C   C1203     1.0  0.19408  0.84555  0.35135  1.0000
  P   P42       1.0  0.18477  0.82607  0.38156  1.0000
  C   C1204     1.0  0.21591  0.82592  0.38265  1.0000
  C   C1205     1.0  0.18020  0.83785  0.40042  1.0000
  C   C1206     1.0  0.20169  0.85627  0.40927  1.0000
  C   C1207     1.0  0.19825  0.86482  0.42407  1.0000
  C   C1208     1.0  0.17336  0.85525  0.43010  1.0000
  C   C1209     1.0  0.15181  0.83732  0.42123  1.0000
  C   C1210     1.0  0.15516  0.82877  0.40640  1.0000
  C   C1211     1.0  0.21835  0.80519  0.38945  1.0000
  C   C1212     1.0  0.24265  0.80573  0.39080  1.0000
  C   C1213     1.0  0.26469  0.82686  0.38536  1.0000
  C   C1214     1.0  0.26255  0.84774  0.37879  1.0000
  C   C1215     1.0  0.23835  0.84744  0.37758  1.0000
  C   C1216     1.0  0.15884  0.79339  0.37768  1.0000
  C   C1217     1.0  0.14613  0.78595  0.36287  1.0000
  C   C1218     1.0  0.12638  0.76057  0.36001  1.0000
  C   C1219     1.0  0.11930  0.74234  0.37183  1.0000
  C   C1220     1.0  0.13165  0.74961  0.38663  1.0000
  C   C1221     1.0  0.15108  0.77504  0.38959  1.0000
  H   H950      1.0  0.17345  0.87094  0.38115  1.0000
  H   H951      1.0  0.19978  0.83053  0.34876  1.0000
  H   H952      1.0  0.22121  0.86386  0.40489  1.0000
  H   H953      1.0  0.21506  0.87853  0.43095  1.0000
  H   H954      1.0  0.13254  0.82969  0.42595  1.0000
  H   H955      1.0  0.13825  0.81480  0.39972  1.0000
  H   H956      1.0  0.20184  0.78886  0.39414  1.0000
  H   H957      1.0  0.24452  0.79011  0.39656  1.0000
  H   H958      1.0  0.28357  0.82744  0.38674  1.0000
  H   H959      1.0  0.27979  0.86464  0.37512  1.0000
  H   H960      1.0  0.23749  0.86445  0.37313  1.0000
  H   H961      1.0  0.15128  0.79955  0.35349  1.0000
  H   H962      1.0  0.11648  0.75501  0.34861  1.0000
  H   H963      1.0  0.29342  0.48552  0.41262  1.0000
  H   H964      1.0  0.12601  0.73560  0.39591  1.0000
  H   H965      1.0  0.16003  0.78028  0.40123  1.0000
  C   C1222     1.0  0.14757  0.54091  0.42505  1.0000
  C   C1223     1.0  0.14002  0.55200  0.41271  1.0000
  C   C1224     1.0  0.13437  0.54018  0.39772  1.0000
  S   S176      1.0  0.16826  0.98396  0.30687  1.0000
  H   H966      1.0  0.29908  0.53934  0.47224  1.0000
  C   C1225     1.0  0.14968  0.51803  0.42205  1.0000
  C   C1226     1.0  0.41514  0.49216  0.48031  1.0000
  H   H967      1.0  0.21038  0.95947  0.25948  1.0000
  C   C1227     1.0  0.02245  0.57495  0.47716  1.0000
  C   C1228     1.0  0.34979  0.89790  0.48382  1.0000
  H   H968      1.0  0.42726  0.68278  0.41043  1.0000
  H   H969      1.0  0.13837  0.56970  0.41449  1.0000
  H   H970      1.0  0.12823  0.54868  0.38832  1.0000
  C   C1229     1.0  0.23993  0.49012  0.45529  1.0000
  H   H971      1.0  0.41668  0.89808  0.48420  1.0000
  C   C1230     1.0  0.00465  0.71553  0.43092  1.0000
  C   C1231     1.0  0.08029  0.79977  0.38765  1.0000
  H   H972      1.0  0.25476  0.50505  0.44852  1.0000
  C   C1232     1.0  0.09095  0.95647  0.27006  1.0000
  C   C1233     1.0  0.11658  0.53646  0.48501  1.0000
  C   C1234     1.0  0.18209  0.61139  0.44606  1.0000
  C   C1235     1.0  0.06524  0.57988  0.48401  1.0000
  C   C1236     1.0  0.03600  0.86067  0.25061  1.0000
  H   H973      1.0  0.20610  0.57814  0.42855  1.0000
  H   H974      1.0  0.99901  0.67666  0.43469  1.0000
  C   C1237     1.0  0.17282  0.90438  0.26602  1.0000
  H   H975      1.0  0.11001  0.50524  0.44345  1.0000
  C   C1238     1.0  0.04666  0.87350  0.27802  1.0000
  C   C1239     1.0  0.07684  0.89835  0.25796  1.0000
  H   H976      1.0  0.02956  0.77717  0.37816  1.0000
  H   H977      1.0  0.12939  0.85715  0.27216  1.0000
  C   C1240     1.0  0.06350  0.82514  0.27115  1.0000
  C   C1241     1.0  0.13636  0.51735  0.39488  1.0000
  H   H978      1.0  0.24836  0.92321  0.45114  1.0000
  S   S177      1.0  0.19307  0.97973  0.34081  1.0000
  C   C1242     1.0  0.25801  0.94280  0.42913  1.0000
  C   C1243     1.0  0.14185  0.91945  0.27361  1.0000
  C   C1244     1.0  0.32450  0.51557  0.45345  1.0000
  H   H979      1.0  0.45947  0.49514  0.44618  1.0000
  H   H980      1.0  0.47424  0.91337  0.45331  1.0000
  H   H981      1.0  0.01103  0.84103  0.26967  1.0000
  P   P43       1.0  0.04156  0.73424  0.48082  1.0000
  H   H982      1.0  0.13133  0.91329  0.35844  1.0000
  C   C1245     1.0  0.21364  0.54373  0.46550  1.0000
  C   C1246     1.0  0.08786  0.81207  0.35371  1.0000
  C   C1247     1.0  0.05918  0.81774  0.25524  1.0000
  H   H983      1.0  0.13395  0.92676  0.28275  1.0000
  C   C1248     1.0  0.16186  0.91335  0.27758  1.0000
  C   C1249     1.0  0.16304  0.90048  0.25056  1.0000
  H   H984      1.0  0.07144  0.82020  0.40622  1.0000
  C   C1250     1.0  0.07419  0.76335  0.41068  1.0000
  C   C1251     1.0  0.00729  0.63452  0.48113  1.0000
  C   C1252     1.0  0.05693  0.55375  0.47989  1.0000
  C   C1253     1.0  0.47458  0.92591  0.46300  1.0000
  H   H985      1.0  0.38557  0.76644  0.41793  1.0000
  H   H986      1.0  0.14593  0.48879  0.40480  1.0000
  H   H987      1.0  0.07964  0.74102  0.39212  1.0000
  H   H988      1.0  0.35899  0.53936  0.44067  1.0000
  C   C1254     1.0  0.43672  0.51458  0.36431  1.0000
  C   C1255     1.0  0.40697  0.95818  0.45125  1.0000
  H   H989      1.0  0.01390  0.75591  0.43011  1.0000
  C   C1256     1.0  0.33880  0.52472  0.43987  1.0000
  C   C1257     1.0  0.98710  0.48825  0.45122  1.0000
  C   C1258     1.0  0.47064  0.74354  0.42402  1.0000
  C   C1259     1.0  0.37430  0.49051  0.47158  1.0000
  C   C1260     1.0  0.01712  0.83511  0.36690  1.0000
  C   C1261     1.0  0.04255  0.83830  0.36730  1.0000
  C   C1262     1.0  0.04757  0.81780  0.37181  1.0000
  H   H990      1.0  0.98731  0.63915  0.46088  1.0000
  C   C1263     1.0  0.40625  0.97266  0.43845  1.0000
  C   C1264     1.0  0.33886  0.96781  0.47965  1.0000
  H   H991      1.0  0.99671  0.71103  0.41900  1.0000
  C   C1265     1.0  0.42442  0.97047  0.46393  1.0000
  S   S178      1.0  0.99080  0.78482  0.26553  1.0000
  C   C1266     1.0  0.28089  0.96139  0.45377  1.0000
  C   C1267     1.0  0.14259  0.90597  0.24662  1.0000
  H   H992      1.0  0.09884  0.69211  0.48204  1.0000
  C   C1268     1.0  0.45357  0.93118  0.46513  1.0000
  H   H993      1.0  0.43018  0.51777  0.35294  1.0000
  H   H994      1.0  0.40470  0.76671  0.46690  1.0000
  H   H995      1.0  0.00700  0.75775  0.48418  1.0000
  C   C1269     1.0  0.97874  0.55371  0.41312  1.0000
  C   C1270     1.0  0.98563  0.63345  0.47299  1.0000
  H   H996      1.0  0.07044  0.54569  0.48061  1.0000
  H   H997      1.0  0.98924  0.72980  0.36369  1.0000
  H   H998      1.0  0.30751  0.98334  0.35635  1.0000
  H   H999      1.0  0.13183  0.50810  0.38328  1.0000
  H   H1000     1.0  0.36373  0.51743  0.48323  1.0000
  H   H1001     1.0  0.05435  0.61070  0.48590  1.0000
  C   C1271     1.0  0.35132  0.87465  0.48513  1.0000
  P   P44       1.0  0.42571  0.95249  0.48071  1.0000
  C   C1272     1.0  0.39672  0.92177  0.48187  1.0000
  C   C1273     1.0  0.37235  0.92137  0.48210  1.0000
  C   C1274     1.0  0.04792  0.59038  0.48280  1.0000
  H   H1002     1.0  0.37071  0.93916  0.48092  1.0000
  H   H1003     1.0  0.33098  0.89764  0.48382  1.0000
  C   C1275     1.0  0.45375  0.94709  0.47784  1.0000
  H   H1004     1.0  0.17153  0.89352  0.24159  1.0000
  C   C1276     1.0  0.37553  0.87491  0.48516  1.0000
  H   H1005     1.0  0.37671  0.85688  0.48624  1.0000
  H   H1006     1.0  0.97814  0.55894  0.40102  1.0000
  C   C1277     1.0  0.28765  0.48512  0.43755  1.0000
  H   H1007     1.0  0.33370  0.85646  0.48605  1.0000
  C   C1278     1.0  0.29789  0.98385  0.44617  1.0000
  C   C1279     1.0  0.01096  0.51681  0.51508  1.0000
  H   H1008     1.0  0.09735  0.84099  0.73375  1.0000
  Fe  Fe91      1.0  0.00051  0.76553  0.68217  1.0000
  C   C1280     1.0  0.98045  0.52991  0.53484  1.0000
  S   S179      1.0  0.02077  0.76347  0.70490  1.0000
  Fe  Fe92      1.0  0.00935  0.80961  0.66001  1.0000
  S   S180      1.0  0.03527  0.85326  0.65669  1.0000
  S   S181      1.0  0.02180  0.77828  0.65940  1.0000
  H   H1009     1.0  0.02353  0.69000  0.53157  1.0000
  H   H1010     1.0  0.15800  0.83945  0.68259  1.0000
  C   C1281     1.0  0.14967  0.86859  0.70563  1.0000
  C   C1282     1.0  0.39552  0.95192  0.62643  1.0000
  C   C1283     1.0  0.11589  0.94068  0.71560  1.0000
  Fe  Fe93      1.0  0.18683  0.95968  0.65747  1.0000
  S   S182      1.0  0.15990  0.91569  0.65540  1.0000
  S   S183      1.0  0.22605  0.97328  0.66995  1.0000
  H   H1011     1.0  0.08334  0.90315  0.69029  1.0000
  H   H1012     1.0  0.06205  0.81522  0.70885  1.0000
  C   C1284     1.0  0.09204  0.80592  0.67782  1.0000
  C   C1285     1.0  0.43674  0.97965  0.52647  1.0000
  C   C1286     1.0  0.06723  0.83477  0.70521  1.0000
  C   C1287     1.0  0.06997  0.87017  0.65645  1.0000
  C   C1288     1.0  0.08521  0.85717  0.65654  1.0000
  C   C1289     1.0  0.11260  0.87137  0.65618  1.0000
  C   C1290     1.0  0.12522  0.89877  0.65595  1.0000
  C   C1291     1.0  0.11000  0.91179  0.65606  1.0000
  C   C1292     1.0  0.08259  0.89756  0.65615  1.0000
  H   H1013     1.0  0.07586  0.83616  0.65667  1.0000
  H   H1014     1.0  0.12405  0.86100  0.65598  1.0000
  H   H1015     1.0  0.11931  0.93281  0.65580  1.0000
  H   H1016     1.0  0.07106  0.90786  0.65600  1.0000
  H   H1017     1.0  0.09192  0.92628  0.73563  1.0000
  H   H1018     1.0  0.32329  0.95795  0.50275  1.0000
  H   H1019     1.0  0.37421  0.95078  0.53382  1.0000
  C   C1293     1.0  0.19963  0.91072  0.70981  1.0000
  C   C1294     1.0  0.00437  0.62658  0.49684  1.0000
  C   C1295     1.0  0.34817  0.98265  0.55523  1.0000
  H   H1020     1.0  0.02088  0.62723  0.50330  1.0000
  C   C1296     1.0  0.01535  0.69199  0.52045  1.0000
  H   H1021     1.0  0.11800  0.89047  0.69302  1.0000
  H   H1022     1.0  0.15547  0.81591  0.65783  1.0000
  H   H1023     1.0  0.03272  0.55812  0.51162  1.0000
  C   C1297     1.0  0.98865  0.67761  0.51731  1.0000
  H   H1024     1.0  0.44398  0.97591  0.53744  1.0000
  H   H1025     1.0  0.36910  0.91168  0.63028  1.0000
  C   C1298     1.0  0.37617  0.94172  0.59539  1.0000
  C   C1299     1.0  0.16334  0.87289  0.72005  1.0000
  C   C1300     1.0  0.30847  0.54122  0.51184  1.0000
  S   S184      1.0  0.98974  0.79789  0.68311  1.0000
  P   P45       1.0  0.11770  0.84120  0.70266  1.0000
  C   C1301     1.0  0.18624  0.90644  0.69539  1.0000
  C   C1302     1.0  0.09867  0.87689  0.69639  1.0000
  C   C1303     1.0  0.40011  0.52101  0.49235  1.0000
  H   H1026     1.0  0.19855  0.89747  0.73335  1.0000
  C   C1304     1.0  0.05375  0.81306  0.50183  1.0000
  C   C1305     1.0  0.07900  0.88436  0.69496  1.0000
  C   C1306     1.0  0.04771  0.84242  0.70392  1.0000
  H   H1027     1.0  0.15142  0.88240  0.68202  1.0000
  C   C1307     1.0  0.09291  0.85189  0.70143  1.0000
  C   C1308     1.0  0.04684  0.76553  0.48853  1.0000
  C   C1309     1.0  0.35153  0.96858  0.54277  1.0000
  H   H1028     1.0  0.07404  0.80267  0.68319  1.0000
  H   H1029     1.0  0.08513  0.59212  0.48801  1.0000
  H   H1030     1.0  0.35194  0.90264  0.60277  1.0000
  C   C1310     1.0  0.13777  0.81304  0.66345  1.0000
  C   C1311     1.0  0.33689  0.97326  0.49561  1.0000
  C   C1312     1.0  0.02952  0.79533  0.49539  1.0000
  C   C1313     1.0  0.18815  0.89400  0.72215  1.0000
  C   C1314     1.0  0.01647  0.54288  0.51736  1.0000
  H   H1031     1.0  0.03810  0.87250  0.69678  1.0000
  H   H1032     1.0  0.40291  0.95591  0.63847  1.0000
  H   H1033     1.0  0.14420  0.95472  0.69747  1.0000
  H   H1034     1.0  0.17615  0.94551  0.71193  1.0000
  C   C1315     1.0  0.43546  0.96518  0.51284  1.0000
  C   C1316     1.0  0.39527  0.96682  0.59995  1.0000
  C   C1317     1.0  0.13908  0.82662  0.67745  1.0000
  C   C1318     1.0  0.37164  0.96167  0.54353  1.0000
  H   H1035     1.0  0.31462  0.57051  0.49488  1.0000
  H   H1036     1.0  0.36825  0.93733  0.58349  1.0000
  C   C1319     1.0  0.05350  0.86710  0.69861  1.0000
  H   H1037     1.0  0.05202  0.72025  0.51198  1.0000
  C   C1320     1.0  0.38852  0.96900  0.55670  1.0000
  S   S185      1.0  0.97901  0.73188  0.62291  1.0000
  H   H1038     1.0  0.15505  0.85989  0.72961  1.0000
  H   H1039     1.0  0.43588  0.52070  0.49887  1.0000
  H   H1040     1.0  0.19497  0.91936  0.68575  1.0000
  H   H1041     1.0  0.08193  0.50129  0.49001  1.0000
  C   C1321     1.0  0.29120  0.49701  0.50143  1.0000
  C   C1322     1.0  0.11016  0.81905  0.71868  1.0000
  C   C1323     1.0  0.09085  0.79216  0.66391  1.0000
  C   C1324     1.0  0.13953  0.94593  0.70886  1.0000
  H   H1042     1.0  0.09309  0.82050  0.50709  1.0000
  C   C1325     1.0  0.11409  0.79692  0.71745  1.0000
  C   C1326     1.0  0.42683  0.97052  0.49851  1.0000
  C   C1327     1.0  0.11619  0.82362  0.68458  1.0000
  C   C1328     1.0  0.30819  0.54999  0.49669  1.0000
  H   H1043     1.0  0.05934  0.69541  0.48850  1.0000
  C   C1329     1.0  0.15742  0.94037  0.71695  1.0000
  C   C1330     1.0  0.29986  0.51472  0.51421  1.0000
  H   H1044     1.0  0.10228  0.94552  0.70941  1.0000
  C   C1331     1.0  0.37648  0.92701  0.62182  1.0000
  C   C1332     1.0  0.02100  0.71096  0.49469  1.0000
  H   H1045     1.0  0.08705  0.77855  0.49585  1.0000
  C   C1333     1.0  0.47586  0.95866  0.48787  1.0000
  H   H1046     1.0  0.07218  0.77865  0.65869  1.0000
  C   C1334     1.0  0.07444  0.80696  0.50183  1.0000
  H   H1047     1.0  0.23316  0.97362  0.71691  1.0000
  C   C1335     1.0  0.11366  0.79590  0.65665  1.0000
  C   C1336     1.0  0.36684  0.92192  0.60631  1.0000
  H   H1048     1.0  0.02794  0.82882  0.70660  1.0000
  C   C1337     1.0  0.15155  0.92904  0.73167  1.0000
  C   C1338     1.0  0.16140  0.88551  0.69332  1.0000
  H   H1049     1.0  0.12144  0.79255  0.70681  1.0000
  C   C1339     1.0  0.03144  0.70889  0.50927  1.0000
  C   C1340     1.0  0.00476  0.75734  0.72309  1.0000
  H   H1050     1.0  0.11259  0.78547  0.64575  1.0000
  H   H1051     1.0  0.21886  0.92703  0.71140  1.0000
  C   C1341     1.0  0.11000  0.92955  0.73036  1.0000
  H   H1052     1.0  0.44117  0.94984  0.51350  1.0000
  H   H1053     1.0  0.29977  0.50786  0.52598  1.0000
  H   H1054     1.0  0.40389  0.96335  0.55714  1.0000
  H   H1055     1.0  0.31517  0.55492  0.52176  1.0000
  H   H1056     1.0  0.40305  0.53646  0.50074  1.0000
  H   H1057     1.0  0.33855  0.96306  0.53254  1.0000
  C   C1342     1.0  0.99405  0.69687  0.49177  1.0000
  C   C1343     1.0  0.40490  0.97177  0.61555  1.0000
  C   C1344     1.0  0.02601  0.77157  0.48885  1.0000
  H   H1058     1.0  0.98482  0.80065  0.72772  1.0000
  C   C1345     1.0  0.10064  0.82413  0.73265  1.0000
  H   H1059     1.0  0.00508  0.56955  0.52868  1.0000
  H   H1060     1.0  0.02368  0.51247  0.50788  1.0000
  C   C1346     1.0  0.98948  0.49698  0.52224  1.0000
  C   C1347     1.0  0.00103  0.54939  0.52708  1.0000
  H   H1061     1.0  0.11027  0.76237  0.72873  1.0000
  C   C1348     1.0  0.41866  0.51202  0.49126  1.0000
  C   C1349     1.0  0.98037  0.61812  0.50439  1.0000
  H   H1062     1.0  0.05639  0.83137  0.50703  1.0000
  C   C1350     1.0  0.22848  0.98061  0.72763  1.0000
  C   C1351     1.0  0.38548  0.98348  0.56918  1.0000
  H   H1063     1.0  0.07897  0.87871  0.73471  1.0000
  Fe  Fe94      1.0  0.98296  0.75254  0.64703  1.0000
  C   C1352     1.0  0.10788  0.77981  0.72990  1.0000
  H   H1064     1.0  0.44426  0.97320  0.59618  1.0000
  C   C1353     1.0  0.07099  0.78320  0.49531  1.0000
  C   C1354     1.0  0.97801  0.68026  0.50305  1.0000
  H   H1065     1.0  0.01335  0.79986  0.49563  1.0000
  H   H1066     1.0  0.97864  0.61245  0.51651  1.0000
  H   H1067     1.0  0.11826  0.54513  0.49662  1.0000
  H   H1068     1.0  0.47722  0.97190  0.49730  1.0000
  C   C1355     1.0  0.97799  0.74132  0.72388  1.0000
  H   H1069     1.0  0.01372  0.74834  0.88745  1.0000
  C   C1356     1.0  0.24413  0.92804  0.89930  1.0000
  C   C1357     1.0  0.98290  0.55231  0.93703  1.0000
  C   C1358     1.0  0.34397  0.95487  0.87202  1.0000
  C   C1359     1.0  0.04589  0.53920  0.98247  1.0000
  Fe  Fe95      1.0  0.02184  0.79685  0.81637  1.0000
  S   S186      1.0  0.06607  0.82280  0.81883  1.0000
  S   S187      1.0  0.00717  0.75332  0.81254  1.0000
  Fe  Fe96      1.0  0.17742  0.97313  0.81807  1.0000
  S   S188      1.0  0.20648  0.95789  0.81737  1.0000
  S   S189      1.0  0.13348  0.94692  0.81962  1.0000
  H   H1070     1.0  0.99248  0.59267  0.94064  1.0000
  H   H1071     1.0  0.07036  0.88023  0.84837  1.0000
  H   H1072     1.0  0.16617  0.92580  0.73791  1.0000
  H   H1073     1.0  0.06672  0.77867  0.92765  1.0000
  C   C1360     1.0  0.37529  0.94682  0.92526  1.0000
  S   S190      1.0  0.99600  0.80002  0.79736  1.0000
  S   S191      1.0  0.23419  0.97180  0.77475  1.0000
  H   H1074     1.0  0.12273  0.62341  0.96247  1.0000
  P   P46       1.0  0.12079  0.91148  0.75815  1.0000
  C   C1361     1.0  0.07229  0.87147  0.85910  1.0000
  C   C1362     1.0  0.08448  0.85728  0.81781  1.0000
  C   C1363     1.0  0.07267  0.87354  0.81688  1.0000
  C   C1364     1.0  0.08802  0.90085  0.81724  1.0000
  C   C1365     1.0  0.11535  0.91232  0.81818  1.0000
  C   C1366     1.0  0.12721  0.89603  0.81851  1.0000
  C   C1367     1.0  0.11184  0.86871  0.81840  1.0000
  H   H1075     1.0  0.05169  0.86511  0.81632  1.0000
  H   H1076     1.0  0.07860  0.91319  0.81695  1.0000
  H   H1077     1.0  0.14819  0.90448  0.81909  1.0000
  H   H1078     1.0  0.12121  0.85633  0.81890  1.0000
  H   H1079     1.0  0.06332  0.78691  0.89956  1.0000
  C   C1368     1.0  0.00741  0.76154  0.75186  1.0000
  H   H1080     1.0  0.01894  0.76907  0.76259  1.0000
  H   H1081     1.0  0.05695  0.83569  0.78606  1.0000
  H   H1082     1.0  0.04013  0.77964  0.73665  1.0000
  H   H1083     1.0  0.09460  0.79889  0.86865  1.0000
  H   H1084     1.0  0.03654  0.83663  0.85492  1.0000
  H   H1085     1.0  0.08420  0.58096  0.96450  1.0000
  H   H1086     1.0  0.05032  0.80254  0.85060  1.0000
  H   H1087     1.0  0.10892  0.90388  0.86588  1.0000
  C   C1369     1.0  0.99823  0.80128  0.87812  1.0000
  C   C1370     1.0  0.14612  0.88102  0.75952  1.0000
  H   H1088     1.0  0.37806  0.88944  0.92618  1.0000
  H   H1089     1.0  0.34923  0.90451  0.97268  1.0000
  C   C1371     1.0  0.19823  0.88658  0.81923  1.0000
  H   H1090     1.0  0.16544  0.85693  0.76010  1.0000
  H   H1091     1.0  0.01715  0.71411  0.87174  1.0000
  H   H1092     1.0  0.32574  0.94222  0.93120  1.0000
  Fe  Fe97      1.0  0.97982  0.75664  0.79455  1.0000
  C   C1372     1.0  0.01138  0.64722  0.97953  1.0000
  C   C1373     1.0  0.38739  0.93426  0.97992  1.0000
  C   C1374     1.0  0.18424  0.89046  0.77569  1.0000
  C   C1375     1.0  0.22313  0.90696  0.81723  1.0000
  P   P47       1.0  0.35567  0.96931  0.90363  1.0000
  C   C1376     1.0  0.17405  0.92054  0.86916  1.0000
  H   H1093     1.0  0.02052  0.59899  0.96402  1.0000
  C   C1377     1.0  0.10644  0.62182  0.96924  1.0000
  C   C1378     1.0  0.04366  0.78367  0.85565  1.0000
  C   C1379     1.0  0.05305  0.78545  0.92374  1.0000
  C   C1380     1.0  0.01737  0.80246  0.91368  1.0000
  C   C1381     1.0  0.32890  0.94942  0.85815  1.0000
  C   C1382     1.0  0.30457  0.94888  0.85832  1.0000
  C   C1383     1.0  0.16525  0.87440  0.76469  1.0000
  H   H1094     1.0  0.05404  0.76834  0.83529  1.0000
  H   H1095     1.0  0.03716  0.72378  0.84562  1.0000
  H   H1096     1.0  0.36320  0.95614  0.87160  1.0000
  C   C1384     1.0  0.31021  0.95901  0.88628  1.0000
  H   H1097     1.0  0.08542  0.91446  0.78206  1.0000
  C   C1385     1.0  0.09065  0.88168  0.75936  1.0000
  H   H1098     1.0  0.17111  0.85133  0.88627  1.0000
  C   C1386     1.0  0.18375  0.91281  0.78171  1.0000
  C   C1387     1.0  0.23639  0.92391  0.82986  1.0000
  C   C1388     1.0  0.03297  0.79836  0.90268  1.0000
  P   P48       1.0  0.03000  0.80368  0.88208  1.0000
  C   C1389     1.0  0.18655  0.88317  0.83382  1.0000
  C   C1390     1.0  0.11275  0.83613  0.85775  1.0000
  C   C1391     1.0  0.04531  0.83417  0.76177  1.0000
  C   C1392     1.0  0.32760  0.96168  0.93119  1.0000
  C   C1393     1.0  0.12034  0.93802  0.76937  1.0000
  C   C1394     1.0  0.05309  0.84678  0.86293  1.0000
  C   C1395     1.0  0.22382  0.92444  0.88884  1.0000
  H   H1099     1.0  0.15717  0.96191  0.84998  1.0000
  H   H1100     1.0  0.35481  0.88321  0.90051  1.0000
  H   H1101     1.0  0.07955  0.84085  0.89775  1.0000
  H   H1102     1.0  0.34465  0.91724  0.89060  1.0000
  C   C1396     1.0  0.03268  0.77851  0.87054  1.0000
  C   C1397     1.0  0.07718  0.84905  0.88692  1.0000
  H   H1103     1.0  0.08669  0.81089  0.75573  1.0000
  H   H1104     1.0  0.97846  0.75914  0.87755  1.0000
  C   C1398     1.0  0.11175  0.81761  0.86836  1.0000
  C   C1399     1.0  0.05100  0.79004  0.90784  1.0000
  C   C1400     1.0  0.16462  0.91951  0.77657  1.0000
  H   H1105     1.0  0.24840  0.87255  0.89085  1.0000
  P   P49       1.0  0.18539  0.89670  0.86567  1.0000
  C   C1401     1.0  0.19961  0.90038  0.84653  1.0000
  C   C1402     1.0  0.23241  0.97189  0.74233  1.0000
  C   C1403     1.0  0.13488  0.86023  0.85733  1.0000
  H   H1106     1.0  0.29317  0.94540  0.84752  1.0000
  C   C1404     1.0  0.17028  0.93415  0.85674  1.0000
  C   C1405     1.0  0.21133  0.90146  0.87953  1.0000
  C   C1406     1.0  0.15696  0.94162  0.88715  1.0000
  C   C1407     1.0  0.14577  0.90368  0.76529  1.0000
  H   H1107     1.0  0.16015  0.58053  0.98501  1.0000
  H   H1108     1.0  0.16486  0.93708  0.78134  1.0000
  H   H1109     1.0  0.03906  0.83740  0.73715  1.0000
  H   H1110     1.0  0.19945  0.88576  0.77949  1.0000
  C   C1408     1.0  0.25274  0.90917  0.90020  1.0000
  C   C1409     1.0  0.15377  0.95549  0.87478  1.0000
  H   H1111     1.0  0.13193  0.80903  0.88698  1.0000
  H   H1112     1.0  0.23517  0.93410  0.85400  1.0000
  H   H1113     1.0  0.09639  0.83196  0.84981  1.0000
  H   H1114     1.0  0.21849  0.93998  0.88780  1.0000
  H   H1115     1.0  0.25542  0.94016  0.82824  1.0000
  C   C1410     1.0  0.98590  0.53137  0.94271  1.0000
  C   C1411     1.0  0.15669  0.86568  0.86705  1.0000
  C   C1412     1.0  0.05528  0.83537  0.87693  1.0000
  H   H1116     1.0  0.02644  0.66226  0.97295  1.0000
  C   C1413     1.0  0.13968  0.96357  0.76705  1.0000
  H   H1117     1.0  0.05056  0.53632  0.95742  1.0000
  C   C1414     1.0  0.16019  0.95155  0.85960  1.0000
  H   H1118     1.0  0.26865  0.91213  0.90821  1.0000
  C   C1415     1.0  0.06172  0.84534  0.77491  1.0000
  C   C1416     1.0  0.31726  0.96974  0.94361  1.0000
  C   C1417     1.0  0.13286  0.82331  0.87863  1.0000
  H   H1119     1.0  0.21253  0.86602  0.87231  1.0000
  H   H1120     1.0  0.14610  0.96913  0.87688  1.0000
  C   C1418     1.0  0.02508  0.73369  0.86739  1.0000
  C   C1419     1.0  0.02319  0.75324  0.87628  1.0000
  C   C1420     1.0  0.15524  0.84730  0.87805  1.0000
  H   H1121     1.0  0.19865  0.92535  0.79010  1.0000
  H   H1122     1.0  0.13508  0.87454  0.84924  1.0000
  H   H1123     1.0  0.16744  0.86705  0.83496  1.0000
  H   H1124     1.0  0.01089  0.84287  0.87917  1.0000
  C   C1421     1.0  0.16672  0.92394  0.88432  1.0000
  H   H1125     1.0  0.06611  0.50331  0.95955  1.0000
  C   C1422     1.0  0.08436  0.86889  0.77371  1.0000
  C   C1423     1.0  0.98072  0.74490  0.75264  1.0000
  H   H1126     1.0  0.38902  0.94589  0.96984  1.0000
  C   C1424     1.0  0.36571  0.50235  0.98430  1.0000
  H   H1127     1.0  0.30296  0.96359  0.89687  1.0000
  H   H1128     1.0  0.09702  0.87713  0.78401  1.0000
  C   C1425     1.0  0.98722  0.63086  0.97200  1.0000
  H   H1129     1.0  0.11330  0.88405  0.89067  1.0000
  C   C1426     1.0  0.09643  0.87369  0.88297  1.0000
  C   C1427     1.0  0.03727  0.78931  0.93460  1.0000
  C   C1428     1.0  0.04570  0.76414  0.84684  1.0000
  C   C1429     1.0  0.08449  0.59769  0.97048  1.0000
  H   H1130     1.0  0.23202  0.90995  0.80586  1.0000
  H   H1131     1.0  0.13159  0.86857  0.75096  1.0000
  C   C1430     1.0  0.10036  0.95480  0.78819  1.0000
  C   C1431     1.0  0.03629  0.73912  0.85266  1.0000
  C   C1432     1.0  0.09807  0.78486  0.74370  1.0000
  H   H1132     1.0  0.39122  0.93014  0.94199  1.0000
  H   H1133     1.0  0.15177  0.94452  0.89891  1.0000
  C   C1433     1.0  0.09398  0.88489  0.86906  1.0000
  H   H1134     1.0  0.34991  0.50702  0.98203  1.0000
  C   C1434     1.0  0.33467  0.95951  0.88623  1.0000
  H   H1135     1.0  0.16872  0.91301  0.89397  1.0000
  H   H1136     1.0  0.00223  0.51780  0.96085  1.0000
  C   C1435     1.0  0.38099  0.92740  0.93080  1.0000
  C   C1436     1.0  0.37362  0.90449  0.92188  1.0000
  C   C1437     1.0  0.36053  0.90101  0.90741  1.0000
  C   C1438     1.0  0.35489  0.92047  0.90179  1.0000
  C   C1439     1.0  0.36236  0.94362  0.91064  1.0000
  C   C1440     1.0  0.09463  0.80714  0.74512  1.0000
  C   C1441     1.0  0.11975  0.98011  0.78590  1.0000
  H   H1137     1.0  0.08561  0.95136  0.79676  1.0000
  C   C1442     1.0  0.24129  0.88687  0.89044  1.0000
  C   C1443     1.0  0.22469  0.92063  0.84442  1.0000
  C   C1444     1.0  0.01484  0.55923  0.96370  1.0000
  H   H1138     1.0  0.18783  0.87350  0.80944  1.0000
  H   H1139     1.0  0.02777  0.81592  0.76274  1.0000
  C   C1445     1.0  0.00129  0.53460  0.95621  1.0000
  H   H1140     1.0  0.17487  0.93126  0.84484  1.0000
  C   C1446     1.0  0.22084  0.88313  0.88004  1.0000
  C   C1447     1.0  0.06137  0.51091  0.97004  1.0000
  C   C1448     1.0  0.07424  0.87008  0.74611  1.0000
  H   H1141     1.0  0.47207  0.97188  0.96787  1.0000
  S   S192      1.0  0.99361  0.79121  0.83555  1.0000
  H   H1142     1.0  0.03872  0.78554  0.94691  1.0000
  H   H1143     1.0  0.38107  0.96447  0.93234  1.0000
  C   C1449     1.0  0.29524  0.95366  0.87237  1.0000
  H   H1144     1.0  0.00343  0.80901  0.91002  1.0000
  C   C1450     1.0  0.22742  0.98175  0.75639  1.0000
  C   C1451     1.0  0.06449  0.50223  0.98473  1.0000
  C   C1452     1.0  0.10056  0.93380  0.77994  1.0000
  H   H1145     1.0  0.09279  0.77132  0.75321  1.0000
  H   H1146     1.0  0.30819  0.95687  0.95321  1.0000
  C   C1453     1.0  0.06336  0.59537  0.97936  1.0000
  C   C1454     1.0  0.05235  0.52948  0.96890  1.0000
  C   C1455     1.0  0.10736  0.64392  0.97668  1.0000
  H   H1147     1.0  0.35767  0.96316  0.97226  1.0000
  H   H1148     1.0  0.25356  0.94575  0.90649  1.0000
  C   C1456     1.0  0.05163  0.84644  0.74737  1.0000
  C   C1457     1.0  0.34062  0.97886  0.91917  1.0000
  C   C1458     1.0  0.36480  0.91073  0.98145  1.0000
  C   C1459     1.0  0.01951  0.79790  0.92958  1.0000
  C   C1460     1.0  0.01135  0.58009  0.95806  1.0000
  H   H1149     1.0  0.15527  0.96732  0.75904  1.0000
  H   H1150     1.0  0.98384  0.63340  0.95978  1.0000
  P   P50       1.0  0.03514  0.56400  0.98104  1.0000
  C   C1461     1.0  0.99468  0.82367  0.87740  1.0000
  H   H1151     1.0  0.27674  0.95406  0.87233  1.0000
  C   C1462     1.0  0.01939  0.76746  0.73716  1.0000
  H   H1152     1.0  0.23992  0.95794  0.74285  1.0000
  C   C1463     1.0  0.12756  0.92315  0.73839  1.0000
  C   C1464     1.0  0.38590  0.50950  0.97373  1.0000
  H   H1153     1.0  0.38576  0.51974  0.96324  1.0000
  H   H1154     1.0  0.12429  0.66265  0.97566  1.0000
  H   H1155     1.0  0.42201  0.50944  0.96853  1.0000
  C   C1465     1.0  0.35688  0.97926  0.97837  1.0000
  H   H1156     1.0  0.33637  0.94629  0.84718  1.0000
  C   C1466     1.0  0.99541  0.57659  0.94480  1.0000
  H   H1157     1.0  0.00724  0.80083  0.93800  1.0000
  C   C1467     1.0  0.46125  0.98064  0.96229  1.0000
  H   H1158     1.0  0.07153  0.48787  0.98570  1.0000
  C   C1468     1.0  0.44187  0.98370  0.97035  1.0000
  C   C1469     1.0  0.40637  0.50359  0.97674  1.0000
  H   H1159     1.0  0.97909  0.54428  0.98608  1.0000
  C   C1470     1.0  0.08628  0.64191  0.98528  1.0000
  C   C1471     1.0  0.13925  0.98451  0.77522  1.0000
  H   H1160     1.0  0.11210  0.56123  0.98602  1.0000
  H   H1161     1.0  0.97868  0.68354  0.84715  1.0000
  Fe  Fe98      1.0  0.94626  0.20165  0.15915  1.0000
  S   S193      1.0  0.95997  0.24512  0.16066  1.0000
  S   S194      1.0  0.90208  0.17532  0.15930  1.0000
  H   H1162     1.0  0.88635  0.15435  0.19286  1.0000
  C   C1472     1.0  0.75294  0.07997  0.98765  1.0000
  H   H1163     1.0  0.93766  0.29832  0.03172  1.0000
  H   H1164     1.0  0.91468  0.19303  0.20948  1.0000
  C   C1473     1.0  0.71647  0.05947  0.17401  1.0000
  Fe  Fe99      1.0  0.79317  0.02379  0.15912  1.0000
  S   S195      1.0  0.75994  0.03361  0.15881  1.0000
  S   S196      1.0  0.83554  0.05113  0.15323  1.0000
  Fe  Fe100     1.0  0.74966  0.01268  0.18191  1.0000
  S   S197      1.0  0.74244  0.03017  0.20436  1.0000
  H   H1165     1.0  0.50530  0.12316  0.98708  1.0000
  S   S198      1.0  0.78391  0.00472  0.18259  1.0000
  H   H1166     1.0  0.81826  0.11821  0.13272  1.0000
  H   H1167     1.0  0.94273  0.34126  0.00467  1.0000
  H   H1168     1.0  0.76325  0.09617  0.02674  1.0000
  H   H1169     1.0  0.82984  0.14053  0.20247  1.0000
  C   C1474     1.0  0.74129  0.01604  0.22290  1.0000
  C   C1475     1.0  0.69124  0.01674  0.16192  1.0000
  C   C1476     1.0  0.88428  0.14066  0.15827  1.0000
  C   C1477     1.0  0.85718  0.12874  0.16017  1.0000
  C   C1478     1.0  0.84213  0.10141  0.15901  1.0000
  C   C1479     1.0  0.85392  0.08558  0.15587  1.0000
  C   C1480     1.0  0.88104  0.09748  0.15409  1.0000
  C   C1481     1.0  0.89617  0.12482  0.15537  1.0000
  H   H1170     1.0  0.84773  0.14074  0.16239  1.0000
  H   H1171     1.0  0.82127  0.09253  0.16006  1.0000
  H   H1172     1.0  0.89040  0.08548  0.15157  1.0000
  H   H1173     1.0  0.91695  0.13361  0.15387  1.0000
  C   C1482     1.0  0.82564  0.12205  0.20757  1.0000
  H   H1174     1.0  0.77349  0.11272  0.13376  1.0000
  H   H1175     1.0  0.69611  0.02441  0.18691  1.0000
  H   H1176     1.0  0.74781  0.11247  0.10624  1.0000
  C   C1483     1.0  0.81050  0.07569  0.20455  1.0000
  C   C1484     1.0  0.95982  0.34821  0.99760  1.0000
  C   C1485     1.0  0.92579  0.39051  0.98706  1.0000
  C   C1486     1.0  0.70986  0.04408  0.09645  1.0000
  P   P51       1.0  0.72253  0.06796  0.12643  1.0000
  C   C1487     1.0  0.94446  0.33456  0.04266  1.0000
  H   H1177     1.0  0.90540  0.35074  0.99421  1.0000
  H   H1178     1.0  0.95488  0.26343  0.09040  1.0000
  C   C1488     1.0  0.77516  0.05831  0.00044  1.0000
  H   H1179     1.0  0.66586  0.03706  0.12440  1.0000
  H   H1180     1.0  0.51796  0.00915  0.02206  1.0000
  C   C1489     1.0  0.94139  0.31985  0.10964  1.0000
  P   P52       1.0  0.93713  0.30948  0.14169  1.0000
  C   C1490     1.0  0.92658  0.27551  0.13658  1.0000
  S   S199      1.0  0.97383  0.20567  0.13984  1.0000
  H   H1181     1.0  0.57476  0.05210  0.04141  1.0000
  C   C1491     1.0  0.73951  0.99122  0.22411  1.0000
  C   C1492     1.0  0.96402  0.33739  0.16896  1.0000
  S   S200      1.0  0.97356  0.20256  0.17855  1.0000
  C   C1493     1.0  0.93651  0.24803  0.99318  1.0000
  C   C1494     1.0  0.94067  0.26851  0.12591  1.0000
  C   C1495     1.0  0.93345  0.24229  0.12256  1.0000
  C   C1496     1.0  0.91215  0.22283  0.12982  1.0000
  C   C1497     1.0  0.89795  0.22955  0.14038  1.0000
  C   C1498     1.0  0.90506  0.25574  0.14376  1.0000
  C   C1499     1.0  0.90999  0.31389  0.14847  1.0000
  C   C1500     1.0  0.90082  0.30664  0.16368  1.0000
  C   C1501     1.0  0.88001  0.31024  0.16905  1.0000
  C   C1502     1.0  0.86818  0.32109  0.15929  1.0000
  C   C1503     1.0  0.87712  0.32828  0.14413  1.0000
  C   C1504     1.0  0.89793  0.32469  0.13871  1.0000
  C   C1505     1.0  0.69769  0.02740  0.14707  1.0000
  H   H1182     1.0  0.95134  0.19360  0.22505  1.0000
  H   H1183     1.0  0.69129  0.01455  0.13682  1.0000
  H   H1184     1.0  0.83593  0.13812  0.23099  1.0000
  H   H1185     1.0  0.92584  0.30029  0.10769  1.0000
  C   C1506     1.0  0.96181  0.24540  0.22085  1.0000
  Fe  Fe101     1.0  0.73548  0.99385  0.14698  1.0000
  C   C1507     1.0  0.57077  0.05638  0.02963  1.0000
  H   H1186     1.0  0.48127  0.01246  0.00913  1.0000
  H   H1187     1.0  0.53204  0.43049  0.00017  1.0000
  C   C1508     1.0  0.96678  0.27538  0.01981  1.0000
  H   H1188     1.0  0.94502  0.23704  0.11483  1.0000
  H   H1189     1.0  0.90714  0.20251  0.12770  1.0000
  H   H1190     1.0  0.88197  0.21434  0.14638  1.0000
  H   H1191     1.0  0.89404  0.26026  0.15224  1.0000
  H   H1192     1.0  0.90979  0.29820  0.17141  1.0000
  H   H1193     1.0  0.87310  0.30465  0.18081  1.0000
  H   H1194     1.0  0.85210  0.32394  0.16348  1.0000
  H   H1195     1.0  0.86797  0.33673  0.13657  1.0000
  H   H1196     1.0  0.93002  0.21338  0.00534  1.0000
  H   H1197     1.0  0.74465  0.15341  0.10397  1.0000
  C   C1509     1.0  0.92743  0.13293  0.20817  1.0000
  C   C1510     1.0  0.71662  0.14428  0.12214  1.0000
  H   H1198     1.0  0.59785  0.04537  0.01888  1.0000
  H   H1199     1.0  0.94979  0.23829  0.21027  1.0000
  C   C1511     1.0  0.95446  0.24803  0.01911  1.0000
  C   C1512     1.0  0.59475  0.00271  0.99062  1.0000
  H   H1200     1.0  0.71514  0.16217  0.12104  1.0000
  C   C1513     1.0  0.48232  0.99436  0.00812  1.0000
  S   S201      1.0  0.76982  0.98549  0.14585  1.0000
  H   H1201     1.0  0.92946  0.46044  0.00010  1.0000
  C   C1514     1.0  0.94410  0.15512  0.21722  1.0000
  C   C1515     1.0  0.81433  0.07416  0.22066  1.0000
  H   H1202     1.0  0.80262  0.05819  0.19715  1.0000
  C   C1516     1.0  0.50326  0.99265  0.01546  1.0000
  H   H1203     1.0  0.54230  0.06823  0.03686  1.0000
  H   H1204     1.0  0.74433  0.10516  0.00294  1.0000
  C   C1517     1.0  0.57176  0.47457  0.02783  1.0000
  H   H1205     1.0  0.97547  0.47942  0.00306  1.0000
  C   C1518     1.0  0.96191  0.31921  0.15714  1.0000
  H   H1206     1.0  0.95153  0.34666  0.16872  1.0000
  H   H1207     1.0  0.94520  0.32783  0.08490  1.0000
  C   C1519     1.0  0.77471  0.07013  0.01481  1.0000
  C   C1520     1.0  0.95205  0.33546  0.09671  1.0000
  H   H1208     1.0  0.54728  0.43307  0.02768  1.0000
  C   C1521     1.0  0.70053  0.03278  0.17538  1.0000
  H   H1209     1.0  0.49738  0.45137  0.99663  1.0000
  C   C1522     1.0  0.73512  0.11623  0.11391  1.0000
  C   C1523     1.0  0.69258  0.02808  0.08460  1.0000
  C   C1524     1.0  0.70054  0.04703  0.11107  1.0000
  C   C1525     1.0  0.66589  0.01530  0.08715  1.0000
  C   C1526     1.0  0.82931  0.12060  0.22370  1.0000
  C   C1527     1.0  0.55421  0.45061  0.02095  1.0000
  H   H1210     1.0  0.54258  0.11386  0.99072  1.0000
  C   C1528     1.0  0.70164  0.12597  0.13302  1.0000
  C   C1529     1.0  0.90214  0.15438  0.19988  1.0000
  H   H1211     1.0  0.69987  0.02529  0.07348  1.0000
  C   C1530     1.0  0.93911  0.17660  0.21786  1.0000
  H   H1212     1.0  0.82605  0.08129  0.12428  1.0000
  C   C1531     1.0  0.80200  0.09996  0.12883  1.0000
  H   H1213     1.0  0.89419  0.11581  0.19211  1.0000
  H   H1214     1.0  0.74424  0.03359  0.11641  1.0000
  C   C1532     1.0  0.96186  0.35657  0.05138  1.0000
  C   C1533     1.0  0.75549  0.07301  0.12446  1.0000
  H   H1215     1.0  0.95638  0.37143  0.05483  1.0000
  H   H1216     1.0  0.68847  0.12962  0.14033  1.0000
  H   H1217     1.0  0.73042  0.05397  0.09418  1.0000
  C   C1534     1.0  0.54546  0.44924  0.00538  1.0000
  H   H1218     1.0  0.78894  0.03902  0.11622  1.0000
  C   C1535     1.0  0.65641  0.01862  0.10151  1.0000
  H   H1219     1.0  0.63572  0.00825  0.10352  1.0000
  C   C1536     1.0  0.90389  0.36631  0.98815  1.0000
  H   H1220     1.0  0.65250  0.00242  0.07812  1.0000
  H   H1221     1.0  0.81255  0.10050  0.18562  1.0000
  H   H1222     1.0  0.92540  0.33230  0.03931  1.0000
  C   C1537     1.0  0.95164  0.31546  0.03820  1.0000
  H   H1223     1.0  0.49075  0.01249  0.05141  1.0000
  C   C1538     1.0  0.72274  0.07022  0.15915  1.0000
  H   H1224     1.0  0.74229  0.04872  0.23589  1.0000
  C   C1539     1.0  0.80646  0.07920  0.12401  1.0000
  C   C1540     1.0  0.76020  0.05233  0.11963  1.0000
  C   C1541     1.0  0.81608  0.09956  0.19802  1.0000
  C   C1542     1.0  0.57876  0.05814  0.00179  1.0000
  C   C1543     1.0  0.55247  0.06542  0.02705  1.0000
  C   C1544     1.0  0.72057  0.09803  0.12506  1.0000
  C   C1545     1.0  0.55401  0.47192  0.99667  1.0000
  H   H1225     1.0  0.72454  0.07159  0.18452  1.0000
  C   C1546     1.0  0.77660  0.09680  0.12928  1.0000
  H   H1226     1.0  0.78375  0.04520  0.99984  1.0000
  C   C1547     1.0  0.67360  0.03466  0.11337  1.0000
  C   C1548     1.0  0.95103  0.32940  0.12492  1.0000
  C   C1549     1.0  0.70344  0.10282  0.13442  1.0000
  C   C1550     1.0  0.73327  0.13936  0.11254  1.0000
  H   H1227     1.0  0.58905  0.05514  0.99207  1.0000
  C   C1551     1.0  0.90666  0.13268  0.19942  1.0000
  H   H1228     1.0  0.95780  0.28329  0.12057  1.0000
  C   C1552     1.0  0.76360  0.08700  0.01561  1.0000
  H   H1229     1.0  0.60913  0.45713  0.99954  1.0000
  C   C1553     1.0  0.71289  0.05430  0.14555  1.0000
  C   C1554     1.0  0.91823  0.17624  0.20918  1.0000
  C   C1555     1.0  0.54710  0.07062  0.01180  1.0000
  C   C1556     1.0  0.97183  0.36091  0.09898  1.0000
  H   H1230     1.0  0.53248  0.07704  0.01006  1.0000
  H   H1231     1.0  0.69131  0.08863  0.14270  1.0000
  C   C1557     1.0  0.78555  0.05538  0.11944  1.0000
  C   C1558     1.0  0.58385  0.05267  0.01699  1.0000
  H   H1232     1.0  0.78294  0.06618  0.02532  1.0000
  H   H1233     1.0  0.73568  0.09081  0.15827  1.0000
  C   C1559     1.0  0.56039  0.06719  0.99906  1.0000
  C   C1560     1.0  0.62465  0.47108  0.99263  1.0000
  C   C1561     1.0  0.75280  0.09199  0.00208  1.0000
  H   H1234     1.0  0.93062  0.11592  0.20770  1.0000
  H   H1235     1.0  0.80924  0.05529  0.22537  1.0000
  H   H1236     1.0  0.67969  0.99592  0.16301  1.0000
  H   H1237     1.0  0.65437  0.07267  0.99052  1.0000
  H   H1238     1.0  0.90454  0.33044  0.12694  1.0000
  C   C1562     1.0  0.82401  0.09668  0.23038  1.0000
  H   H1239     1.0  0.96021  0.29010  0.06739  1.0000
  H   H1240     1.0  0.48344  0.99079  0.07687  1.0000
  H   H1241     1.0  0.60769  0.10604  0.98977  1.0000
  H   H1242     1.0  0.94377  0.39313  0.99254  1.0000
  H   H1243     1.0  0.57835  0.47563  0.03993  1.0000
  H   H1244     1.0  0.66518  0.11925  0.98999  1.0000
  H   H1245     1.0  0.58056  0.00987  0.99127  1.0000
  C   C1563     1.0  0.93063  0.47086  0.98946  1.0000
  H   H1246     1.0  0.48608  0.99176  0.14243  1.0000
  H   H1247     1.0  0.48849  0.03527  0.13907  1.0000
  C   C1564     1.0  0.97319  0.24205  0.08014  1.0000
  C   C1565     1.0  0.76439  0.06325  0.98689  1.0000
  C   C1566     1.0  0.67319  0.08680  0.98657  1.0000
  P   P53       1.0  0.97073  0.15525  0.22856  1.0000
  C   C1567     1.0  0.93948  0.23446  0.00581  1.0000
  C   C1568     1.0  0.95059  0.23899  0.23574  1.0000
  C   C1569     1.0  0.97056  0.35517  0.12709  1.0000
  C   C1570     1.0  0.94852  0.27517  0.99382  1.0000
  C   C1571     1.0  0.47863  0.02000  0.13020  1.0000
  H   H1248     1.0  0.97127  0.23080  0.09053  1.0000
  C   C1572     1.0  0.96713  0.27567  0.06695  1.0000
  H   H1249     1.0  0.95607  0.23702  0.02878  1.0000
  C   C1573     1.0  0.96387  0.26040  0.08006  1.0000
  C   C1574     1.0  0.96357  0.28875  0.00704  1.0000
  H   H1250     1.0  0.97231  0.30973  0.00736  1.0000
  C   C1575     1.0  0.97662  0.31860  0.04209  1.0000
  Fe  Fe102     1.0  0.96223  0.19115  0.31151  1.0000
  S   S202      1.0  0.94789  0.22113  0.31237  1.0000
  S   S203      1.0  0.93780  0.14700  0.31400  1.0000
  H   H1251     1.0  0.92968  0.07659  0.26065  1.0000
  C   C1576     1.0  0.63574  0.02501  0.42354  1.0000
  H   H1252     1.0  0.71341  0.13290  0.45944  1.0000
  H   H1253     1.0  0.64819  0.11713  0.46319  1.0000
  H   H1254     1.0  0.56852  0.06216  0.45314  1.0000
  Fe  Fe103     1.0  0.78729  0.03710  0.31586  1.0000
  S   S204      1.0  0.74407  0.02313  0.31165  1.0000
  S   S205      1.0  0.81383  0.08120  0.31618  1.0000
  C   C1577     1.0  0.74112  0.02962  0.23672  1.0000
  H   H1255     1.0  0.69056  0.09261  0.47453  1.0000
  C   C1578     1.0  0.84182  0.01410  0.34706  1.0000
  S   S206      1.0  0.78993  0.00885  0.29848  1.0000
  C   C1579     1.0  0.95428  0.35319  0.42549  1.0000
  H   H1256     1.0  0.58623  0.98649  0.39808  1.0000
  C   C1580     1.0  0.81384  0.02075  0.26029  1.0000
  C   C1581     1.0  0.62461  0.02116  0.47403  1.0000
  C   C1582     1.0  0.76947  0.07904  0.28284  1.0000
  H   H1257     1.0  0.62772  0.03800  0.46739  1.0000
  Fe  Fe104     1.0  0.74679  0.99353  0.29509  1.0000
  C   C1583     1.0  0.62692  0.09490  0.48268  1.0000
  C   C1584     1.0  0.90616  0.34211  0.39939  1.0000
  C   C1585     1.0  0.62328  0.03749  0.43142  1.0000
  C   C1586     1.0  0.90318  0.12898  0.31341  1.0000
  C   C1587     1.0  0.89137  0.10159  0.31299  1.0000
  C   C1588     1.0  0.86406  0.08660  0.31346  1.0000
  C   C1589     1.0  0.84822  0.09887  0.31448  1.0000
  C   C1590     1.0  0.86001  0.12623  0.31450  1.0000
  C   C1591     1.0  0.88726  0.14118  0.31384  1.0000
  H   H1258     1.0  0.90345  0.09192  0.31254  1.0000
  H   H1259     1.0  0.85528  0.06558  0.31332  1.0000
  H   H1260     1.0  0.84799  0.13597  0.31524  1.0000
  H   H1261     1.0  0.89602  0.16219  0.31415  1.0000
  H   H1262     1.0  0.63324  0.05187  0.44068  1.0000
  H   H1263     1.0  0.93716  0.40362  0.38555  1.0000
  S   S207      1.0  0.78072  0.01079  0.33625  1.0000
  C   C1592     1.0  0.55239  0.00506  0.45918  1.0000
  C   C1593     1.0  0.89646  0.38294  0.39003  1.0000
  H   H1264     1.0  0.57258  0.01178  0.46262  1.0000
  C   C1594     1.0  0.58428  0.01319  0.41531  1.0000
  C   C1595     1.0  0.69268  0.09141  0.46194  1.0000
  C   C1596     1.0  0.94816  0.11083  0.24673  1.0000
  C   C1597     1.0  0.60856  0.09039  0.45643  1.0000
  C   C1598     1.0  0.75666  0.09331  0.25925  1.0000
  H   H1265     1.0  0.96266  0.37978  0.36068  1.0000
  H   H1266     1.0  0.56438  0.00847  0.41214  1.0000
  H   H1267     1.0  0.87196  0.09004  0.26492  1.0000
  C   C1599     1.0  0.58477  0.07101  0.46146  1.0000
  C   C1600     1.0  0.93538  0.09716  0.25994  1.0000
  C   C1601     1.0  0.96769  0.35626  0.41147  1.0000
  H   H1268     1.0  0.76586  0.07257  0.29481  1.0000
  H   H1269     1.0  0.60645  0.99385  0.45441  1.0000
  H   H1270     1.0  0.66523  0.05214  0.39693  1.0000
  C   C1602     1.0  0.93630  0.13630  0.27108  1.0000
  H   H1271     1.0  0.83956  0.00764  0.27082  1.0000
  C   C1603     1.0  0.51140  0.00611  0.46193  1.0000
  C   C1604     1.0  0.79207  0.08184  0.27569  1.0000
  C   C1605     1.0  0.89547  0.17225  0.26939  1.0000
  C   C1606     1.0  0.96213  0.44326  0.45834  1.0000
  H   H1272     1.0  0.71285  0.02948  0.36916  1.0000
  C   C1607     1.0  0.70782  0.11230  0.43719  1.0000
  C   C1608     1.0  0.59656  0.00078  0.40739  1.0000
  C   C1609     1.0  0.83756  0.02428  0.26679  1.0000
  H   H1273     1.0  0.51568  0.48317  0.34532  1.0000
  P   P54       1.0  0.95921  0.36858  0.39419  1.0000
  H   H1274     1.0  0.80553  0.07720  0.28222  1.0000
  H   H1275     1.0  0.71764  0.12988  0.43060  1.0000
  C   C1610     1.0  0.94789  0.45046  0.46863  1.0000
  C   C1611     1.0  0.68886  0.04252  0.38175  1.0000
  C   C1612     1.0  0.89677  0.16127  0.25492  1.0000
  C   C1613     1.0  0.49711  0.41629  0.46628  1.0000
  C   C1614     1.0  0.70543  0.11404  0.45343  1.0000
  H   H1276     1.0  0.63116  0.99643  0.40534  1.0000
  P   P55       1.0  0.66934  0.03349  0.42803  1.0000
  C   C1615     1.0  0.81095  0.04222  0.25545  1.0000
  C   C1616     1.0  0.88089  0.33934  0.39962  1.0000
  H   H1277     1.0  0.70649  0.01430  0.41834  1.0000
  H   H1278     1.0  0.61065  0.09626  0.44432  1.0000
  C   C1617     1.0  0.70549  0.03124  0.38051  1.0000
  C   C1618     1.0  0.95782  0.32092  0.34987  1.0000
  C   C1619     1.0  0.87373  0.15957  0.27860  1.0000
  C   C1620     1.0  0.85319  0.13588  0.27338  1.0000
  H   H1279     1.0  0.69919  0.08703  0.41687  1.0000
  H   H1280     1.0  0.87278  0.16820  0.28979  1.0000
  H   H1281     1.0  0.90956  0.32594  0.40274  1.0000
  C   C1621     1.0  0.75168  0.08462  0.27462  1.0000
  H   H1282     1.0  0.82564  0.99474  0.34774  1.0000
  H   H1283     1.0  0.95162  0.34223  0.44974  1.0000
  C   C1622     1.0  0.92176  0.38577  0.38980  1.0000
  C   C1623     1.0  0.71199  0.02142  0.39379  1.0000
  H   H1284     1.0  0.66802  0.98691  0.34283  1.0000
  H   H1285     1.0  0.51647  0.48129  0.46655  1.0000
  C   C1624     1.0  0.85569  0.07082  0.26336  1.0000
  C   C1625     1.0  0.59761  0.03148  0.42735  1.0000
  C   C1626     1.0  0.73615  0.99321  0.25272  1.0000
  C   C1627     1.0  0.86086  0.01901  0.33598  1.0000
  H   H1286     1.0  0.89263  0.39864  0.38623  1.0000
  H   H1287     1.0  0.96262  0.35442  0.33702  1.0000
  C   C1628     1.0  0.94912  0.15000  0.25795  1.0000
  C   C1629     1.0  0.92963  0.10997  0.27217  1.0000
  C   C1630     1.0  0.85846  0.04930  0.26835  1.0000
  H   H1288     1.0  0.91978  0.09958  0.28246  1.0000
  C   C1631     1.0  0.83187  0.06740  0.25682  1.0000
  C   C1632     1.0  0.58203  0.06315  0.47712  1.0000
  H   H1289     1.0  0.93138  0.14613  0.28040  1.0000
  C   C1633     1.0  0.67858  0.04387  0.39627  1.0000
  C   C1634     1.0  0.69583  0.99893  0.46025  1.0000
  C   C1635     1.0  0.68479  0.06508  0.43795  1.0000
  C   C1636     1.0  0.67177  0.00980  0.44056  1.0000
  H   H1290     1.0  0.83665  0.12649  0.28080  1.0000
  H   H1291     1.0  0.91352  0.17144  0.24774  1.0000
  C   C1637     1.0  0.92686  0.36555  0.39480  1.0000
  P   P56       1.0  0.82707  0.09496  0.25144  1.0000
  H   H1292     1.0  0.58803  0.04098  0.43352  1.0000
  H   H1293     1.0  0.95338  0.31553  0.38940  1.0000
  C   C1638     1.0  0.96051  0.34604  0.34850  1.0000
  H   H1294     1.0  0.96715  0.41534  0.41208  1.0000
  C   C1639     1.0  0.69396  0.01699  0.45032  1.0000
  H   H1295     1.0  0.95380  0.17035  0.25727  1.0000
  H   H1296     1.0  0.79741  0.00145  0.25927  1.0000
  C   C1640     1.0  0.79741  0.09087  0.26034  1.0000
  C   C1641     1.0  0.49714  0.43981  0.46287  1.0000
  H   H1297     1.0  0.73400  0.08207  0.28014  1.0000
  H   H1298     1.0  0.91130  0.19061  0.27350  1.0000
  H   H1299     1.0  0.85646  0.35760  0.39516  1.0000
  C   C1642     1.0  0.50078  0.98818  0.44932  1.0000
  H   H1300     1.0  0.96131  0.38461  0.47619  1.0000
  H   H1301     1.0  0.55149  0.08782  0.47738  1.0000
  H   H1302     1.0  0.85926  0.00343  0.32807  1.0000
  S   S208      1.0  0.95098  0.24069  0.26807  1.0000
  H   H1303     1.0  0.71267  0.00474  0.46803  1.0000
  C   C1643     1.0  0.87606  0.35979  0.39502  1.0000
  C   C1644     1.0  0.85421  0.12476  0.25879  1.0000
  H   H1304     1.0  0.48134  0.43975  0.45583  1.0000
  H   H1305     1.0  0.49933  0.01325  0.46759  1.0000
  C   C1645     1.0  0.96185  0.34446  0.43888  1.0000
  H   H1306     1.0  0.68340  0.04956  0.37135  1.0000
  H   H1307     1.0  0.95303  0.29055  0.36562  1.0000
  C   C1646     1.0  0.96073  0.36041  0.36194  1.0000
  H   H1308     1.0  0.93255  0.43572  0.47529  1.0000
  H   H1309     1.0  0.87796  0.12904  0.23855  1.0000
  H   H1310     1.0  0.86502  0.32126  0.40328  1.0000
  C   C1647     1.0  0.88167  0.04397  0.33505  1.0000
  C   C1648     1.0  0.87646  0.13739  0.24973  1.0000
  H   H1311     1.0  0.93832  0.35792  0.42623  1.0000
  C   C1649     1.0  0.84329  0.03416  0.35704  1.0000
  C   C1650     1.0  0.86385  0.05945  0.35598  1.0000
  C   C1651     1.0  0.88325  0.06412  0.34505  1.0000
  P   P57       1.0  0.86549  0.08501  0.36919  1.0000
  C   C1652     1.0  0.88496  0.11683  0.36131  1.0000
  C   C1653     1.0  0.83268  0.08004  0.37184  1.0000
  C   C1654     1.0  0.81539  0.07293  0.35883  1.0000
  C   C1655     1.0  0.78982  0.06865  0.36061  1.0000
  C   C1656     1.0  0.78129  0.07142  0.37543  1.0000
  C   C1657     1.0  0.79839  0.07856  0.38846  1.0000
  C   C1658     1.0  0.82404  0.08291  0.38670  1.0000
  C   C1659     1.0  0.91218  0.12734  0.36148  1.0000
  C   C1660     1.0  0.92752  0.15222  0.35586  1.0000
  C   C1661     1.0  0.91588  0.16703  0.35032  1.0000
  C   C1662     1.0  0.88886  0.15689  0.35030  1.0000
  C   C1663     1.0  0.87340  0.13179  0.35560  1.0000
  C   C1664     1.0  0.88013  0.08360  0.38779  1.0000
  C   C1665     1.0  0.88029  0.06054  0.39246  1.0000
  C   C1666     1.0  0.89171  0.05974  0.40691  1.0000
  C   C1667     1.0  0.90298  0.08190  0.41679  1.0000
  C   C1668     1.0  0.90281  0.10489  0.41225  1.0000
  C   C1669     1.0  0.89140  0.10576  0.39782  1.0000
  H   H1312     1.0  0.89639  0.04783  0.32641  1.0000
  C   C1670     1.0  0.51714  0.46328  0.46888  1.0000
  C   C1671     1.0  0.95552  0.32441  0.37810  1.0000
  H   H1313     1.0  0.82816  0.02992  0.36546  1.0000
  H   H1314     1.0  0.89931  0.08334  0.34390  1.0000
  H   H1315     1.0  0.82171  0.07064  0.34729  1.0000
  H   H1316     1.0  0.77667  0.06310  0.35044  1.0000
  H   H1317     1.0  0.76145  0.06803  0.37677  1.0000
  H   H1318     1.0  0.79172  0.08068  0.39994  1.0000
  H   H1319     1.0  0.83692  0.08837  0.39694  1.0000
  H   H1320     1.0  0.92155  0.11620  0.36579  1.0000
  C   C1672     1.0  0.73879  0.01840  0.25156  1.0000
  H   H1321     1.0  0.92780  0.18612  0.34569  1.0000
  H   H1322     1.0  0.87984  0.16817  0.34565  1.0000
  H   H1323     1.0  0.85251  0.12421  0.35503  1.0000
  H   H1324     1.0  0.87171  0.04315  0.38501  1.0000
  H   H1325     1.0  0.89185  0.04191  0.41042  1.0000
  H   H1326     1.0  0.91187  0.08125  0.42796  1.0000
  H   H1327     1.0  0.91155  0.12208  0.41991  1.0000
  H   H1328     1.0  0.89136  0.12371  0.39449  1.0000
  Fe  Fe105     1.0  0.73762  0.99473  0.33112  1.0000
  C   C1673     1.0  0.68243  0.06707  0.45426  1.0000
  H   H1329     1.0  0.87668  0.05208  0.27365  1.0000
  C   C1674     1.0  0.69741  0.08792  0.42945  1.0000
  C   C1675     1.0  0.95891  0.34995  0.37688  1.0000
  C   C1676     1.0  0.95565  0.13752  0.24583  1.0000
  C   C1677     1.0  0.53723  0.01441  0.46712  1.0000
  H   H1330     1.0  0.79225  0.03918  0.25081  1.0000
  C   C1678     1.0  0.62208  0.00646  0.41156  1.0000
  C   C1679     1.0  0.68478  0.03383  0.40968  1.0000
  C   C1680     1.0  0.70170  0.02267  0.40833  1.0000
  H   H1331     1.0  0.73808  0.02885  0.26204  1.0000
  C   C1681     1.0  0.51719  0.41625  0.47559  1.0000
  C   C1682     1.0  0.53736  0.43970  0.48149  1.0000
  C   C1683     1.0  0.61244  0.99614  0.46667  1.0000
  Fe  Fe106     1.0  0.97080  0.23618  0.29031  1.0000
  C   C1684     1.0  0.95502  0.31003  0.36463  1.0000
  H   H1332     1.0  0.51698  0.39796  0.47838  1.0000
  H   H1333     1.0  0.67256  0.04982  0.46111  1.0000
  C   C1685     1.0  0.62967  0.10224  0.46703  1.0000
  H   H1334     1.0  0.70973  0.03663  0.45038  1.0000
  C   C1686     1.0  0.77950  0.09656  0.25214  1.0000
  H   H1335     1.0  0.95812  0.30988  0.33952  1.0000
  C   C1687     1.0  0.53464  0.07593  0.48410  1.0000
  H   H1336     1.0  0.72433  0.01204  0.39262  1.0000
  H   H1337     1.0  0.78282  0.10313  0.24020  1.0000
  C   C1688     1.0  0.54159  0.98678  0.44682  1.0000
  H   H1338     1.0  0.94843  0.15992  0.35548  1.0000
  C   C1689     1.0  0.97438  0.37685  0.47959  1.0000
  H   H1339     1.0  0.74273  0.09735  0.25280  1.0000
  H   H1340     1.0  0.95807  0.42305  0.45718  1.0000
  C   C1690     1.0  0.53759  0.46343  0.47808  1.0000
  P   P58       1.0  0.55144  0.03761  0.48336  1.0000
  C   C1691     1.0  0.95338  0.47659  0.47037  1.0000
  C   C1692     1.0  0.96602  0.24811  0.24959  1.0000
  H   H1341     1.0  0.48139  0.39805  0.46186  1.0000
  H   H1342     1.0  0.94166  0.48145  0.47816  1.0000
  H   H1343     1.0  0.52162  0.10531  0.48493  1.0000
  H   H1344     1.0  0.95178  0.10047  0.23717  1.0000
  H   H1345     1.0  0.92985  0.22690  0.23654  1.0000
  H   H1346     1.0  0.78822  0.21557  0.59011  1.0000
  Fe  Fe107     1.0  0.62379  0.08881  0.54575  1.0000
  S   S209      1.0  0.65313  0.10980  0.52719  1.0000
  S   S210      1.0  0.58335  0.08840  0.54239  1.0000
  Fe  Fe108     1.0  0.66009  0.06641  0.55908  1.0000
  S   S211      1.0  0.69010  0.08505  0.54065  1.0000
  S   S212      1.0  0.66167  0.03765  0.57696  1.0000
  Fe  Fe109     1.0  0.68530  0.12108  0.54572  1.0000
  S   S213      1.0  0.71934  0.16200  0.55258  1.0000
  Fe  Fe110     1.0  0.65563  0.07222  0.52357  1.0000
  S   S214      1.0  0.65149  0.05697  0.49794  1.0000
  S   S215      1.0  0.65573  0.10248  0.56476  1.0000
  S   S216      1.0  0.62604  0.05126  0.54158  1.0000
  H   H1347     1.0  0.87134  0.18313  0.58546  1.0000
  C   C1693     1.0  0.76629  0.00091  0.71866  1.0000
  Fe  Fe111     1.0  0.91633  0.33702  0.52565  1.0000
  S   S217      1.0  0.92442  0.36280  0.54729  1.0000
  S   S218      1.0  0.94039  0.35460  0.50363  1.0000
  Fe  Fe112     1.0  0.86324  0.29525  0.53870  1.0000
  S   S219      1.0  0.86832  0.31988  0.56062  1.0000
  S   S220      1.0  0.83048  0.25374  0.53188  1.0000
  Fe  Fe113     1.0  0.88286  0.35517  0.54510  1.0000
  S   S221      1.0  0.86892  0.38685  0.54393  1.0000
  Fe  Fe114     1.0  0.90974  0.32571  0.56111  1.0000
  S   S222      1.0  0.93073  0.32562  0.58440  1.0000
  S   S223      1.0  0.87477  0.32992  0.52315  1.0000
  S   S224      1.0  0.90454  0.30045  0.53954  1.0000
  P   P59       1.0  0.84873  0.48079  0.59566  1.0000
  C   C1694     1.0  0.77456  0.08523  0.56495  1.0000
  H   H1348     1.0  0.78873  0.44882  0.65063  1.0000
  Fe  Fe115     1.0  0.96542  0.17679  0.64987  1.0000
  S   S225      1.0  0.94140  0.13434  0.64233  1.0000
  S   S226      1.0  0.94619  0.20136  0.65580  1.0000
  Fe  Fe116     1.0  0.80236  0.02861  0.66662  1.0000
  S   S227      1.0  0.76608  0.03316  0.66731  1.0000
  S   S228      1.0  0.83796  0.06259  0.67751  1.0000
  C   C1695     1.0  0.50805  0.03638  0.49770  1.0000
  C   C1696     1.0  0.67434  0.98773  0.64143  1.0000
  H   H1349     1.0  0.82992  0.13110  0.66276  1.0000
  S   S229      1.0  0.79401  0.01145  0.64223  1.0000
  C   C1697     1.0  0.87197  0.19051  0.59726  1.0000
  C   C1698     1.0  0.49596  0.07118  0.49722  1.0000
  C   C1699     1.0  0.91164  0.11530  0.65151  1.0000
  C   C1700     1.0  0.90466  0.12436  0.66503  1.0000
  C   C1701     1.0  0.88189  0.10802  0.67278  1.0000
  C   C1702     1.0  0.86539  0.08289  0.66676  1.0000
  C   C1703     1.0  0.87177  0.07417  0.65288  1.0000
  C   C1704     1.0  0.89505  0.09021  0.64543  1.0000
  H   H1350     1.0  0.91711  0.14374  0.66975  1.0000
  H   H1351     1.0  0.87708  0.11487  0.68352  1.0000
  H   H1352     1.0  0.85919  0.05481  0.64817  1.0000
  H   H1353     1.0  0.90038  0.08306  0.63501  1.0000
  C   C1705     1.0  0.96899  0.36134  0.49294  1.0000
  H   H1354     1.0  0.90685  0.18065  0.71627  1.0000
  C   C1706     1.0  0.93760  0.30199  0.59391  1.0000
  C   C1707     1.0  0.95260  0.30904  0.60804  1.0000
  C   C1708     1.0  0.95880  0.29118  0.61591  1.0000
  C   C1709     1.0  0.95009  0.26587  0.60976  1.0000
  C   C1710     1.0  0.93482  0.25876  0.59574  1.0000
  C   C1711     1.0  0.92868  0.27662  0.58787  1.0000
  C   C1712     1.0  0.96770  0.21195  0.73251  1.0000
  C   C1713     1.0  0.77462  0.16483  0.58490  1.0000
  H   H1355     1.0  0.91700  0.27077  0.57713  1.0000
  C   C1714     1.0  0.88177  0.42165  0.54538  1.0000
  C   C1715     1.0  0.90480  0.43778  0.55379  1.0000
  C   C1716     1.0  0.91306  0.46485  0.55554  1.0000
  S   S230      1.0  0.78455  0.98976  0.67791  1.0000
  C   C1717     1.0  0.87577  0.46039  0.54028  1.0000
  C   C1718     1.0  0.86731  0.43326  0.53874  1.0000
  H   H1356     1.0  0.91566  0.42923  0.55951  1.0000
  C   C1719     1.0  0.61371  0.47705  0.51107  1.0000
  H   H1357     1.0  0.86444  0.46880  0.53492  1.0000
  H   H1358     1.0  0.84932  0.42111  0.53235  1.0000
  C   C1720     1.0  0.82810  0.16236  0.56594  1.0000
  C   C1721     1.0  0.50162  0.42473  0.54994  1.0000
  C   C1722     1.0  0.51902  0.41618  0.54427  1.0000
  C   C1723     1.0  0.54589  0.43370  0.54347  1.0000
  C   C1724     1.0  0.55593  0.46016  0.54813  1.0000
  C   C1725     1.0  0.53847  0.46877  0.55358  1.0000
  C   C1726     1.0  0.51164  0.45121  0.55452  1.0000
  H   H1359     1.0  0.51186  0.39601  0.54064  1.0000
  H   H1360     1.0  0.55907  0.42660  0.53936  1.0000
  C   C1727     1.0  0.90942  0.21612  0.55650  1.0000
  H   H1361     1.0  0.49857  0.45818  0.55901  1.0000
  C   C1728     1.0  0.72517  0.03787  0.61104  1.0000
  C   C1729     1.0  0.72899  0.06079  0.60351  1.0000
  C   C1730     1.0  0.71019  0.06102  0.59279  1.0000
  C   C1731     1.0  0.68696  0.03832  0.58962  1.0000
  C   C1732     1.0  0.68309  0.01543  0.59720  1.0000
  C   C1733     1.0  0.70216  0.01510  0.60764  1.0000
  H   H1362     1.0  0.71345  0.07879  0.58714  1.0000
  H   H1363     1.0  0.66525  0.99772  0.59488  1.0000
  H   H1364     1.0  0.69910  0.99716  0.61296  1.0000
  C   C1734     1.0  0.73930  0.99088  0.71742  1.0000
  C   C1735     1.0  0.78875  0.44461  0.62544  1.0000
  H   H1365     1.0  0.97257  0.35648  0.53355  1.0000
  C   C1736     1.0  0.75022  0.18723  0.54647  1.0000
  C   C1737     1.0  0.76268  0.18473  0.53307  1.0000
  C   C1738     1.0  0.78699  0.20520  0.52884  1.0000
  C   C1739     1.0  0.79945  0.22862  0.53787  1.0000
  C   C1740     1.0  0.78708  0.23104  0.55132  1.0000
  C   C1741     1.0  0.76280  0.21057  0.55558  1.0000
  H   H1366     1.0  0.75353  0.16706  0.52589  1.0000
  H   H1367     1.0  0.79616  0.20289  0.51840  1.0000
  H   H1368     1.0  0.79612  0.24885  0.55836  1.0000
  H   H1369     1.0  0.75351  0.21296  0.56594  1.0000
  C   C1742     1.0  0.50501  0.08704  0.55668  1.0000
  C   C1743     1.0  0.51148  0.08723  0.54085  1.0000
  C   C1744     1.0  0.53528  0.08755  0.53671  1.0000
  C   C1745     1.0  0.55319  0.08770  0.54824  1.0000
  C   C1746     1.0  0.54652  0.08719  0.56402  1.0000
  C   C1747     1.0  0.52277  0.08687  0.56816  1.0000
  H   H1370     1.0  0.49822  0.08730  0.53181  1.0000
  H   H1371     1.0  0.53999  0.08793  0.52446  1.0000
  H   H1372     1.0  0.55982  0.08725  0.57310  1.0000
  C   C1748     1.0  0.51315  0.42798  0.60286  1.0000
  H   H1373     1.0  0.87210  0.39721  0.58228  1.0000
  S   S231      1.0  0.96129  0.21448  0.70070  1.0000
  C   C1749     1.0  0.60323  0.07542  0.48774  1.0000
  C   C1750     1.0  0.53147  0.45359  0.60002  1.0000
  H   H1374     1.0  0.87511  0.39927  0.50122  1.0000
  C   C1751     1.0  0.90467  0.43850  0.50640  1.0000
  C   C1752     1.0  0.49117  0.04643  0.50190  1.0000
  H   H1375     1.0  0.49470  0.30145  0.55507  1.0000
  C   C1753     1.0  0.52465  0.36846  0.62266  1.0000
  C   C1754     1.0  0.48606  0.36907  0.63268  1.0000
  C   C1755     1.0  0.88916  0.12459  0.60770  1.0000
  C   C1756     1.0  0.89557  0.41180  0.50381  1.0000
  C   C1757     1.0  0.88363  0.08375  0.72344  1.0000
  H   H1376     1.0  0.84083  0.08936  0.70719  1.0000
  H   H1377     1.0  0.93887  0.27719  0.54257  1.0000
  H   H1378     1.0  0.79739  0.11165  0.60134  1.0000
  C   C1758     1.0  0.82642  0.47330  0.64142  1.0000
  H   H1379     1.0  0.92787  0.23931  0.59085  1.0000
  C   C1759     1.0  0.83329  0.05967  0.60413  1.0000
  C   C1760     1.0  0.93706  0.25991  0.54819  1.0000
  H   H1380     1.0  0.90314  0.14487  0.56438  1.0000
  H   H1381     1.0  0.49055  0.34000  0.54649  1.0000
  C   C1761     1.0  0.55697  0.03247  0.51551  1.0000
  H   H1382     1.0  0.95665  0.09873  0.66880  1.0000
  C   C1762     1.0  0.91273  0.40112  0.50500  1.0000
  H   H1383     1.0  0.79494  0.07251  0.69889  1.0000
  S   S232      1.0  0.74987  0.03911  0.62446  1.0000
  H   H1384     1.0  0.79989  0.01480  0.73413  1.0000
  H   H1385     1.0  0.60182  0.06988  0.49991  1.0000
  C   C1763     1.0  0.56160  0.02120  0.52877  1.0000
  C   C1764     1.0  0.93079  0.45445  0.51059  1.0000
  H   H1386     1.0  0.74656  0.07855  0.60613  1.0000
  C   C1765     1.0  0.83399  0.27882  0.59190  1.0000
  H   H1387     1.0  0.81384  0.06615  0.63178  1.0000
  C   C1766     1.0  0.72509  0.98614  0.73127  1.0000
  Fe  Fe117     1.0  0.75631  0.01401  0.64318  1.0000
  H   H1388     1.0  0.75957  0.08304  0.55637  1.0000
  C   C1767     1.0  0.80007  0.07357  0.71127  1.0000
  H   H1389     1.0  0.78798  0.06230  0.55141  1.0000
  H   H1390     1.0  0.90565  0.38035  0.50313  1.0000
  H   H1391     1.0  0.55366  0.04929  0.51715  1.0000
  H   H1392     1.0  0.48403  0.22433  0.49158  1.0000
  H   H1393     1.0  0.89123  0.44669  0.50571  1.0000
  C   C1768     1.0  0.77897  0.00652  0.73347  1.0000
  C   C1769     1.0  0.53222  0.36579  0.63791  1.0000
  H   H1394     1.0  0.49425  0.19915  0.51135  1.0000
  C   C1770     1.0  0.85639  0.27557  0.59140  1.0000
  C   C1771     1.0  0.79610  0.10143  0.59036  1.0000
  H   H1395     1.0  0.84129  0.22519  0.55944  1.0000
  H   H1396     1.0  0.84953  0.05207  0.71226  1.0000
  C   C1772     1.0  0.81238  0.08996  0.58761  1.0000
  C   C1773     1.0  0.79056  0.07358  0.56217  1.0000
  C   C1774     1.0  0.50124  0.36957  0.61989  1.0000
  C   C1775     1.0  0.94801  0.44368  0.51235  1.0000
  C   C1776     1.0  0.85511  0.05601  0.60765  1.0000
  C   C1777     1.0  0.87599  0.21121  0.62771  1.0000
  H   H1397     1.0  0.81274  0.08363  0.65802  1.0000
  H   H1398     1.0  0.52932  0.46974  0.60512  1.0000
  C   C1778     1.0  0.53696  0.41205  0.58658  1.0000
  C   C1779     1.0  0.62827  0.00264  0.49850  1.0000
  C   C1780     1.0  0.75012  0.14583  0.58919  1.0000
  C   C1781     1.0  0.85654  0.45467  0.59109  1.0000
  C   C1782     1.0  0.78071  0.06521  0.72243  1.0000
  C   C1783     1.0  0.82030  0.09677  0.64840  1.0000
  C   C1784     1.0  0.89919  0.13931  0.57649  1.0000
  H   H1399     1.0  0.80967  0.16397  0.61728  1.0000
  C   C1785     1.0  0.93885  0.41698  0.50918  1.0000
  H   H1400     1.0  0.82629  0.13492  0.54794  1.0000
  H   H1401     1.0  0.77649  0.17406  0.57368  1.0000
  C   C1786     1.0  0.93125  0.21461  0.56252  1.0000
  C   C1787     1.0  0.82608  0.08264  0.71600  1.0000
  H   H1402     1.0  0.78269  0.10069  0.67305  1.0000
  H   H1403     1.0  0.84817  0.14390  0.61411  1.0000
  H   H1404     1.0  0.89549  0.24006  0.54462  1.0000
  H   H1405     1.0  0.76656  0.13007  0.62444  1.0000
  H   H1406     1.0  0.88575  0.11910  0.61987  1.0000
  H   H1407     1.0  0.95273  0.19213  0.73094  1.0000
  C   C1788     1.0  0.91941  0.14910  0.58781  1.0000
  H   H1408     1.0  0.95166  0.40816  0.51048  1.0000
  H   H1409     1.0  0.83515  0.39896  0.56852  1.0000
  H   H1410     1.0  0.90684  0.18778  0.60364  1.0000
  C   C1789     1.0  0.80952  0.25706  0.59148  1.0000
  C   C1790     1.0  0.83010  0.15475  0.55057  1.0000
  C   C1791     1.0  0.80609  0.01280  0.60410  1.0000
  H   H1411     1.0  0.57409  0.46946  0.51331  1.0000
  C   C1792     1.0  0.77741  0.09919  0.57899  1.0000
  C   C1793     1.0  0.76281  0.09354  0.66879  1.0000
  H   H1412     1.0  0.94502  0.42456  0.54137  1.0000
  C   C1794     1.0  0.79641  0.17191  0.59499  1.0000
  C   C1795     1.0  0.83626  0.17254  0.53852  1.0000
  H   H1413     1.0  0.72839  0.11814  0.60657  1.0000
  C   C1796     1.0  0.88907  0.14217  0.72573  1.0000
  C   C1797     1.0  0.56360  0.00192  0.49880  1.0000
  H   H1414     1.0  0.92144  0.11226  0.73246  1.0000
  H   H1415     1.0  0.83724  0.16660  0.52653  1.0000
  H   H1416     1.0  0.83563  0.29823  0.59243  1.0000
  H   H1417     1.0  0.79214  0.25961  0.59160  1.0000
  H   H1418     1.0  0.90989  0.20539  0.63058  1.0000
  C   C1798     1.0  0.89212  0.19298  0.60753  1.0000
  C   C1799     1.0  0.63302  0.98497  0.63315  1.0000
  C   C1800     1.0  0.83132  0.10379  0.62095  1.0000
  H   H1419     1.0  0.79453  0.44401  0.60063  1.0000
  H   H1420     1.0  0.87805  0.21984  0.63938  1.0000
  H   H1421     1.0  0.63466  0.00492  0.51069  1.0000
  H   H1422     1.0  0.87196  0.24852  0.58988  1.0000
  C   C1801     1.0  0.79331  0.15930  0.60933  1.0000
  C   C1802     1.0  0.83229  0.18781  0.56940  1.0000
  H   H1423     1.0  0.61378  0.46719  0.52176  1.0000
  C   C1803     1.0  0.62635  0.07151  0.67715  1.0000
  C   C1804     1.0  0.62143  0.05378  0.68913  1.0000
  C   C1805     1.0  0.63350  0.03774  0.68921  1.0000
  C   C1806     1.0  0.65056  0.03947  0.67735  1.0000
  C   C1807     1.0  0.65586  0.05745  0.66537  1.0000
  C   C1808     1.0  0.64345  0.07334  0.66529  1.0000
  P   P60       1.0  0.67802  0.05920  0.65024  1.0000
  C   C1809     1.0  0.71108  0.07334  0.65781  1.0000
  C   C1810     1.0  0.66742  0.02596  0.64362  1.0000
  C   C1811     1.0  0.68354  0.01401  0.64560  1.0000
  C   C1812     1.0  0.95904  0.25882  0.55449  1.0000
  H   H1424     1.0  0.50431  0.01734  0.50161  1.0000
  H   H1425     1.0  0.57164  0.99214  0.53736  1.0000
  C   C1813     1.0  0.64194  0.01111  0.63762  1.0000
  C   C1814     1.0  0.73123  0.07997  0.64722  1.0000
  C   C1815     1.0  0.75695  0.08995  0.65267  1.0000
  C   C1816     1.0  0.86748  0.41295  0.58505  1.0000
  C   C1817     1.0  0.74287  0.08726  0.67945  1.0000
  C   C1818     1.0  0.71705  0.07723  0.67401  1.0000
  C   C1819     1.0  0.67774  0.07968  0.63451  1.0000
  C   C1820     1.0  0.68835  0.10668  0.63733  1.0000
  C   C1821     1.0  0.68800  0.12291  0.62546  1.0000
  C   C1822     1.0  0.67731  0.11236  0.61062  1.0000
  C   C1823     1.0  0.66734  0.08566  0.60762  1.0000
  C   C1824     1.0  0.66773  0.06937  0.61943  1.0000
  H   H1426     1.0  0.61681  0.08380  0.67703  1.0000
  H   H1427     1.0  0.60818  0.05240  0.69831  1.0000
  H   H1428     1.0  0.62962  0.02389  0.69844  1.0000
  H   H1429     1.0  0.65972  0.02682  0.67755  1.0000
  H   H1430     1.0  0.64661  0.08694  0.65605  1.0000
  H   H1431     1.0  0.70322  0.02476  0.65031  1.0000
  C   C1825     1.0  0.86869  0.11454  0.59641  1.0000
  C   C1826     1.0  0.82095  0.08689  0.63343  1.0000
  C   C1827     1.0  0.55255  0.45843  0.59053  1.0000
  H   H1432     1.0  0.62902  0.01981  0.63629  1.0000
  H   H1433     1.0  0.72696  0.07666  0.63472  1.0000
  H   H1434     1.0  0.77210  0.09403  0.64431  1.0000
  H   H1435     1.0  0.93055  0.47682  0.56241  1.0000
  H   H1436     1.0  0.74739  0.08974  0.69195  1.0000
  H   H1437     1.0  0.70199  0.07233  0.68249  1.0000
  H   H1438     1.0  0.69672  0.11513  0.64878  1.0000
  H   H1439     1.0  0.69604  0.14368  0.62772  1.0000
  H   H1440     1.0  0.67704  0.12485  0.60135  1.0000
  H   H1441     1.0  0.65943  0.07752  0.59604  1.0000
  H   H1442     1.0  0.66050  0.04892  0.61653  1.0000
  C   C1828     1.0  0.92479  0.09003  0.71303  1.0000
  C   C1829     1.0  0.91157  0.07052  0.70160  1.0000
  C   C1830     1.0  0.88446  0.05706  0.70138  1.0000
  C   C1831     1.0  0.87051  0.06310  0.71253  1.0000
  H   H1443     1.0  0.56182  0.02941  0.54035  1.0000
  C   C1832     1.0  0.91091  0.09679  0.72384  1.0000
  C   C1833     1.0  0.91436  0.14177  0.60339  1.0000
  C   C1834     1.0  0.49279  0.33735  0.55890  1.0000
  H   H1444     1.0  0.95959  0.32856  0.61292  1.0000
  H   H1445     1.0  0.82134  0.06636  0.57124  1.0000
  H   H1446     1.0  0.84478  0.21161  0.53251  1.0000
  C   C1835     1.0  0.80739  0.23201  0.59055  1.0000
  C   C1836     1.0  0.89400  0.20312  0.62276  1.0000
  H   H1447     1.0  0.93905  0.16232  0.58457  1.0000
  C   C1837     1.0  0.85343  0.19811  0.60227  1.0000
  Fe  Fe118     1.0  0.97538  0.23128  0.64017  1.0000
  C   C1838     1.0  0.74725  0.13332  0.60343  1.0000
  H   H1448     1.0  0.79135  0.04017  0.60050  1.0000
  C   C1839     1.0  0.85435  0.25059  0.59038  1.0000
  C   C1840     1.0  0.59120  0.47839  0.50623  1.0000
  H   H1449     1.0  0.87420  0.07240  0.60924  1.0000
  P   P61       1.0  0.83628  0.09195  0.60221  1.0000
  H   H1450     1.0  0.86918  0.02820  0.61244  1.0000
  H   H1451     1.0  0.93702  0.47490  0.51270  1.0000
  C   C1841     1.0  0.49367  0.36638  0.64793  1.0000
  H   H1452     1.0  0.94577  0.10019  0.71342  1.0000
  H   H1453     1.0  0.92225  0.06591  0.69284  1.0000
  H   H1454     1.0  0.87413  0.04241  0.69228  1.0000
  P   P62       1.0  0.82789  0.19656  0.58914  1.0000
  H   H1455     1.0  0.49685  0.32531  0.60325  1.0000
  H   H1456     1.0  0.55026  0.36484  0.63996  1.0000
  C   C1842     1.0  0.80869  0.03787  0.60256  1.0000
  H   H1457     1.0  0.84220  0.21551  0.62145  1.0000
  H   H1458     1.0  0.88706  0.13272  0.71433  1.0000
  C   C1843     1.0  0.85236  0.03090  0.60944  1.0000
  C   C1844     1.0  0.85578  0.20874  0.61752  1.0000
  C   C1845     1.0  0.88257  0.43241  0.59613  1.0000
  C   C1846     1.0  0.96643  0.13117  0.68481  1.0000
  C   C1847     1.0  0.83934  0.14038  0.63857  1.0000
  C   C1848     1.0  0.82971  0.47135  0.61308  1.0000
  H   H1459     1.0  0.82461  0.43485  0.57419  1.0000
  C   C1849     1.0  0.49442  0.35143  0.58611  1.0000
  H   H1460     1.0  0.87541  0.29244  0.59165  1.0000
  C   C1850     1.0  0.84058  0.19794  0.54189  1.0000
  C   C1851     1.0  0.83857  0.20560  0.55726  1.0000
  C   C1852     1.0  0.87391  0.12209  0.58075  1.0000
  H   H1461     1.0  0.51818  0.08658  0.58043  1.0000
  C   C1853     1.0  0.80937  0.07589  0.57345  1.0000
  H   H1462     1.0  0.49834  0.29446  0.58346  1.0000
  Fe  Fe119     1.0  0.74768  0.99320  0.67703  1.0000
  C   C1854     1.0  0.76883  0.14001  0.61348  1.0000
  C   C1855     1.0  0.82983  0.22860  0.59001  1.0000
  H   H1463     1.0  0.84686  0.16110  0.64065  1.0000
  H   H1464     1.0  0.82302  0.14837  0.57513  1.0000
  H   H1465     1.0  0.89022  0.19988  0.55748  1.0000
  C   C1856     1.0  0.84005  0.13057  0.62357  1.0000
  C   C1857     1.0  0.91236  0.23872  0.54925  1.0000
  H   H1466     1.0  0.85866  0.11475  0.57178  1.0000
  H   H1467     1.0  0.76455  0.10764  0.58118  1.0000
  H   H1468     1.0  0.93002  0.14937  0.61220  1.0000
  C   C1858     1.0  0.82977  0.12350  0.65103  1.0000
  H   H1469     1.0  0.73341  0.14062  0.58131  1.0000
  C   C1859     1.0  0.53000  0.05109  0.48883  1.0000
  C   C1860     1.0  0.84098  0.43459  0.58033  1.0000
  H   H1470     1.0  0.48368  0.03350  0.55261  1.0000
  C   C1861     1.0  0.84660  0.41396  0.57725  1.0000
  H   H1471     1.0  0.78699  0.99610  0.60314  1.0000
  H   H1472     1.0  0.49010  0.37172  0.56609  1.0000
  C   C1862     1.0  0.55752  0.02269  0.50039  1.0000
  C   C1863     1.0  0.83283  0.08229  0.73188  1.0000
  C   C1864     1.0  0.51769  0.08593  0.48834  1.0000
  C   C1865     1.0  0.96440  0.43372  0.54665  1.0000
  H   H1473     1.0  0.53710  0.36981  0.61300  1.0000
  C   C1866     1.0  0.49704  0.31163  0.57975  1.0000
  C   C1867     1.0  0.89865  0.47647  0.54884  1.0000
  H   H1474     1.0  0.53964  0.39636  0.58131  1.0000
  S   S233      1.0  0.95920  0.24297  0.61823  1.0000
  H   H1475     1.0  0.97554  0.31552  0.53099  1.0000
  H   H1476     1.0  0.82564  0.98987  0.60933  1.0000
  H   H1477     1.0  0.64331  0.10390  0.49092  1.0000
  H   H1478     1.0  0.51205  0.46588  0.50292  1.0000
  C   C1868     1.0  0.48820  0.00806  0.56909  1.0000
  H   H1479     1.0  0.76046  0.05734  0.71874  1.0000
  H   H1480     1.0  0.56659  0.47824  0.58809  1.0000
  H   H1481     1.0  0.92901  0.19724  0.56828  1.0000
  H   H1482     1.0  0.76849  0.43020  0.62448  1.0000
  C   C1869     1.0  0.80351  0.45257  0.61195  1.0000
  C   C1870     1.0  0.49510  0.31558  0.56375  1.0000
  C   C1871     1.0  0.49247  0.35522  0.57002  1.0000
  C   C1872     1.0  0.80017  0.45505  0.64017  1.0000
  H   H1483     1.0  0.83401  0.00026  0.71853  1.0000
  H   H1484     1.0  0.49520  0.47607  0.52685  1.0000
  H   H1485     1.0  0.95387  0.13755  0.67879  1.0000
  C   C1873     1.0  0.87695  0.45305  0.59929  1.0000
  C   C1874     1.0  0.82788  0.00930  0.60764  1.0000
  H   H1486     1.0  0.88865  0.46786  0.60802  1.0000
  C   C1875     1.0  0.49637  0.32931  0.59093  1.0000
  C   C1876     1.0  0.90003  0.16931  0.72675  1.0000
  H   H1487     1.0  0.52260  0.36266  0.66237  1.0000
  C   C1877     1.0  0.51548  0.40701  0.59591  1.0000
  C   C1878     1.0  0.55539  0.43767  0.58394  1.0000
  C   C1879     1.0  0.95600  0.23579  0.56144  1.0000
  C   C1880     1.0  0.96796  0.10915  0.67922  1.0000
  H   H1488     1.0  0.50736  0.01212  0.56515  1.0000
  C   C1881     1.0  0.96810  0.42654  0.56171  1.0000
  Fe  Fe120     1.0  0.97626  0.21812  0.67565  1.0000
  H   H1489     1.0  0.85603  0.48222  0.56205  1.0000
  H   H1490     1.0  0.97063  0.29715  0.62660  1.0000
  C   C1882     1.0  0.56824  0.99070  0.51210  1.0000
  P   P63       1.0  0.49237  0.37402  0.60019  1.0000
  H   H1491     1.0  0.57168  0.44154  0.57648  1.0000
  C   C1883     1.0  0.56722  0.00030  0.52708  1.0000
  H   H1492     1.0  0.95169  0.41207  0.56782  1.0000
  H   H1493     1.0  0.89872  0.43155  0.60219  1.0000
  H   H1494     1.0  0.55246  0.43911  0.48885  1.0000
  C   C1884     1.0  0.51667  0.36462  0.65054  1.0000
  C   C1885     1.0  0.63304  0.02467  0.48991  1.0000
  H   H1495     1.0  0.77759  0.00513  0.70821  1.0000
  H   H1496     1.0  0.49707  0.42452  0.61038  1.0000
  H   H1497     1.0  0.84807  0.99596  0.69173  1.0000
  S   S234      1.0  0.59051  0.48076  0.54810  1.0000
  H   H1498     1.0  0.56516  0.99437  0.48743  1.0000
  H   H1499     1.0  0.97262  0.23417  0.56617  1.0000
  H   H1500     1.0  0.48305  0.07910  0.50069  1.0000
  H   H1501     1.0  0.83537  0.48113  0.65286  1.0000
  S   S235      1.0  0.72313  0.98491  0.69878  1.0000
  C   C1886     1.0  0.84123  0.48129  0.62794  1.0000
  C   C1887     1.0  0.52412  0.48380  0.50936  1.0000
  H   H1502     1.0  0.48183  0.36591  0.65774  1.0000
  C   C1888     1.0  0.97707  0.22737  0.71928  1.0000
  H   H1503     1.0  0.59183  0.14024  0.93998  1.0000
  H   H1504     1.0  0.90744  0.10936  0.76237  1.0000
  Fe  Fe121     1.0  0.90946  0.32016  0.94752  1.0000
  S   S236      1.0  0.92679  0.35150  0.92975  1.0000
  S   S237      1.0  0.92525  0.32279  0.97287  1.0000
  Fe  Fe122     1.0  0.85924  0.28777  0.92697  1.0000
  S   S238      1.0  0.87345  0.31857  0.90848  1.0000
  S   S239      1.0  0.82206  0.24962  0.91969  1.0000
  Fe  Fe123     1.0  0.91207  0.31822  0.91151  1.0000
  S   S240      1.0  0.93451  0.31942  0.88909  1.0000
  Fe  Fe124     1.0  0.88712  0.34960  0.92792  1.0000
  S   S241      1.0  0.87925  0.38530  0.93171  1.0000
  S   S242      1.0  0.89777  0.28696  0.92952  1.0000
  S   S243      1.0  0.86981  0.31870  0.94617  1.0000
  Fe  Fe125     1.0  0.97463  0.23023  0.82529  1.0000
  H   H1505     1.0  0.68534  0.05801  0.98135  1.0000
  Fe  Fe126     1.0  0.62456  0.09061  0.92092  1.0000
  S   S244      1.0  0.64142  0.10272  0.94541  1.0000
  S   S245      1.0  0.59317  0.10272  0.91316  1.0000
  Fe  Fe127     1.0  0.66340  0.06861  0.91374  1.0000
  S   S246      1.0  0.68048  0.07869  0.93850  1.0000
  S   S247      1.0  0.68436  0.04888  0.90028  1.0000
  Fe  Fe128     1.0  0.63936  0.06293  0.94670  1.0000
  S   S248      1.0  0.61705  0.03961  0.96802  1.0000
  Fe  Fe129     1.0  0.68116  0.11747  0.93495  1.0000
  S   S249      1.0  0.71653  0.15535  0.94425  1.0000
  S   S250      1.0  0.62187  0.05045  0.92223  1.0000
  S   S251      1.0  0.66470  0.10788  0.91021  1.0000
  C   C1889     1.0  0.86059  0.43916  0.88996  1.0000
  H   H1506     1.0  0.48972  0.43397  0.91876  1.0000
  Fe  Fe130     1.0  0.95300  0.18369  0.80181  1.0000
  S   S252      1.0  0.91596  0.14981  0.79237  1.0000
  S   S253      1.0  0.95411  0.22294  0.80156  1.0000
  H   H1507     1.0  0.57498  0.06303  0.94984  1.0000
  H   H1508     1.0  0.82990  0.15151  0.96054  1.0000
  S   S254      1.0  0.72195  0.03125  0.83243  1.0000
  Fe  Fe131     1.0  0.80460  0.02524  0.82178  1.0000
  S   S255      1.0  0.84551  0.05068  0.83144  1.0000
  S   S256      1.0  0.78206  0.04168  0.80860  1.0000
  C   C1890     1.0  0.56172  0.04447  0.95456  1.0000
  C   C1891     1.0  0.93904  0.25380  0.87364  1.0000
  C   C1892     1.0  0.89629  0.12388  0.80433  1.0000
  C   C1893     1.0  0.87036  0.10793  0.79957  1.0000
  C   C1894     1.0  0.85478  0.08554  0.80781  1.0000
  C   C1895     1.0  0.86478  0.07907  0.82110  1.0000
  C   C1896     1.0  0.89054  0.09538  0.82616  1.0000
  C   C1897     1.0  0.90635  0.11765  0.81773  1.0000
  H   H1509     1.0  0.86241  0.11241  0.78919  1.0000
  H   H1510     1.0  0.83523  0.07299  0.80358  1.0000
  H   H1511     1.0  0.89844  0.09047  0.83642  1.0000
  H   H1512     1.0  0.92644  0.12959  0.82138  1.0000
  C   C1898     1.0  0.92427  0.41043  0.97862  1.0000
  C   C1899     1.0  0.85365  0.04133  0.77322  1.0000
  C   C1900     1.0  0.69592  0.04570  0.88138  1.0000
  C   C1901     1.0  0.71061  0.03199  0.87999  1.0000
  C   C1902     1.0  0.71934  0.02795  0.86526  1.0000
  C   C1903     1.0  0.71323  0.03733  0.85159  1.0000
  C   C1904     1.0  0.69894  0.05141  0.85302  1.0000
  C   C1905     1.0  0.69048  0.05572  0.86777  1.0000
  H   H1513     1.0  0.71493  0.02407  0.89037  1.0000
  H   H1514     1.0  0.93224  0.40801  0.94718  1.0000
  H   H1515     1.0  0.89719  0.17716  0.76625  1.0000
  H   H1516     1.0  0.67926  0.06629  0.86855  1.0000
  H   H1517     1.0  0.83378  0.04225  0.75203  1.0000
  H   H1518     1.0  0.76491  0.05398  0.97584  1.0000
  H   H1519     1.0  0.93381  0.23454  0.87779  1.0000
  C   C1906     1.0  0.57595  0.43080  0.95331  1.0000
  H   H1520     1.0  0.65853  0.47418  0.95983  1.0000
  C   C1907     1.0  0.50620  0.07910  0.92271  1.0000
  C   C1908     1.0  0.51645  0.06159  0.92541  1.0000
  C   C1909     1.0  0.54279  0.06842  0.92261  1.0000
  C   C1910     1.0  0.55964  0.09307  0.91719  1.0000
  C   C1911     1.0  0.54942  0.11060  0.91449  1.0000
  C   C1912     1.0  0.52303  0.10378  0.91728  1.0000
  H   H1521     1.0  0.50389  0.04244  0.92955  1.0000
  H   H1522     1.0  0.54993  0.05437  0.92423  1.0000
  H   H1523     1.0  0.56203  0.12966  0.91016  1.0000
  C   C1913     1.0  0.72527  0.05587  0.94210  1.0000
  C   C1914     1.0  0.94029  0.29623  0.87780  1.0000
  C   C1915     1.0  0.93320  0.27098  0.88279  1.0000
  C   C1916     1.0  0.55986  0.43674  0.96280  1.0000
  C   C1917     1.0  0.95180  0.26135  0.85926  1.0000
  C   C1918     1.0  0.95831  0.28636  0.85408  1.0000
  C   C1919     1.0  0.95272  0.30365  0.86332  1.0000
  H   H1524     1.0  0.92354  0.26483  0.89382  1.0000
  C   C1920     1.0  0.70362  0.13127  0.98136  1.0000
  C   C1921     1.0  0.62358  0.13580  0.97283  1.0000
  C   C1922     1.0  0.79272  0.22373  0.92684  1.0000
  C   C1923     1.0  0.77467  0.20516  0.91604  1.0000
  C   C1924     1.0  0.75127  0.18434  0.92104  1.0000
  C   C1925     1.0  0.74552  0.18156  0.93701  1.0000
  C   C1926     1.0  0.76360  0.20006  0.94781  1.0000
  C   C1927     1.0  0.78694  0.22096  0.94280  1.0000
  H   H1525     1.0  0.77860  0.20698  0.90365  1.0000
  H   H1526     1.0  0.73766  0.17046  0.91253  1.0000
  H   H1527     1.0  0.75951  0.19824  0.96019  1.0000
  H   H1528     1.0  0.80046  0.23491  0.95132  1.0000
  C   C1928     1.0  0.88786  0.41880  0.92802  1.0000
  C   C1929     1.0  0.90760  0.43397  0.91787  1.0000
  C   C1930     1.0  0.91290  0.45994  0.91492  1.0000
  C   C1931     1.0  0.89879  0.47144  0.92212  1.0000
  C   C1932     1.0  0.87961  0.45654  0.93265  1.0000
  C   C1933     1.0  0.87412  0.43047  0.93547  1.0000
  H   H1529     1.0  0.91853  0.42562  0.91204  1.0000
  H   H1530     1.0  0.77246  0.05971  0.74705  1.0000
  H   H1531     1.0  0.95132  0.40940  0.92155  1.0000
  H   H1532     1.0  0.85885  0.41915  0.94338  1.0000
  C   C1934     1.0  0.54317  0.99744  0.95321  1.0000
  H   H1533     1.0  0.92781  0.47110  0.90676  1.0000
  H   H1534     1.0  0.81813  0.07558  0.75551  1.0000
  C   C1935     1.0  0.95193  0.42276  0.94535  1.0000
  C   C1936     1.0  0.51850  0.42038  0.91765  1.0000
  C   C1937     1.0  0.54539  0.42850  0.91653  1.0000
  C   C1938     1.0  0.56366  0.45520  0.91592  1.0000
  C   C1939     1.0  0.94116  0.46575  0.97590  1.0000
  C   C1940     1.0  0.52855  0.46637  0.91756  1.0000
  C   C1941     1.0  0.51022  0.43965  0.91800  1.0000
  H   H1535     1.0  0.55219  0.41398  0.91613  1.0000
  H   H1536     1.0  0.58411  0.46085  0.91493  1.0000
  H   H1537     1.0  0.86853  0.46489  0.93834  1.0000
  C   C1942     1.0  0.77873  0.16320  0.83172  1.0000
  C   C1943     1.0  0.77509  0.13855  0.82688  1.0000
  C   C1944     1.0  0.79631  0.13334  0.82646  1.0000
  C   C1945     1.0  0.82107  0.15246  0.83131  1.0000
  C   C1946     1.0  0.82483  0.17711  0.83656  1.0000
  C   C1947     1.0  0.80354  0.18254  0.83631  1.0000
  P   P64       1.0  0.85696  0.20237  0.84224  1.0000
  C   C1948     1.0  0.85483  0.22355  0.85740  1.0000
  C   C1949     1.0  0.87671  0.18804  0.84963  1.0000
  C   C1950     1.0  0.88141  0.18766  0.86584  1.0000
  C   C1951     1.0  0.89790  0.17776  0.87130  1.0000
  C   C1952     1.0  0.90963  0.16805  0.86068  1.0000
  C   C1953     1.0  0.90483  0.16816  0.84458  1.0000
  C   C1954     1.0  0.88850  0.17812  0.83905  1.0000
  C   C1955     1.0  0.87339  0.24990  0.85870  1.0000
  C   C1956     1.0  0.87137  0.26620  0.87032  1.0000
  C   C1957     1.0  0.85097  0.25635  0.88074  1.0000
  C   C1958     1.0  0.83268  0.23014  0.87969  1.0000
  C   C1959     1.0  0.83479  0.21367  0.86825  1.0000
  C   C1960     1.0  0.87267  0.22103  0.82533  1.0000
  C   C1961     1.0  0.85817  0.22079  0.81190  1.0000
  C   C1962     1.0  0.87075  0.23504  0.79883  1.0000
  C   C1963     1.0  0.89782  0.24970  0.79911  1.0000
  C   C1964     1.0  0.91232  0.25016  0.81248  1.0000
  C   C1965     1.0  0.89984  0.23577  0.82548  1.0000
  H   H1538     1.0  0.76234  0.16740  0.83173  1.0000
  H   H1539     1.0  0.75590  0.12353  0.82325  1.0000
  H   H1540     1.0  0.79355  0.11442  0.82228  1.0000
  H   H1541     1.0  0.83715  0.14790  0.83080  1.0000
  H   H1542     1.0  0.80611  0.20174  0.83961  1.0000
  H   H1543     1.0  0.87296  0.19553  0.87427  1.0000
  H   H1544     1.0  0.90216  0.17824  0.88375  1.0000
  H   H1545     1.0  0.92284  0.16090  0.86486  1.0000
  H   H1546     1.0  0.91431  0.16116  0.83631  1.0000
  H   H1547     1.0  0.88554  0.17850  0.82648  1.0000
  H   H1548     1.0  0.88965  0.25800  0.85096  1.0000
  H   H1549     1.0  0.88587  0.28644  0.87140  1.0000
  H   H1550     1.0  0.84952  0.26895  0.88981  1.0000
  H   H1551     1.0  0.81709  0.22263  0.88795  1.0000
  H   H1552     1.0  0.82082  0.19326  0.86793  1.0000
  H   H1553     1.0  0.83723  0.20952  0.81140  1.0000
  H   H1554     1.0  0.85954  0.23461  0.78842  1.0000
  H   H1555     1.0  0.73769  0.11547  0.94260  1.0000
  H   H1556     1.0  0.90761  0.26059  0.78896  1.0000
  H   H1557     1.0  0.91144  0.23611  0.83566  1.0000
  C   C1966     1.0  0.69096  0.07854  0.98129  1.0000
  H   H1558     1.0  0.83829  0.02265  0.77650  1.0000
  C   C1967     1.0  0.96272  0.42352  0.93070  1.0000
  H   H1559     1.0  0.57141  0.41067  0.95097  1.0000
  P   P65       1.0  0.54289  0.47014  0.97657  1.0000
  H   H1560     1.0  0.77182  0.15156  0.92869  1.0000
  C   C1968     1.0  0.57930  0.10070  0.97128  1.0000
  C   C1969     1.0  0.60373  0.11337  0.97904  1.0000
  H   H1561     1.0  0.96961  0.20969  0.75778  1.0000
  H   H1562     1.0  0.70641  0.03213  0.97859  1.0000
  C   C1970     1.0  0.88325  0.14026  0.75385  1.0000
  C   C1971     1.0  0.89464  0.16742  0.75488  1.0000
  C   C1972     1.0  0.76437  0.11174  0.95927  1.0000
  Fe  Fe132     1.0  0.74815  0.01427  0.82271  1.0000
  C   C1973     1.0  0.79060  0.12216  0.96422  1.0000
  H   H1563     1.0  0.69403  0.05877  0.84258  1.0000
  C   C1974     1.0  0.55893  0.02168  0.94697  1.0000
  C   C1975     1.0  0.80980  0.14317  0.95648  1.0000
  H   H1564     1.0  0.87756  0.04577  0.79383  1.0000
  C   C1976     1.0  0.69692  0.00940  0.94083  1.0000
  H   H1565     1.0  0.54323  0.42097  0.96793  1.0000
  C   C1977     1.0  0.76664  0.33121  0.85455  1.0000
  C   C1978     1.0  0.77677  0.34106  0.83997  1.0000
  C   C1979     1.0  0.80352  0.35665  0.83860  1.0000
  C   C1980     1.0  0.82017  0.36220  0.85176  1.0000
  C   C1981     1.0  0.81020  0.35177  0.86633  1.0000
  C   C1982     1.0  0.78325  0.33675  0.86773  1.0000
  P   P66       1.0  0.83159  0.36029  0.88341  1.0000
  C   C1983     1.0  0.81794  0.33582  0.89806  1.0000
  C   C1984     1.0  0.86181  0.36024  0.87877  1.0000
  C   C1985     1.0  0.88423  0.37506  0.88807  1.0000
  C   C1986     1.0  0.90742  0.37414  0.88508  1.0000
  C   C1987     1.0  0.90829  0.35808  0.87292  1.0000
  C   C1988     1.0  0.88589  0.34273  0.86385  1.0000
  C   C1989     1.0  0.86266  0.34365  0.86680  1.0000
  C   C1990     1.0  0.82021  0.34285  0.91407  1.0000
  C   C1991     1.0  0.81148  0.32372  0.92540  1.0000
  C   C1992     1.0  0.80038  0.29744  0.92084  1.0000
  C   C1993     1.0  0.79810  0.29027  0.90492  1.0000
  C   C1994     1.0  0.80707  0.30937  0.89357  1.0000
  C   C1995     1.0  0.83613  0.39197  0.89001  1.0000
  C   C1996     1.0  0.81725  0.39422  0.89911  1.0000
  C   C1997     1.0  0.82046  0.41876  0.90396  1.0000
  C   C1998     1.0  0.84219  0.44121  0.89946  1.0000
  H   H1566     1.0  0.64253  0.14534  0.97865  1.0000
  C   C1999     1.0  0.85755  0.41467  0.88517  1.0000
  H   H1567     1.0  0.74586  0.31949  0.85568  1.0000
  H   H1568     1.0  0.76386  0.33688  0.82979  1.0000
  H   H1569     1.0  0.81134  0.36466  0.82736  1.0000
  H   H1570     1.0  0.84080  0.37477  0.85060  1.0000
  H   H1571     1.0  0.77499  0.32947  0.87900  1.0000
  H   H1572     1.0  0.88359  0.38686  0.89787  1.0000
  H   H1573     1.0  0.92455  0.38530  0.89247  1.0000
  H   H1574     1.0  0.50210  0.04358  0.96219  1.0000
  H   H1575     1.0  0.88650  0.32974  0.85474  1.0000
  H   H1576     1.0  0.84533  0.33106  0.85996  1.0000
  H   H1577     1.0  0.82939  0.36307  0.91790  1.0000
  H   H1578     1.0  0.81400  0.32936  0.93775  1.0000
  H   H1579     1.0  0.79416  0.28258  0.92962  1.0000
  H   H1580     1.0  0.79013  0.26987  0.90148  1.0000
  H   H1581     1.0  0.80602  0.30350  0.88134  1.0000
  H   H1582     1.0  0.80013  0.37704  0.90254  1.0000
  H   H1583     1.0  0.80621  0.42043  0.91131  1.0000
  H   H1584     1.0  0.84504  0.46026  0.90345  1.0000
  C   C2000     1.0  0.61925  0.14556  0.95881  1.0000
  H   H1585     1.0  0.87197  0.41360  0.87773  1.0000
  C   C2001     1.0  0.85088  0.05279  0.75949  1.0000
  C   C2002     1.0  0.61477  0.01331  0.97972  1.0000
  C   C2003     1.0  0.81342  0.07508  0.74310  1.0000
  H   H1586     1.0  0.87651  0.12938  0.76443  1.0000
  H   H1587     1.0  0.68619  0.99155  0.93393  1.0000
  C   C2004     1.0  0.70825  0.03261  0.96596  1.0000
  C   C2005     1.0  0.80301  0.15384  0.94372  1.0000
  C   C2006     1.0  0.59726  0.45072  0.94631  1.0000
  C   C2007     1.0  0.76496  0.00256  0.74729  1.0000
  H   H1588     1.0  0.73643  0.07345  0.93586  1.0000
  C   C2008     1.0  0.52972  0.99589  0.96691  1.0000
  C   C2009     1.0  0.72169  0.12319  0.97639  1.0000
  H   H1589     1.0  0.71334  0.03263  0.92067  1.0000
  S   S257      1.0  0.77130  0.99903  0.83675  1.0000
  C   C2010     1.0  0.50280  0.06050  0.96822  1.0000
  C   C2011     1.0  0.90299  0.18195  0.74134  1.0000
  C   C2012     1.0  0.94033  0.47791  0.96191  1.0000
  H   H1590     1.0  0.94650  0.47306  0.95097  1.0000
  H   H1591     1.0  0.64793  0.01104  0.97049  1.0000
  H   H1592     1.0  0.91214  0.20303  0.74215  1.0000
  H   H1593     1.0  0.89877  0.42038  0.96452  1.0000
  H   H1594     1.0  0.73028  0.01710  0.86446  1.0000
  C   C2013     1.0  0.57507  0.11086  0.95731  1.0000
  C   C2014     1.0  0.95688  0.34291  0.98126  1.0000
  C   C2015     1.0  0.50137  0.43117  0.95941  1.0000
  H   H1595     1.0  0.87751  0.45668  0.88661  1.0000
  H   H1596     1.0  0.91232  0.08880  0.78643  1.0000
  C   C2016     1.0  0.89537  0.07854  0.77875  1.0000
  H   H1597     1.0  0.86372  0.34265  0.98126  1.0000
  H   H1598     1.0  0.55644  0.10141  0.95107  1.0000
  C   C2017     1.0  0.72315  0.05619  0.95850  1.0000
  C   C2018     1.0  0.87582  0.05426  0.78291  1.0000
  C   C2019     1.0  0.86976  0.07776  0.75565  1.0000
  H   H1599     1.0  0.49030  0.48025  0.95225  1.0000
  S   S258      1.0  0.97147  0.18984  0.82578  1.0000
  C   C2020     1.0  0.89236  0.09029  0.76519  1.0000
  S   S259      1.0  0.49657  0.38614  0.91901  1.0000
  C   C2021     1.0  0.84158  0.19280  0.90794  1.0000
  C   C2022     1.0  0.86511  0.19343  0.91249  1.0000
  C   C2023     1.0  0.86837  0.17108  0.91071  1.0000
  C   C2024     1.0  0.84819  0.14817  0.90420  1.0000
  C   C2025     1.0  0.82462  0.14749  0.89928  1.0000
  C   C2026     1.0  0.82141  0.17000  0.90132  1.0000
  P   P67       1.0  0.79838  0.11751  0.89127  1.0000
  C   C2027     1.0  0.76955  0.12160  0.88883  1.0000
  C   C2028     1.0  0.80564  0.10816  0.87233  1.0000
  C   C2029     1.0  0.78520  0.09074  0.86236  1.0000
  C   C2030     1.0  0.79047  0.08195  0.84817  1.0000
  C   C2031     1.0  0.81610  0.09077  0.84364  1.0000
  C   C2032     1.0  0.83656  0.10850  0.85327  1.0000
  C   C2033     1.0  0.83139  0.11724  0.86755  1.0000
  C   C2034     1.0  0.75057  0.11306  0.90031  1.0000
  C   C2035     1.0  0.72849  0.11663  0.89850  1.0000
  C   C2036     1.0  0.72502  0.12857  0.88520  1.0000
  C   C2037     1.0  0.74389  0.13722  0.87371  1.0000
  C   C2038     1.0  0.76617  0.13385  0.87553  1.0000
  C   C2039     1.0  0.79118  0.09147  0.90481  1.0000
  C   C2040     1.0  0.79859  0.09707  0.92077  1.0000
  C   C2041     1.0  0.79179  0.07696  0.93138  1.0000
  C   C2042     1.0  0.77744  0.05108  0.92617  1.0000
  C   C2043     1.0  0.76977  0.04532  0.91036  1.0000
  C   C2044     1.0  0.77651  0.06538  0.89973  1.0000
  H   H1600     1.0  0.83894  0.21003  0.90971  1.0000
  H   H1601     1.0  0.88072  0.21125  0.91751  1.0000
  H   H1602     1.0  0.88655  0.17154  0.91440  1.0000
  H   H1603     1.0  0.85088  0.13090  0.90309  1.0000
  H   H1604     1.0  0.80333  0.17010  0.89806  1.0000
  H   H1605     1.0  0.76510  0.08352  0.86561  1.0000
  H   H1606     1.0  0.77464  0.06817  0.84067  1.0000
  H   H1607     1.0  0.82009  0.08384  0.83265  1.0000
  H   H1608     1.0  0.85642  0.11513  0.84967  1.0000
  H   H1609     1.0  0.84760  0.13079  0.87477  1.0000
  H   H1610     1.0  0.75247  0.10343  0.91063  1.0000
  H   H1611     1.0  0.71388  0.10962  0.90736  1.0000
  H   H1612     1.0  0.70759  0.13089  0.88378  1.0000
  H   H1613     1.0  0.74108  0.14631  0.86336  1.0000
  H   H1614     1.0  0.78062  0.14061  0.86653  1.0000
  H   H1615     1.0  0.80927  0.11695  0.92511  1.0000
  H   H1616     1.0  0.79742  0.08147  0.94368  1.0000
  H   H1617     1.0  0.77191  0.03549  0.93440  1.0000
  H   H1618     1.0  0.75829  0.02528  0.90631  1.0000
  H   H1619     1.0  0.76983  0.06034  0.88764  1.0000
  C   C2045     1.0  0.71220  0.03257  0.93335  1.0000
  Fe  Fe133     1.0  0.77190  0.00843  0.79116  1.0000
  C   C2046     1.0  0.75782  0.12255  0.94637  1.0000
  C   C2047     1.0  0.77711  0.14326  0.93854  1.0000
  H   H1620     1.0  0.81774  0.17048  0.93793  1.0000
  H   H1621     1.0  0.51467  0.43512  0.94990  1.0000
  C   C2048     1.0  0.73786  0.99200  0.74618  1.0000
  S   S260      1.0  0.78274  0.01243  0.76540  1.0000
  C   C2049     1.0  0.96348  0.15005  0.75424  1.0000
  C   C2050     1.0  0.55550  0.47449  0.91666  1.0000
  H   H1622     1.0  0.93333  0.26141  0.81276  1.0000
  H   H1623     1.0  0.51568  0.11755  0.91505  1.0000
  C   C2051     1.0  0.71531  0.09664  0.97594  1.0000
  C   C2052     1.0  0.60274  0.47663  0.94900  1.0000
  C   C2053     1.0  0.56469  0.46268  0.96510  1.0000
  H   H1624     1.0  0.74035  0.13783  0.97260  1.0000
  C   C2054     1.0  0.88037  0.36171  0.98085  1.0000
  H   H1625     1.0  0.92617  0.35700  0.87082  1.0000
  P   P68       1.0  0.73906  0.08623  0.97011  1.0000
  C   C2055     1.0  0.59502  0.13307  0.95106  1.0000
  C   C2056     1.0  0.96652  0.44089  0.95732  1.0000
  C   C2057     1.0  0.54824  0.04308  0.96830  1.0000
  H   H1626     1.0  0.56982  0.02293  0.93654  1.0000
  P   P69       1.0  0.86629  0.09245  0.73781  1.0000
  H   H1627     1.0  0.72683  0.98888  0.75673  1.0000
  H   H1628     1.0  0.60927  0.44610  0.93855  1.0000
  H   H1629     1.0  0.68296  0.99144  0.96295  1.0000
  H   H1630     1.0  0.96804  0.29256  0.84308  1.0000
  C   C2058     1.0  0.50978  0.44492  0.97384  1.0000
  H   H1631     1.0  0.63484  0.16245  0.95373  1.0000
  H   H1632     1.0  0.95343  0.12894  0.77567  1.0000
  H   H1633     1.0  0.95042  0.15851  0.75607  1.0000
  C   C2059     1.0  0.63254  0.00325  0.97883  1.0000
  H   H1634     1.0  0.95829  0.32304  0.85925  1.0000
  C   C2060     1.0  0.96505  0.13323  0.76525  1.0000
  H   H1635     1.0  0.86063  0.37769  0.96645  1.0000
  S   S261      1.0  0.79706  0.99412  0.80358  1.0000
  C   C2061     1.0  0.69508  0.00938  0.95715  1.0000
  C   C2062     1.0  0.52463  0.07734  0.97743  1.0000
  H   H1636     1.0  0.62408  0.44207  0.97621  1.0000
  S   S262      1.0  0.95918  0.23882  0.84845  1.0000
  C   C2063     1.0  0.90040  0.40570  0.97149  1.0000
  C   C2064     1.0  0.53200  0.01860  0.97433  1.0000
  C   C2065     1.0  0.58677  0.48266  0.95854  1.0000
  H   H1637     1.0  0.52180  0.01717  0.98506  1.0000
  C   C2066     1.0  0.87861  0.38145  0.97257  1.0000
  C   C2067     1.0  0.63304  0.46258  0.97949  1.0000
  H   H1638     1.0  0.70830  0.15165  0.98089  1.0000
  H   H1639     1.0  0.79632  0.11461  0.97425  1.0000
  P   P70       1.0  0.55295  0.07209  0.97910  1.0000
  C   C2068     1.0  0.78746  0.06643  0.73837  1.0000
  P   P71       1.0  0.95256  0.44141  0.97602  1.0000
  C   C2069     1.0  0.88088  0.12747  0.73932  1.0000
  H   H1640     1.0  0.52177  0.48092  0.91799  1.0000
  C   C2070     1.0  0.65249  0.48065  0.97029  1.0000
  C   C2071     1.0  0.49166  0.44025  0.98565  1.0000
  H   H1641     1.0  0.92478  0.23759  0.98292  1.0000
  C   C2072     1.0  0.50443  0.10543  0.98208  1.0000
  H   H1642     1.0  0.94601  0.28581  0.98411  1.0000
  C   C2073     1.0  0.52543  0.10002  0.98417  1.0000
  C   C2074     1.0  0.48270  0.08847  0.97301  1.0000
  H   H1643     1.0  0.48258  0.98758  0.94091  1.0000
  C   C2075     1.0  0.97730  0.22188  0.74777  1.0000
  C   C2076     1.0  0.48195  0.06612  0.96607  1.0000
  H   H1644     1.0  0.47755  0.29574  0.87961  1.0000
  C   C2077     1.0  0.67934  0.11308  0.98639  1.0000
  H   H1645     1.0  0.57835  0.88716  0.11041  1.0000
  S   S263      1.0  0.49373  0.91843  0.04397  1.0000
  Fe  Fe134     1.0  0.94938  0.78301  0.15543  1.0000
  S   S264      1.0  0.92219  0.80122  0.15157  1.0000
  S   S265      1.0  0.93648  0.74008  0.15514  1.0000
  Fe  Fe135     1.0  0.75755  0.96776  0.16933  1.0000
  S   S266      1.0  0.72234  0.97437  0.17015  1.0000
  S   S267      1.0  0.74990  0.92822  0.17783  1.0000
  H   H1646     1.0  0.59461  0.51569  0.02435  1.0000
  Fe  Fe136     1.0  0.77190  0.76260  0.15700  1.0000
  S   S268      1.0  0.73086  0.74058  0.16589  1.0000
  S   S269      1.0  0.79844  0.74318  0.15743  1.0000
  Fe  Fe137     1.0  0.76632  0.81119  0.15150  1.0000
  S   S270      1.0  0.72579  0.79311  0.15996  1.0000
  S   S271      1.0  0.78509  0.85249  0.14308  1.0000
  Fe  Fe138     1.0  0.74049  0.77760  0.17958  1.0000
  S   S272      1.0  0.73012  0.78597  0.20398  1.0000
  Fe  Fe139     1.0  0.71900  0.75770  0.14539  1.0000
  S   S273      1.0  0.67889  0.74130  0.13262  1.0000
  S   S274      1.0  0.78183  0.79834  0.17203  1.0000
  S   S275      1.0  0.75927  0.77695  0.13559  1.0000
  Fe  Fe140     1.0  0.52510  0.62620  0.04852  1.0000
  S   S276      1.0  0.52542  0.64492  0.02553  1.0000
  Fe  Fe141     1.0  0.58354  0.66523  0.05538  1.0000
  S   S277      1.0  0.58673  0.68487  0.03231  1.0000
  S   S278      1.0  0.62219  0.67746  0.06921  1.0000
  Fe  Fe142     1.0  0.54857  0.68402  0.03834  1.0000
  S   S279      1.0  0.54275  0.71989  0.03179  1.0000
  Fe  Fe143     1.0  0.56376  0.64467  0.02140  1.0000
  S   S280      1.0  0.56678  0.62640  0.99769  1.0000
  S   S281      1.0  0.54594  0.66539  0.06187  1.0000
  S   S282      1.0  0.56280  0.62494  0.04400  1.0000
  Fe  Fe144     1.0  0.57902  0.92377  0.06812  1.0000
  S   S283      1.0  0.59514  0.90661  0.05030  1.0000
  S   S284      1.0  0.59797  0.94079  0.09249  1.0000
  Fe  Fe145     1.0  0.52829  0.90855  0.04754  1.0000
  S   S285      1.0  0.54196  0.88961  0.02873  1.0000
  Fe  Fe146     1.0  0.55515  0.87215  0.04858  1.0000
  S   S286      1.0  0.55360  0.83206  0.05393  1.0000
  Fe  Fe147     1.0  0.58099  0.92540  0.03194  1.0000
  S   S287      1.0  0.60883  0.94721  0.01214  1.0000
  S   S288      1.0  0.53906  0.88906  0.06715  1.0000
  S   S289      1.0  0.56731  0.94474  0.05000  1.0000
  C   C2078     1.0  0.59225  0.88164  0.10544  1.0000
  H   H1647     1.0  0.66147  0.96760  0.13685  1.0000
  C   C2079     1.0  0.61561  0.88774  0.11352  1.0000
  H   H1648     1.0  0.95145  0.62202  0.09524  1.0000
  C   C2080     1.0  0.70254  0.58171  0.01798  1.0000
  C   C2081     1.0  0.63075  0.80399  0.00777  1.0000
  H   H1649     1.0  0.72755  0.60697  0.03659  1.0000
  C   C2082     1.0  0.54612  0.75108  0.03835  1.0000
  C   C2083     1.0  0.55127  0.75989  0.05409  1.0000
  C   C2084     1.0  0.55329  0.78449  0.05859  1.0000
  C   C2085     1.0  0.55042  0.80089  0.04750  1.0000
  C   C2086     1.0  0.54546  0.79213  0.03177  1.0000
  C   C2087     1.0  0.54325  0.76748  0.02729  1.0000
  H   H1650     1.0  0.55336  0.74759  0.06280  1.0000
  H   H1651     1.0  0.55702  0.79084  0.07080  1.0000
  H   H1652     1.0  0.54315  0.80429  0.02303  1.0000
  H   H1653     1.0  0.53923  0.76105  0.01510  1.0000
  S   S290      1.0  0.49191  0.58798  0.05798  1.0000
  C   C2088     1.0  0.92114  0.48914  0.98931  1.0000
  H   H1654     1.0  0.70161  0.78300  0.05609  1.0000
  C   C2089     1.0  0.66425  0.72534  0.11428  1.0000
  C   C2090     1.0  0.63830  0.71971  0.11077  1.0000
  C   C2091     1.0  0.62538  0.70605  0.09677  1.0000
  C   C2092     1.0  0.63812  0.69736  0.08620  1.0000
  C   C2093     1.0  0.66423  0.70350  0.08955  1.0000
  C   C2094     1.0  0.67732  0.71766  0.10336  1.0000
  H   H1655     1.0  0.62796  0.72559  0.11908  1.0000
  H   H1656     1.0  0.60529  0.70142  0.09444  1.0000
  H   H1657     1.0  0.67432  0.69689  0.08149  1.0000
  H   H1658     1.0  0.69734  0.72210  0.10571  1.0000
  C   C2095     1.0  0.73160  0.77149  0.22185  1.0000
  C   C2096     1.0  0.73266  0.74786  0.22226  1.0000
  C   C2097     1.0  0.97552  0.55236  0.01026  1.0000
  H   H1659     1.0  0.73398  0.73858  0.21143  1.0000
  C   C2098     1.0  0.71686  0.58707  0.03214  1.0000
  C   C2099     1.0  0.75914  0.90743  0.16743  1.0000
  C   C2100     1.0  0.75230  0.88279  0.17335  1.0000
  C   C2101     1.0  0.75994  0.86578  0.16584  1.0000
  C   C2102     1.0  0.77456  0.87332  0.15230  1.0000
  C   C2103     1.0  0.78113  0.89787  0.14618  1.0000
  C   C2104     1.0  0.77337  0.91491  0.15371  1.0000
  H   H1660     1.0  0.74163  0.87708  0.18406  1.0000
  H   H1661     1.0  0.75505  0.84710  0.17079  1.0000
  H   H1662     1.0  0.79251  0.90383  0.13572  1.0000
  H   H1663     1.0  0.77882  0.93396  0.14909  1.0000
  H   H1664     1.0  0.49249  0.91478  0.07802  1.0000
  C   C2105     1.0  0.68020  0.96860  0.11511  1.0000
  C   C2106     1.0  0.65080  0.95340  0.09179  1.0000
  C   C2107     1.0  0.62959  0.94983  0.10089  1.0000
  C   C2108     1.0  0.63377  0.95488  0.11722  1.0000
  H   H1665     1.0  0.91052  0.84983  0.23184  1.0000
  H   H1666     1.0  0.64803  0.94981  0.07923  1.0000
  C   C2109     1.0  0.57380  0.68841  0.98834  1.0000
  C   C2110     1.0  0.48641  0.94816  0.00586  1.0000
  C   C2111     1.0  0.95830  0.64637  0.03140  1.0000
  H   H1667     1.0  0.95920  0.66057  0.00807  1.0000
  C   C2112     1.0  0.88786  0.78486  0.15370  1.0000
  C   C2113     1.0  0.87467  0.75873  0.15780  1.0000
  C   C2114     1.0  0.84736  0.74634  0.15899  1.0000
  C   C2115     1.0  0.83291  0.75991  0.15624  1.0000
  C   C2116     1.0  0.84612  0.78611  0.15232  1.0000
  C   C2117     1.0  0.87343  0.79850  0.15111  1.0000
  H   H1668     1.0  0.88546  0.74798  0.15986  1.0000
  H   H1669     1.0  0.83737  0.72606  0.16197  1.0000
  H   H1670     1.0  0.83528  0.79675  0.15003  1.0000
  H   H1671     1.0  0.88340  0.81870  0.14793  1.0000
  H   H1672     1.0  0.69010  0.73687  0.06093  1.0000
  P   P72       1.0  0.64284  0.76242  0.00938  1.0000
  H   H1673     1.0  0.87310  0.53424  0.03501  1.0000
  H   H1674     1.0  0.86869  0.55287  0.06057  1.0000
  C   C2118     1.0  0.73998  0.67875  0.14896  1.0000
  C   C2119     1.0  0.74711  0.69621  0.13669  1.0000
  C   C2120     1.0  0.72894  0.70283  0.12993  1.0000
  C   C2121     1.0  0.70354  0.69172  0.13528  1.0000
  C   C2122     1.0  0.69589  0.67337  0.14713  1.0000
  C   C2123     1.0  0.71450  0.66747  0.15426  1.0000
  P   P73       1.0  0.66355  0.66058  0.15465  1.0000
  C   C2124     1.0  0.63991  0.65648  0.13931  1.0000
  C   C2125     1.0  0.65313  0.62845  0.16206  1.0000
  C   C2126     1.0  0.65988  0.61092  0.15431  1.0000
  C   C2127     1.0  0.65136  0.58577  0.15984  1.0000
  C   C2128     1.0  0.63576  0.57787  0.17299  1.0000
  C   C2129     1.0  0.63698  0.62020  0.17504  1.0000
  C   C2130     1.0  0.64390  0.65129  0.12369  1.0000
  C   C2131     1.0  0.62550  0.64796  0.11187  1.0000
  C   C2132     1.0  0.60276  0.64927  0.11558  1.0000
  C   C2133     1.0  0.59823  0.65358  0.13115  1.0000
  C   C2134     1.0  0.61660  0.65692  0.14301  1.0000
  C   C2135     1.0  0.66576  0.68337  0.17005  1.0000
  C   C2136     1.0  0.65945  0.70352  0.16692  1.0000
  C   C2137     1.0  0.66321  0.72240  0.17852  1.0000
  C   C2138     1.0  0.67340  0.72138  0.19332  1.0000
  C   C2139     1.0  0.67976  0.70139  0.19654  1.0000
  C   C2140     1.0  0.67625  0.68261  0.18491  1.0000
  H   H1675     1.0  0.75453  0.67465  0.15462  1.0000
  H   H1676     1.0  0.76701  0.70536  0.13283  1.0000
  H   H1677     1.0  0.73477  0.71717  0.12087  1.0000
  H   H1678     1.0  0.68996  0.69779  0.13038  1.0000
  H   H1679     1.0  0.70952  0.65462  0.16408  1.0000
  H   H1680     1.0  0.67162  0.61664  0.14396  1.0000
  C   C2141     1.0  0.97012  0.66267  0.01892  1.0000
  H   H1681     1.0  0.63077  0.63310  0.18086  1.0000
  H   H1682     1.0  0.66128  0.65001  0.12054  1.0000
  H   H1683     1.0  0.62901  0.64484  0.09974  1.0000
  H   H1684     1.0  0.58881  0.64717  0.10631  1.0000
  H   H1685     1.0  0.58053  0.65451  0.13399  1.0000
  H   H1686     1.0  0.61266  0.66000  0.15503  1.0000
  H   H1687     1.0  0.65232  0.70515  0.15540  1.0000
  H   H1688     1.0  0.65879  0.73815  0.17582  1.0000
  H   H1689     1.0  0.67694  0.73638  0.20221  1.0000
  H   H1690     1.0  0.68797  0.70084  0.20797  1.0000
  H   H1691     1.0  0.68220  0.66785  0.18741  1.0000
  C   C2142     1.0  0.70627  0.91155  0.14224  1.0000
  C   C2143     1.0  0.68776  0.92039  0.14398  1.0000
  C   C2144     1.0  0.66202  0.90282  0.14675  1.0000
  C   C2145     1.0  0.65455  0.87621  0.14724  1.0000
  C   C2146     1.0  0.67278  0.86692  0.14467  1.0000
  C   C2147     1.0  0.69889  0.88495  0.14265  1.0000
  P   P74       1.0  0.66327  0.83263  0.14646  1.0000
  C   C2148     1.0  0.67289  0.82749  0.16583  1.0000
  C   C2149     1.0  0.62852  0.81465  0.14297  1.0000
  C   C2150     1.0  0.61260  0.79573  0.15337  1.0000
  C   C2151     1.0  0.58575  0.78201  0.15038  1.0000
  C   C2152     1.0  0.57465  0.78716  0.13705  1.0000
  C   C2153     1.0  0.59037  0.80601  0.12667  1.0000
  C   C2154     1.0  0.61720  0.81964  0.12957  1.0000
  C   C2155     1.0  0.67340  0.80402  0.16899  1.0000
  C   C2156     1.0  0.68245  0.80049  0.18363  1.0000
  C   C2157     1.0  0.69117  0.82032  0.19515  1.0000
  C   C2158     1.0  0.69041  0.84360  0.19218  1.0000
  C   C2159     1.0  0.68133  0.84724  0.17759  1.0000
  C   C2160     1.0  0.67911  0.82112  0.13245  1.0000
  C   C2161     1.0  0.70581  0.82883  0.13426  1.0000
  C   C2162     1.0  0.71797  0.81884  0.12413  1.0000
  C   C2163     1.0  0.70350  0.80038  0.11246  1.0000
  C   C2164     1.0  0.67685  0.79207  0.11078  1.0000
  C   C2165     1.0  0.66468  0.80243  0.12062  1.0000
  H   H1692     1.0  0.72650  0.92543  0.14088  1.0000
  H   H1693     1.0  0.69348  0.94094  0.14355  1.0000
  H   H1694     1.0  0.64798  0.90996  0.14869  1.0000
  H   H1695     1.0  0.63462  0.86309  0.14988  1.0000
  H   H1696     1.0  0.71381  0.87884  0.14175  1.0000
  H   H1697     1.0  0.62077  0.79147  0.16376  1.0000
  H   H1698     1.0  0.57353  0.76735  0.15841  1.0000
  H   H1699     1.0  0.55384  0.77652  0.13477  1.0000
  H   H1700     1.0  0.58174  0.81007  0.11637  1.0000
  H   H1701     1.0  0.62922  0.83403  0.12134  1.0000
  H   H1702     1.0  0.66759  0.78874  0.15999  1.0000
  H   H1703     1.0  0.68378  0.78279  0.18587  1.0000
  H   H1704     1.0  0.69910  0.81771  0.20620  1.0000
  H   H1705     1.0  0.69774  0.85927  0.20095  1.0000
  H   H1706     1.0  0.68173  0.86579  0.17546  1.0000
  H   H1707     1.0  0.71718  0.84177  0.14386  1.0000
  H   H1708     1.0  0.73848  0.82459  0.12575  1.0000
  H   H1709     1.0  0.71274  0.79165  0.10521  1.0000
  H   H1710     1.0  0.66542  0.77664  0.10233  1.0000
  H   H1711     1.0  0.64390  0.79487  0.11925  1.0000
  C   C2166     1.0  0.61813  0.63705  0.99154  1.0000
  H   H1712     1.0  0.93760  0.82095  0.18351  1.0000
  C   C2167     1.0  0.50403  0.53268  0.01538  1.0000
  H   H1713     1.0  0.91468  0.55517  0.02102  1.0000
  C   C2168     1.0  0.67615  0.77392  0.03563  1.0000
  H   H1714     1.0  0.79282  0.75329  0.23638  1.0000
  C   C2169     1.0  0.90525  0.81875  0.19659  1.0000
  H   H1715     1.0  0.93841  0.64595  0.11442  1.0000
  C   C2170     1.0  0.93124  0.59641  0.05308  1.0000
  H   H1716     1.0  0.95455  0.54407  0.00929  1.0000
  C   C2171     1.0  0.91282  0.56311  0.03227  1.0000
  H   H1717     1.0  0.62369  0.64770  0.00267  1.0000
  C   C2172     1.0  0.68792  0.76775  0.04823  1.0000
  H   H1718     1.0  0.84891  0.66713  0.20161  1.0000
  H   H1719     1.0  0.74091  0.84217  0.22319  1.0000
  C   C2173     1.0  0.77189  0.85873  0.20716  1.0000
  C   C2174     1.0  0.79159  0.88148  0.20130  1.0000
  C   C2175     1.0  0.79599  0.90569  0.20750  1.0000
  C   C2176     1.0  0.78065  0.90716  0.21958  1.0000
  C   C2177     1.0  0.65876  0.96381  0.12432  1.0000
  C   C2178     1.0  0.94654  0.64181  0.07506  1.0000
  C   C2179     1.0  0.89717  0.82591  0.21049  1.0000
  C   C2180     1.0  0.62207  0.78162  0.03241  1.0000
  H   H1720     1.0  0.96917  0.58107  0.05778  1.0000
  C   C2181     1.0  0.91606  0.84272  0.22148  1.0000
  H   H1721     1.0  0.67036  0.86697  0.02517  1.0000
  H   H1722     1.0  0.48504  0.57844  0.00643  1.0000
  H   H1723     1.0  0.76832  0.83998  0.20217  1.0000
  H   H1724     1.0  0.80284  0.88032  0.19158  1.0000
  H   H1725     1.0  0.81077  0.92335  0.20262  1.0000
  C   C2182     1.0  0.88938  0.55140  0.04012  1.0000
  C   C2183     1.0  0.61046  0.97262  0.99980  1.0000
  P   P75       1.0  0.95800  0.62593  0.06102  1.0000
  H   H1726     1.0  0.97064  0.84891  0.20354  1.0000
  H   H1727     1.0  0.66284  0.78371  0.07028  1.0000
  C   C2184     1.0  0.82966  0.67973  0.21868  1.0000
  H   H1728     1.0  0.70490  0.52557  0.04095  1.0000
  C   C2185     1.0  0.88688  0.56196  0.05449  1.0000
  C   C2186     1.0  0.65852  0.75420  0.02534  1.0000
  C   C2187     1.0  0.87606  0.69437  0.21866  1.0000
  H   H1729     1.0  0.66437  0.90633  0.02149  1.0000
  H   H1730     1.0  0.58734  0.57599  0.99672  1.0000
  C   C2188     1.0  0.64411  0.55783  0.99510  1.0000
  C   C2189     1.0  0.50494  0.55714  0.01430  1.0000
  H   H1731     1.0  0.61756  0.95212  0.12441  1.0000
  H   H1732     1.0  0.95693  0.86354  0.22765  1.0000
  C   C2190     1.0  0.75624  0.86011  0.21908  1.0000
  H   H1733     1.0  0.92535  0.67878  0.10551  1.0000
  C   C2191     1.0  0.80141  0.74741  0.19793  1.0000
  C   C2192     1.0  0.81244  0.73061  0.19601  1.0000
  C   C2193     1.0  0.83877  0.73932  0.19970  1.0000
  C   C2194     1.0  0.85416  0.76492  0.20516  1.0000
  C   C2195     1.0  0.84343  0.78220  0.20655  1.0000
  C   C2196     1.0  0.81681  0.77309  0.20322  1.0000
  C   C2197     1.0  0.85566  0.83656  0.20113  1.0000
  C   C2198     1.0  0.84918  0.83015  0.18515  1.0000
  C   C2199     1.0  0.84434  0.84680  0.17549  1.0000
  C   C2200     1.0  0.84598  0.87000  0.18170  1.0000
  C   C2201     1.0  0.85291  0.87679  0.19756  1.0000
  C   C2202     1.0  0.85799  0.86025  0.20722  1.0000
  H   H1734     1.0  0.78113  0.74082  0.19472  1.0000
  H   H1735     1.0  0.80070  0.71108  0.19125  1.0000
  H   H1736     1.0  0.84743  0.72644  0.19799  1.0000
  H   H1737     1.0  0.87443  0.77114  0.20804  1.0000
  H   H1738     1.0  0.83904  0.84159  0.16318  1.0000
  H   H1739     1.0  0.84188  0.88265  0.17417  1.0000
  H   H1740     1.0  0.85441  0.89491  0.20232  1.0000
  H   H1741     1.0  0.86379  0.86601  0.21939  1.0000
  C   C2203     1.0  0.94247  0.85082  0.21906  1.0000
  H   H1742     1.0  0.90532  0.59239  0.07205  1.0000
  C   C2204     1.0  0.93374  0.58539  0.03877  1.0000
  H   H1743     1.0  0.60386  0.82972  0.03357  1.0000
  C   C2205     1.0  0.58997  0.72889  0.00349  1.0000
  C   C2206     1.0  0.61886  0.57442  0.00964  1.0000
  C   C2207     1.0  0.67592  0.96299  0.09883  1.0000
  H   H1744     1.0  0.48775  0.93007  0.00537  1.0000
  H   H1745     1.0  0.68070  0.79404  0.03392  1.0000
  C   C2208     1.0  0.56916  0.70629  0.99719  1.0000
  H   H1746     1.0  0.78402  0.92610  0.22409  1.0000
  C   C2209     1.0  0.93853  0.66005  0.07006  1.0000
  H   H1747     1.0  0.72880  0.57103  0.05139  1.0000
  H   H1748     1.0  0.69147  0.84345  0.22862  1.0000
  H   H1749     1.0  0.81040  0.66765  0.21366  1.0000
  H   H1750     1.0  0.72934  0.80171  0.23585  1.0000
  H   H1751     1.0  0.62969  0.50388  0.00709  1.0000
  C   C2210     1.0  0.63038  0.98309  0.98880  1.0000
  H   H1752     1.0  0.92491  0.68750  0.07719  1.0000
  C   C2211     1.0  0.85457  0.81673  0.23354  1.0000
  H   H1753     1.0  0.52141  0.57435  0.01928  1.0000
  H   H1754     1.0  0.51981  0.53094  0.02129  1.0000
  H   H1755     1.0  0.89123  0.80692  0.18749  1.0000
  H   H1756     1.0  0.69227  0.96663  0.09155  1.0000
  C   C2212     1.0  0.95022  0.84268  0.20549  1.0000
  C   C2213     1.0  0.70405  0.54122  0.03459  1.0000
  H   H1757     1.0  0.58577  0.74215  0.01054  1.0000
  H   H1758     1.0  0.65152  0.57138  0.01949  1.0000
  C   C2214     1.0  0.50516  0.96949  0.01444  1.0000
  C   C2215     1.0  0.72314  0.91044  0.21730  1.0000
  C   C2216     1.0  0.95787  0.74228  0.21804  1.0000
  C   C2217     1.0  0.66508  0.77744  0.99371  1.0000
  C   C2218     1.0  0.47735  0.91399  0.08563  1.0000
  H   H1759     1.0  0.89709  0.76147  0.22973  1.0000
  S   S291      1.0  0.71280  0.98264  0.12305  1.0000
  C   C2219     1.0  0.73013  0.78345  0.23602  1.0000
  C   C2220     1.0  0.59261  0.98260  0.00060  1.0000
  C   C2221     1.0  0.65681  0.90976  0.04581  1.0000
  C   C2222     1.0  0.66261  0.89816  0.03302  1.0000
  C   C2223     1.0  0.66588  0.87597  0.03511  1.0000
  C   C2224     1.0  0.66295  0.86510  0.04994  1.0000
  C   C2225     1.0  0.65669  0.87638  0.06286  1.0000
  C   C2226     1.0  0.65398  0.89904  0.06066  1.0000
  P   P76       1.0  0.65333  0.86305  0.08229  1.0000
  C   C2227     1.0  0.62923  0.86957  0.09181  1.0000
  C   C2228     1.0  0.64217  0.82812  0.08094  1.0000
  C   C2229     1.0  0.61666  0.81050  0.08489  1.0000
  C   C2230     1.0  0.65878  0.81817  0.07567  1.0000
  C   C2231     1.0  0.63406  0.88168  0.10678  1.0000
  C   C2232     1.0  0.68854  0.55599  0.01213  1.0000
  H   H1760     1.0  0.93796  0.63243  0.03012  1.0000
  C   C2233     1.0  0.58724  0.86938  0.09063  1.0000
  C   C2234     1.0  0.60569  0.86353  0.08378  1.0000
  C   C2235     1.0  0.68447  0.88080  0.09254  1.0000
  C   C2236     1.0  0.69614  0.90812  0.09356  1.0000
  C   C2237     1.0  0.72011  0.92230  0.10144  1.0000
  C   C2238     1.0  0.73294  0.90938  0.10813  1.0000
  C   C2239     1.0  0.72141  0.88222  0.10734  1.0000
  C   C2240     1.0  0.69705  0.86793  0.09986  1.0000
  H   H1761     1.0  0.65407  0.92689  0.04417  1.0000
  H   H1762     1.0  0.52097  0.96782  0.02047  1.0000
  P   P77       1.0  0.67071  0.54983  0.99365  1.0000
  H   H1763     1.0  0.66522  0.84776  0.05108  1.0000
  H   H1764     1.0  0.64923  0.90831  0.07035  1.0000
  H   H1765     1.0  0.60313  0.81717  0.08890  1.0000
  H   H1766     1.0  0.67857  0.83119  0.07264  1.0000
  H   H1767     1.0  0.65220  0.88699  0.11313  1.0000
  H   H1768     1.0  0.56928  0.86495  0.08424  1.0000
  H   H1769     1.0  0.60171  0.85457  0.07211  1.0000
  H   H1770     1.0  0.68650  0.91854  0.08854  1.0000
  C   C2241     1.0  0.76036  0.88439  0.22530  1.0000
  H   H1771     1.0  0.75153  0.92038  0.11427  1.0000
  H   H1772     1.0  0.73124  0.87229  0.11283  1.0000
  H   H1773     1.0  0.68822  0.84698  0.09999  1.0000
  H   H1774     1.0  0.97473  0.76980  0.09610  1.0000
  C   C2242     1.0  0.61190  0.81740  0.02902  1.0000
  H   H1775     1.0  0.62910  0.55836  0.17724  1.0000
  C   C2243     1.0  0.60285  0.57048  0.99637  1.0000
  C   C2244     1.0  0.85129  0.67931  0.21194  1.0000
  C   C2245     1.0  0.83287  0.69570  0.23192  1.0000
  C   C2246     1.0  0.68164  0.74182  0.05091  1.0000
  H   H1776     1.0  0.93883  0.66463  0.05779  1.0000
  C   C2247     1.0  0.94570  0.63623  0.09108  1.0000
  H   H1777     1.0  0.89289  0.69392  0.21354  1.0000
  H   H1778     1.0  0.67464  0.92794  0.21575  1.0000
  S   S292      1.0  0.94741  0.72589  0.19948  1.0000
  C   C2248     1.0  0.93047  0.67297  0.08100  1.0000
  H   H1779     1.0  0.96540  0.80642  0.10297  1.0000
  C   C2249     1.0  0.60800  0.78364  0.08353  1.0000
  C   C2250     1.0  0.65282  0.72826  0.02793  1.0000
  H   H1780     1.0  0.73892  0.91174  0.21020  1.0000
  H   H1781     1.0  0.61561  0.58294  0.02028  1.0000
  H   H1782     1.0  0.71101  0.92965  0.20006  1.0000
  H   H1783     1.0  0.93731  0.70762  0.23131  1.0000
  H   H1784     1.0  0.60513  0.79565  0.05009  1.0000
  S   S293      1.0  0.97313  0.72863  0.11820  1.0000
  H   H1785     1.0  0.53386  0.51008  0.99348  1.0000
  C   C2251     1.0  0.64997  0.79129  0.07425  1.0000
  H   H1786     1.0  0.48197  0.49167  0.01021  1.0000
  H   H1787     1.0  0.95685  0.59408  0.00296  1.0000
  C   C2252     1.0  0.93804  0.64950  0.10200  1.0000
  C   C2253     1.0  0.95009  0.72833  0.23198  1.0000
  C   C2254     1.0  0.63620  0.49756  0.99681  1.0000
  C   C2255     1.0  0.63147  0.78455  0.01709  1.0000
  H   H1788     1.0  0.67983  0.51588  0.01600  1.0000
  H   H1789     1.0  0.61782  0.75316  0.07704  1.0000
  H   H1790     1.0  0.65893  0.70195  0.04299  1.0000
  C   C2256     1.0  0.68659  0.91949  0.22021  1.0000
  H   H1791     1.0  0.72861  0.94335  0.10253  1.0000
  C   C2257     1.0  0.90771  0.58440  0.06097  1.0000
  C   C2258     1.0  0.62849  0.59504  0.18054  1.0000
  H   H1792     1.0  0.65672  0.57235  0.15386  1.0000
  H   H1793     1.0  0.70235  0.59763  0.01156  1.0000
  C   C2259     1.0  0.93054  0.66794  0.09697  1.0000
  H   H1794     1.0  0.95179  0.59428  0.03254  1.0000
  H   H1795     1.0  0.62131  0.76606  0.03962  1.0000
  C   C2260     1.0  0.71757  0.56683  0.04046  1.0000
  H   H1796     1.0  0.80801  0.78596  0.20436  1.0000
  H   H1797     1.0  0.63929  0.71255  0.02034  1.0000
  H   H1798     1.0  0.84786  0.81228  0.18011  1.0000
  C   C2261     1.0  0.68965  0.53577  0.02044  1.0000
  C   C2262     1.0  0.62462  0.77402  0.07817  1.0000
  C   C2263     1.0  0.61566  0.73373  0.00096  1.0000
  C   C2264     1.0  0.48257  0.51054  0.00913  1.0000
  H   H1799     1.0  0.61614  0.58882  0.19062  1.0000
  C   C2265     1.0  0.70712  0.92055  0.21140  1.0000
  P   P78       1.0  0.86298  0.81545  0.21331  1.0000
  H   H1800     1.0  0.61969  0.89798  0.12477  1.0000
  C   C2266     1.0  0.97459  0.76896  0.21909  1.0000
  C   C2267     1.0  0.93162  0.82683  0.19422  1.0000
  Fe  Fe148     1.0  0.96167  0.74920  0.17721  1.0000
  H   H1801     1.0  0.73962  0.98052  0.21359  1.0000
  C   C2268     1.0  0.63940  0.56805  0.00907  1.0000
  C   C2269     1.0  0.48439  0.55946  0.00701  1.0000
  C   C2270     1.0  0.62017  0.71586  0.99182  1.0000
  C   C2271     1.0  0.66415  0.72213  0.04075  1.0000
  H   H1802     1.0  0.93963  0.80016  0.23000  1.0000
  C   C2272     1.0  0.61268  0.79822  0.03838  1.0000
  H   H1803     1.0  0.58822  0.77023  0.08642  1.0000
  C   C2273     1.0  0.58086  0.49712  0.01908  1.0000
  H   H1804     1.0  0.82887  0.74230  0.23284  1.0000
  C   C2274     1.0  0.71867  0.89903  0.23209  1.0000
  C   C2275     1.0  0.65615  0.51578  0.98783  1.0000
  H   H1805     1.0  0.70030  0.78880  0.00787  1.0000
  H   H1806     1.0  0.57991  0.51322  0.99677  1.0000
  C   C2276     1.0  0.97282  0.64784  0.04513  1.0000
  H   H1807     1.0  0.54937  0.70234  0.99958  1.0000
  C   C2277     1.0  0.62088  0.82026  0.01372  1.0000
  Fe  Fe149     1.0  0.97294  0.74913  0.14160  1.0000
  C   C2278     1.0  0.97212  0.60878  0.99634  1.0000
  C   C2279     1.0  0.68183  0.90798  0.23487  1.0000
  H   H1808     1.0  0.63981  0.71911  0.98975  1.0000
  C   C2280     1.0  0.87925  0.71008  0.23199  1.0000
  H   H1809     1.0  0.91317  0.49311  0.99982  1.0000
  H   H1810     1.0  0.64423  0.97550  0.98799  1.0000
  H   H1811     1.0  0.57707  0.97470  0.00886  1.0000
  H   H1812     1.0  0.61978  0.83486  0.00641  1.0000
  H   H1813     1.0  0.63725  0.80636  0.99582  1.0000
  S   S294      1.0  0.97308  0.79182  0.17799  1.0000
  C   C2281     1.0  0.57229  0.49574  0.00349  1.0000
  H   H1814     1.0  0.82132  0.82304  0.22785  1.0000
  C   C2282     1.0  0.69211  0.78872  0.99637  1.0000
  Fe  Fe150     1.0  0.94475  0.76314  0.31763  1.0000
  S   S295      1.0  0.95983  0.73854  0.30478  1.0000
  S   S296      1.0  0.90122  0.74565  0.32208  1.0000
  C   C2283     1.0  0.48621  0.83384  0.39994  1.0000
  P   P79       1.0  0.86237  0.73260  0.25536  1.0000
  C   C2284     1.0  0.96023  0.53600  0.47680  1.0000
  C   C2285     1.0  0.49589  0.55576  0.46953  1.0000
  S   S297      1.0  0.73664  0.96409  0.31417  1.0000
  S   S298      1.0  0.79894  0.95554  0.32318  1.0000
  H   H1815     1.0  0.96461  0.83359  0.33796  1.0000
  Fe  Fe151     1.0  0.78370  0.78303  0.31268  1.0000
  S   S299      1.0  0.75324  0.74122  0.31152  1.0000
  S   S300      1.0  0.82776  0.79927  0.31084  1.0000
  Fe  Fe152     1.0  0.74260  0.80253  0.31054  1.0000
  S   S301      1.0  0.70933  0.76191  0.30842  1.0000
  S   S302      1.0  0.73020  0.83431  0.30913  1.0000
  Fe  Fe153     1.0  0.72995  0.75300  0.32817  1.0000
  S   S303      1.0  0.71131  0.73167  0.35086  1.0000
  Fe  Fe154     1.0  0.73512  0.75387  0.29202  1.0000
  S   S304      1.0  0.72492  0.73107  0.26873  1.0000
  S   S305      1.0  0.76245  0.79430  0.33092  1.0000
  S   S306      1.0  0.76636  0.79507  0.29254  1.0000
  Fe  Fe155     1.0  0.58302  0.92775  0.40592  1.0000
  S   S307      1.0  0.60206  0.91380  0.42399  1.0000
  S   S308      1.0  0.60313  0.95058  0.38407  1.0000
  Fe  Fe156     1.0  0.52878  0.90079  0.42161  1.0000
  S   S309      1.0  0.54529  0.88466  0.44013  1.0000
  Fe  Fe157     1.0  0.57959  0.92485  0.44161  1.0000
  S   S310      1.0  0.59337  0.94198  0.46662  1.0000
  Fe  Fe158     1.0  0.56619  0.87482  0.42111  1.0000
  S   S311      1.0  0.56881  0.83745  0.41349  1.0000
  S   S312      1.0  0.56257  0.94123  0.42373  1.0000
  S   S313      1.0  0.54780  0.88870  0.40238  1.0000
  Fe  Fe159     1.0  0.58529  0.65863  0.43963  1.0000
  S   S314      1.0  0.56856  0.63449  0.41734  1.0000
  S   S315      1.0  0.61361  0.65002  0.45477  1.0000
  Fe  Fe160     1.0  0.55980  0.69406  0.43185  1.0000
  S   S316      1.0  0.54047  0.67072  0.40969  1.0000
  S   S317      1.0  0.55603  0.72970  0.44159  1.0000
  Fe  Fe161     1.0  0.53066  0.63437  0.42367  1.0000
  Fe  Fe162     1.0  0.57999  0.67266  0.40531  1.0000
  S   S318      1.0  0.59753  0.68580  0.38082  1.0000
  S   S319      1.0  0.54757  0.65779  0.44628  1.0000
  S   S320      1.0  0.59908  0.69675  0.42713  1.0000
  C   C2286     1.0  0.52633  0.55225  0.43480  1.0000
  H   H1816     1.0  0.69513  0.80894  0.33995  1.0000
  H   H1817     1.0  0.94539  0.62529  0.47426  1.0000
  H   H1818     1.0  0.62302  0.74958  0.37867  1.0000
  H   H1819     1.0  0.55793  0.54117  0.39188  1.0000
  H   H1820     1.0  0.83442  0.81662  0.27695  1.0000
  C   C2287     1.0  0.61127  0.63401  0.47282  1.0000
  C   C2288     1.0  0.63102  0.62739  0.47710  1.0000
  H   H1821     1.0  0.92046  0.85129  0.41240  1.0000
  C   C2289     1.0  0.87993  0.82788  0.41711  1.0000
  C   C2290     1.0  0.56552  0.80782  0.42172  1.0000
  C   C2291     1.0  0.56491  0.78805  0.41157  1.0000
  C   C2292     1.0  0.56259  0.76434  0.41737  1.0000
  C   C2293     1.0  0.56081  0.75995  0.43353  1.0000
  C   C2294     1.0  0.56144  0.77974  0.44369  1.0000
  C   C2295     1.0  0.56382  0.80348  0.43786  1.0000
  H   H1822     1.0  0.56590  0.79098  0.39908  1.0000
  H   H1823     1.0  0.56172  0.74929  0.40931  1.0000
  H   H1824     1.0  0.55997  0.77666  0.45619  1.0000
  H   H1825     1.0  0.56449  0.81845  0.44588  1.0000
  C   C2296     1.0  0.83300  0.82061  0.23711  1.0000
  H   H1826     1.0  0.69409  0.88924  0.25229  1.0000
  C   C2297     1.0  0.62794  0.76772  0.43066  1.0000
  C   C2298     1.0  0.67964  0.71998  0.35911  1.0000
  C   C2299     1.0  0.65837  0.71973  0.35088  1.0000
  C   C2300     1.0  0.63364  0.70951  0.35778  1.0000
  C   C2301     1.0  0.62969  0.69968  0.37308  1.0000
  C   C2302     1.0  0.65112  0.70059  0.38146  1.0000
  C   C2303     1.0  0.67575  0.71047  0.37448  1.0000
  H   H1827     1.0  0.66086  0.72699  0.33910  1.0000
  H   H1828     1.0  0.61736  0.70900  0.35111  1.0000
  H   H1829     1.0  0.64861  0.69317  0.39320  1.0000
  H   H1830     1.0  0.69193  0.71054  0.38104  1.0000
  H   H1831     1.0  0.71797  0.78557  0.35079  1.0000
  C   C2304     1.0  0.72892  0.74751  0.25087  1.0000
  C   C2305     1.0  0.72920  0.77173  0.25048  1.0000
  C   C2306     1.0  0.82360  0.74497  0.24458  1.0000
  H   H1832     1.0  0.72779  0.78099  0.26129  1.0000
  C   C2307     1.0  0.78068  0.92186  0.31857  1.0000
  C   C2308     1.0  0.78952  0.90431  0.32376  1.0000
  C   C2309     1.0  0.77473  0.87735  0.32056  1.0000
  C   C2310     1.0  0.75101  0.86789  0.31217  1.0000
  C   C2311     1.0  0.74264  0.88550  0.30664  1.0000
  C   C2312     1.0  0.75741  0.91231  0.30979  1.0000
  H   H1833     1.0  0.80762  0.91158  0.33045  1.0000
  H   H1834     1.0  0.78131  0.86386  0.32486  1.0000
  H   H1835     1.0  0.72461  0.87836  0.29988  1.0000
  H   H1836     1.0  0.75088  0.92560  0.30525  1.0000
  C   C2313     1.0  0.63394  0.95852  0.37572  1.0000
  C   C2314     1.0  0.65262  0.95320  0.38316  1.0000
  C   C2315     1.0  0.48473  0.79696  0.41392  1.0000
  H   H1837     1.0  0.53538  0.84578  0.46501  1.0000
  H   H1838     1.0  0.95092  0.55844  0.45997  1.0000
  C   C2316     1.0  0.63982  0.97074  0.36112  1.0000
  H   H1839     1.0  0.51246  0.93284  0.47154  1.0000
  H   H1840     1.0  0.58200  0.52578  0.43283  1.0000
  H   H1841     1.0  0.93519  0.81056  0.27973  1.0000
  H   H1842     1.0  0.55325  0.97907  0.44116  1.0000
  H   H1843     1.0  0.78314  0.71376  0.35534  1.0000
  C   C2317     1.0  0.89751  0.83609  0.39102  1.0000
  C   C2318     1.0  0.88080  0.76021  0.31773  1.0000
  C   C2319     1.0  0.85397  0.74614  0.32023  1.0000
  C   C2320     1.0  0.83730  0.75749  0.31778  1.0000
  C   C2321     1.0  0.84738  0.78322  0.31302  1.0000
  C   C2322     1.0  0.87412  0.79710  0.31017  1.0000
  C   C2323     1.0  0.89072  0.78565  0.31243  1.0000
  H   H1844     1.0  0.84606  0.72642  0.32426  1.0000
  H   H1845     1.0  0.81675  0.74644  0.31984  1.0000
  H   H1846     1.0  0.88213  0.81697  0.30641  1.0000
  H   H1847     1.0  0.91130  0.79675  0.31048  1.0000
  C   C2324     1.0  0.86476  0.68525  0.29771  1.0000
  H   H1848     1.0  0.59614  0.89649  0.37014  1.0000
  H   H1849     1.0  0.83855  0.80364  0.41814  1.0000
  C   C2325     1.0  0.57580  0.77742  0.36732  1.0000
  H   H1850     1.0  0.50735  0.96382  0.43241  1.0000
  C   C2326     1.0  0.94012  0.80795  0.25487  1.0000
  H   H1851     1.0  0.61105  0.75200  0.43563  1.0000
  C   C2327     1.0  0.68266  0.97238  0.36152  1.0000
  H   H1852     1.0  0.50634  0.82808  0.44161  1.0000
  C   C2328     1.0  0.51961  0.52750  0.44041  1.0000
  C   C2329     1.0  0.51871  0.57158  0.38366  1.0000
  C   C2330     1.0  0.94062  0.85101  0.34544  1.0000
  H   H1853     1.0  0.54082  0.81611  0.48358  1.0000
  C   C2331     1.0  0.96177  0.62542  0.48061  1.0000
  C   C2332     1.0  0.90319  0.80031  0.35144  1.0000
  C   C2333     1.0  0.89756  0.82110  0.35436  1.0000
  C   C2334     1.0  0.91659  0.84654  0.35137  1.0000
  P   P80       1.0  0.86749  0.81601  0.36332  1.0000
  C   C2335     1.0  0.84147  0.78336  0.35974  1.0000
  C   C2336     1.0  0.87255  0.82082  0.38436  1.0000
  C   C2337     1.0  0.85131  0.80922  0.39428  1.0000
  C   C2338     1.0  0.66385  0.97738  0.35398  1.0000
  C   C2339     1.0  0.81882  0.77905  0.35118  1.0000
  C   C2340     1.0  0.79784  0.75407  0.34976  1.0000
  C   C2341     1.0  0.79940  0.73310  0.35661  1.0000
  C   C2342     1.0  0.82180  0.73715  0.36515  1.0000
  C   C2343     1.0  0.84260  0.76221  0.36689  1.0000
  C   C2344     1.0  0.85736  0.83885  0.35553  1.0000
  C   C2345     1.0  0.86028  0.84457  0.33954  1.0000
  C   C2346     1.0  0.85054  0.86041  0.33302  1.0000
  C   C2347     1.0  0.83802  0.87090  0.34246  1.0000
  C   C2348     1.0  0.83525  0.86554  0.35844  1.0000
  C   C2349     1.0  0.84480  0.84950  0.36497  1.0000
  H   H1854     1.0  0.64708  0.63204  0.46936  1.0000
  H   H1855     1.0  0.52236  0.52516  0.45278  1.0000
  H   H1856     1.0  0.95359  0.73007  0.25744  1.0000
  C   C2350     1.0  0.51208  0.53387  0.40845  1.0000
  H   H1857     1.0  0.91291  0.86298  0.35369  1.0000
  H   H1858     1.0  0.51657  0.76831  0.47885  1.0000
  S   S321      1.0  0.97628  0.77679  0.33669  1.0000
  H   H1859     1.0  0.81704  0.79480  0.34559  1.0000
  H   H1860     1.0  0.78033  0.75093  0.34329  1.0000
  C   C2351     1.0  0.50916  0.81101  0.39003  1.0000
  C   C2352     1.0  0.60824  0.97415  0.47518  1.0000
  H   H1861     1.0  0.85948  0.76510  0.37396  1.0000
  H   H1862     1.0  0.86923  0.83597  0.33194  1.0000
  H   H1863     1.0  0.85203  0.86384  0.32053  1.0000
  H   H1864     1.0  0.83011  0.88282  0.33731  1.0000
  H   H1865     1.0  0.82524  0.87342  0.36570  1.0000
  H   H1866     1.0  0.84186  0.84509  0.37727  1.0000
  H   H1867     1.0  0.88898  0.78042  0.35321  1.0000
  C   C2353     1.0  0.97652  0.76764  0.24769  1.0000
  C   C2354     1.0  0.72654  0.84696  0.26191  1.0000
  C   C2355     1.0  0.71140  0.82172  0.26707  1.0000
  C   C2356     1.0  0.55010  0.50141  0.36025  1.0000
  C   C2357     1.0  0.76101  0.90887  0.25557  1.0000
  C   C2358     1.0  0.75607  0.92846  0.26224  1.0000
  C   C2359     1.0  0.77267  0.94524  0.27403  1.0000
  C   C2360     1.0  0.79425  0.94264  0.27932  1.0000
  C   C2361     1.0  0.79934  0.92323  0.27277  1.0000
  C   C2362     1.0  0.78291  0.90653  0.26085  1.0000
  H   H1868     1.0  0.74354  0.85984  0.26889  1.0000
  H   H1869     1.0  0.71702  0.81540  0.27772  1.0000
  H   H1870     1.0  0.68894  0.85391  0.37638  1.0000
  C   C2363     1.0  0.95725  0.52819  0.43554  1.0000
  C   C2364     1.0  0.93225  0.55611  0.48172  1.0000
  H   H1871     1.0  0.80670  0.95534  0.28873  1.0000
  H   H1872     1.0  0.81580  0.92091  0.27710  1.0000
  H   H1873     1.0  0.78705  0.89150  0.25591  1.0000
  C   C2365     1.0  0.68842  0.91183  0.29051  1.0000
  C   C2366     1.0  0.66569  0.90692  0.28208  1.0000
  C   C2367     1.0  0.64147  0.89055  0.28817  1.0000
  C   C2368     1.0  0.64000  0.87953  0.30285  1.0000
  C   C2369     1.0  0.66277  0.88523  0.31165  1.0000
  C   C2370     1.0  0.68698  0.90099  0.30521  1.0000
  P   P81       1.0  0.66067  0.87144  0.33075  1.0000
  C   C2371     1.0  0.63949  0.87878  0.34300  1.0000
  C   C2372     1.0  0.65023  0.83712  0.32696  1.0000
  C   C2373     1.0  0.62733  0.81769  0.33316  1.0000
  C   C2374     1.0  0.62076  0.79138  0.33074  1.0000
  C   C2375     1.0  0.63650  0.78424  0.32173  1.0000
  C   C2376     1.0  0.65849  0.80337  0.31481  1.0000
  C   C2377     1.0  0.66518  0.82965  0.31727  1.0000
  C   C2378     1.0  0.63039  0.86574  0.35707  1.0000
  C   C2379     1.0  0.61429  0.87166  0.36662  1.0000
  C   C2380     1.0  0.60804  0.89139  0.36254  1.0000
  C   C2381     1.0  0.61772  0.90507  0.34885  1.0000
  C   C2382     1.0  0.63351  0.89898  0.33917  1.0000
  C   C2383     1.0  0.69247  0.88730  0.34040  1.0000
  C   C2384     1.0  0.70322  0.91383  0.34470  1.0000
  C   C2385     1.0  0.72869  0.92710  0.35081  1.0000
  C   C2386     1.0  0.74357  0.91402  0.35279  1.0000
  C   C2387     1.0  0.73282  0.88749  0.34895  1.0000
  C   C2388     1.0  0.70740  0.87416  0.34281  1.0000
  H   H1874     1.0  0.70720  0.92450  0.28577  1.0000
  H   H1875     1.0  0.66698  0.91606  0.27092  1.0000
  H   H1876     1.0  0.62384  0.88663  0.28158  1.0000
  H   H1877     1.0  0.62113  0.86694  0.30747  1.0000
  H   H1878     1.0  0.70482  0.90526  0.31157  1.0000
  H   H1879     1.0  0.61437  0.82252  0.33977  1.0000
  H   H1880     1.0  0.60347  0.77646  0.33589  1.0000
  H   H1881     1.0  0.63162  0.76388  0.32005  1.0000
  H   H1882     1.0  0.67073  0.79793  0.30775  1.0000
  H   H1883     1.0  0.68251  0.84419  0.31193  1.0000
  H   H1884     1.0  0.63593  0.85118  0.36074  1.0000
  H   H1885     1.0  0.60694  0.86133  0.37736  1.0000
  H   H1886     1.0  0.68100  0.77862  0.39470  1.0000
  H   H1887     1.0  0.61331  0.92077  0.34591  1.0000
  H   H1888     1.0  0.64145  0.91054  0.32894  1.0000
  H   H1889     1.0  0.69230  0.92458  0.34286  1.0000
  H   H1890     1.0  0.54464  0.64523  0.37568  1.0000
  C   C2389     1.0  0.52324  0.52337  0.37690  1.0000
  H   H1891     1.0  0.74452  0.87743  0.35018  1.0000
  H   H1892     1.0  0.70004  0.85388  0.33961  1.0000
  H   H1893     1.0  0.71090  0.77051  0.37804  1.0000
  H   H1894     1.0  0.73437  0.96025  0.23958  1.0000
  C   C2390     1.0  0.49738  0.77109  0.45762  1.0000
  C   C2391     1.0  0.49181  0.71626  0.41971  1.0000
  C   C2392     1.0  0.68929  0.80441  0.25842  1.0000
  C   C2393     1.0  0.50825  0.81480  0.44967  1.0000
  C   C2394     1.0  0.51263  0.61042  0.38383  1.0000
  H   H1895     1.0  0.57008  0.49268  0.45318  1.0000
  S   S322      1.0  0.49414  0.59379  0.42587  1.0000
  H   H1896     1.0  0.63848  0.94623  0.45052  1.0000
  C   C2395     1.0  0.67573  0.85795  0.38333  1.0000
  S   S323      1.0  0.96614  0.79812  0.30314  1.0000
  C   C2396     1.0  0.70144  0.78155  0.37360  1.0000
  C   C2397     1.0  0.52468  0.82491  0.46296  1.0000
  C   C2398     1.0  0.57002  0.51829  0.47204  1.0000
  C   C2399     1.0  0.85502  0.81273  0.41058  1.0000
  C   C2400     1.0  0.73661  0.97978  0.23890  1.0000
  C   C2401     1.0  0.90114  0.83957  0.40733  1.0000
  C   C2402     1.0  0.49461  0.78781  0.44684  1.0000
  C   C2403     1.0  0.53731  0.62467  0.37778  1.0000
  H   H1897     1.0  0.93826  0.52570  0.41312  1.0000
  C   C2404     1.0  0.58064  0.56210  0.46419  1.0000
  C   C2405     1.0  0.58364  0.55578  0.44874  1.0000
  C   C2406     1.0  0.57964  0.53067  0.44482  1.0000
  H   H1898     1.0  0.69124  0.95645  0.38218  1.0000
  C   C2407     1.0  0.67581  0.97344  0.46031  1.0000
  H   H1899     1.0  0.66740  0.90983  0.39570  1.0000
  H   H1900     1.0  0.51164  0.75606  0.42789  1.0000
  H   H1901     1.0  0.88278  0.83053  0.42974  1.0000
  H   H1902     1.0  0.65068  0.77684  0.45219  1.0000
  H   H1903     1.0  0.78050  0.76000  0.26314  1.0000
  C   C2408     1.0  0.65405  0.96597  0.45034  1.0000
  C   C2409     1.0  0.92678  0.79977  0.26884  1.0000
  C   C2410     1.0  0.49614  0.93687  0.47331  1.0000
  H   H1904     1.0  0.49742  0.57157  0.46222  1.0000
  H   H1905     1.0  0.69643  0.89917  0.37938  1.0000
  H   H1906     1.0  0.55607  0.57729  0.37524  1.0000
  C   C2411     1.0  0.86110  0.81217  0.26138  1.0000
  H   H1907     1.0  0.66607  0.90743  0.24174  1.0000
  H   H1908     1.0  0.50724  0.77955  0.40363  1.0000
  H   H1909     1.0  0.58368  0.58153  0.46717  1.0000
  H   H1910     1.0  0.58905  0.57043  0.43985  1.0000
  H   H1911     1.0  0.83184  0.79747  0.38942  1.0000
  H   H1912     1.0  0.68922  0.81339  0.44100  1.0000
  C   C2412     1.0  0.84098  0.68272  0.29195  1.0000
  C   C2413     1.0  0.84022  0.69682  0.27897  1.0000
  C   C2414     1.0  0.86338  0.71418  0.27198  1.0000
  C   C2415     1.0  0.88710  0.71585  0.27745  1.0000
  C   C2416     1.0  0.54850  0.52853  0.38173  1.0000
  P   P82       1.0  0.50630  0.53751  0.38795  1.0000
  C   C2417     1.0  0.83682  0.74195  0.25772  1.0000
  C   C2418     1.0  0.52486  0.49590  0.35548  1.0000
  C   C2419     1.0  0.51678  0.55893  0.47933  1.0000
  C   C2420     1.0  0.79625  0.75508  0.26160  1.0000
  C   C2421     1.0  0.80992  0.75308  0.27472  1.0000
  C   C2422     1.0  0.83036  0.74689  0.27281  1.0000
  C   C2423     1.0  0.84017  0.81691  0.26487  1.0000
  C   C2424     1.0  0.57417  0.54362  0.47585  1.0000
  C   C2425     1.0  0.90301  0.77714  0.26889  1.0000
  C   C2426     1.0  0.50075  0.79423  0.40264  1.0000
  H   H1913     1.0  0.80913  0.82356  0.25542  1.0000
  C   C2427     1.0  0.51403  0.78129  0.47080  1.0000
  H   H1914     1.0  0.62562  0.97504  0.35524  1.0000
  H   H1915     1.0  0.82317  0.67003  0.29764  1.0000
  H   H1916     1.0  0.58080  0.72112  0.36577  1.0000
  H   H1917     1.0  0.95908  0.82481  0.25499  1.0000
  H   H1918     1.0  0.66472  0.81727  0.35643  1.0000
  C   C2428     1.0  0.69775  0.89772  0.24079  1.0000
  C   C2429     1.0  0.89231  0.76262  0.25491  1.0000
  H   H1919     1.0  0.80471  0.75647  0.28638  1.0000
  H   H1920     1.0  0.84094  0.74584  0.28315  1.0000
  C   C2430     1.0  0.71968  0.85503  0.24790  1.0000
  H   H1921     1.0  0.48435  0.57344  0.39171  1.0000
  H   H1922     1.0  0.89327  0.77067  0.27990  1.0000
  C   C2431     1.0  0.67530  0.80779  0.36143  1.0000
  C   C2432     1.0  0.97355  0.49583  0.46198  1.0000
  H   H1923     1.0  0.73950  0.93098  0.25849  1.0000
  H   H1924     1.0  0.57532  0.63281  0.47991  1.0000
  C   C2433     1.0  0.52279  0.55546  0.41887  1.0000
  P   P83       1.0  0.73983  0.88687  0.24031  1.0000
  H   H1925     1.0  0.53421  0.56912  0.44275  1.0000
  C   C2434     1.0  0.57277  0.51197  0.45639  1.0000
  H   H1926     1.0  0.68798  0.82499  0.41332  1.0000
  C   C2435     1.0  0.68029  0.88379  0.38516  1.0000
  C   C2436     1.0  0.65446  0.83790  0.39051  1.0000
  H   H1927     1.0  0.50842  0.84379  0.37891  1.0000
  C   C2437     1.0  0.49310  0.74016  0.42419  1.0000
  C   C2438     1.0  0.70537  0.78993  0.35816  1.0000
  H   H1928     1.0  0.82295  0.72088  0.37051  1.0000
  H   H1929     1.0  0.76363  0.92459  0.35693  1.0000
  C   C2439     1.0  0.64333  0.87012  0.40199  1.0000
  H   H1930     1.0  0.64853  0.94396  0.39440  1.0000
  H   H1931     1.0  0.82161  0.69447  0.27458  1.0000
  C   C2440     1.0  0.62719  0.77394  0.41495  1.0000
  C   C2441     1.0  0.61005  0.75766  0.37551  1.0000
  C   C2442     1.0  0.94603  0.83020  0.34264  1.0000
  H   H1932     1.0  0.90608  0.70338  0.29484  1.0000
  C   C2443     1.0  0.67682  0.96024  0.37615  1.0000
  C   C2444     1.0  0.50162  0.83058  0.38857  1.0000
  C   C2445     1.0  0.80324  0.75129  0.24652  1.0000
  C   C2446     1.0  0.67167  0.79995  0.37709  1.0000
  C   C2447     1.0  0.64884  0.79459  0.40852  1.0000
  C   C2448     1.0  0.92737  0.80492  0.34573  1.0000
  H   H1933     1.0  0.57220  0.62395  0.37034  1.0000
  H   H1934     1.0  0.55022  0.73853  0.35859  1.0000
  H   H1935     1.0  0.48685  0.75018  0.45585  1.0000
  C   C2449     1.0  0.88771  0.70149  0.29033  1.0000
  H   H1936     1.0  0.53455  0.57724  0.47971  1.0000
  H   H1937     1.0  0.60959  0.76271  0.40802  1.0000
  C   C2450     1.0  0.55283  0.61256  0.37473  1.0000
  C   C2451     1.0  0.67119  0.80883  0.41804  1.0000
  H   H1938     1.0  0.56239  0.78501  0.36431  1.0000
  H   H1939     1.0  0.93139  0.78871  0.34337  1.0000
  C   C2452     1.0  0.86807  0.81174  0.24578  1.0000
  H   H1940     1.0  0.49186  0.50199  0.35990  1.0000
  C   C2453     1.0  0.82596  0.82087  0.25272  1.0000
  H   H1941     1.0  0.87144  0.80816  0.27080  1.0000
  C   C2454     1.0  0.66402  0.88986  0.39441  1.0000
  C   C2455     1.0  0.59975  0.79372  0.37471  1.0000
  P   P84       1.0  0.64800  0.80429  0.38859  1.0000
  C   C2456     1.0  0.54360  0.58609  0.37763  1.0000
  H   H1942     1.0  0.67795  0.78473  0.26235  1.0000
  C   C2457     1.0  0.94796  0.55063  0.47162  1.0000
  H   H1943     1.0  0.91423  0.84528  0.38370  1.0000
  C   C2458     1.0  0.69231  0.80302  0.35206  1.0000
  H   H1944     1.0  0.60445  0.81376  0.37722  1.0000
  H   H1945     1.0  0.73716  0.94776  0.35360  1.0000
  C   C2459     1.0  0.68451  0.78631  0.38302  1.0000
  H   H1946     1.0  0.86550  0.67481  0.30798  1.0000
  H   H1947     1.0  0.52207  0.80923  0.38162  1.0000
  H   H1948     1.0  0.92313  0.56778  0.47782  1.0000
  H   H1949     1.0  0.50927  0.71379  0.42014  1.0000
  C   C2460     1.0  0.56892  0.75127  0.36411  1.0000
  H   H1950     1.0  0.63064  0.87473  0.40920  1.0000
  C   C2461     1.0  0.51579  0.97830  0.44188  1.0000
  C   C2462     1.0  0.95929  0.74099  0.24680  1.0000
  H   H1951     1.0  0.90518  0.72843  0.27197  1.0000
  C   C2463     1.0  0.95631  0.53500  0.41995  1.0000
  H   H1952     1.0  0.61477  0.51471  0.47374  1.0000
  H   H1953     1.0  0.93984  0.51338  0.44063  1.0000
  H   H1954     1.0  0.64757  0.68813  0.48129  1.0000
  H   H1955     1.0  0.52820  0.57484  0.41483  1.0000
  C   C2464     1.0  0.67194  0.80237  0.43371  1.0000
  C   C2465     1.0  0.58609  0.74144  0.36815  1.0000
  C   C2466     1.0  0.52771  0.80819  0.47346  1.0000
  H   H1956     1.0  0.95511  0.87061  0.34299  1.0000
  C   C2467     1.0  0.63859  0.84428  0.40009  1.0000
  C   C2468     1.0  0.50336  0.58402  0.38674  1.0000
  C   C2469     1.0  0.59058  0.62774  0.48295  1.0000
  S   S324      1.0  0.48464  0.88746  0.42474  1.0000
  H   H1957     1.0  0.62240  0.82923  0.40606  1.0000
  C   C2470     1.0  0.50605  0.50912  0.41408  1.0000
  H   H1958     1.0  0.50085  0.61994  0.38660  1.0000
  H   H1959     1.0  0.76848  0.96003  0.27924  1.0000
  C   C2471     1.0  0.68212  0.81240  0.24461  1.0000
  C   C2472     1.0  0.65028  0.78182  0.44003  1.0000
  C   C2473     1.0  0.61695  0.78386  0.37902  1.0000
  H   H1960     1.0  0.58149  0.52202  0.37707  1.0000
  C   C2474     1.0  0.69717  0.83763  0.23940  1.0000
  C   C2475     1.0  0.61392  0.50380  0.48405  1.0000
  C   C2476     1.0  0.56190  0.51769  0.37338  1.0000
  H   H1961     1.0  0.67696  0.95948  0.46817  1.0000
  H   H1962     1.0  0.88376  0.80718  0.24329  1.0000
  C   C2477     1.0  0.50976  0.50596  0.43002  1.0000
  H   H1963     1.0  0.48071  0.98148  0.44548  1.0000
  Fe  Fe163     1.0  0.77952  0.98115  0.31840  1.0000
  H   H1964     1.0  0.65423  0.51256  0.48264  1.0000
  C   C2478     1.0  0.51142  0.50676  0.36378  1.0000
  H   H1965     1.0  0.49820  0.49228  0.40613  1.0000
  C   C2479     1.0  0.47800  0.81730  0.41265  1.0000
  S   S325      1.0  0.72907  0.97664  0.27077  1.0000
  H   H1966     1.0  0.47978  0.93122  0.41015  1.0000
  H   H1967     1.0  0.50486  0.48682  0.43432  1.0000
  C   C2480     1.0  0.92922  0.79403  0.24083  1.0000
  C   C2481     1.0  0.90519  0.77172  0.24078  1.0000
  H   H1968     1.0  0.63460  0.97780  0.43314  1.0000
  H   H1969     1.0  0.66508  0.79889  0.23783  1.0000
  H   H1970     1.0  0.56052  0.49307  0.35375  1.0000
  H   H1971     1.0  0.73089  0.71704  0.23696  1.0000
  C   C2482     1.0  0.85783  0.71171  0.23834  1.0000
  H   H1972     1.0  0.48108  0.84959  0.39911  1.0000
  S   S326      1.0  0.71444  0.98267  0.35397  1.0000
  C   C2483     1.0  0.65191  0.98403  0.44052  1.0000
  C   C2484     1.0  0.73092  0.73572  0.23672  1.0000
  H   H1973     1.0  0.89853  0.72107  0.23726  1.0000
  H   H1974     1.0  0.97673  0.80885  0.37021  1.0000
  H   H1975     1.0  0.81584  0.69535  0.23716  1.0000
  C   C2485     1.0  0.49680  0.95329  0.48570  1.0000
  Fe  Fe164     1.0  0.61984  0.52489  0.54859  1.0000
  S   S327      1.0  0.63832  0.54368  0.52594  1.0000
  Fe  Fe165     1.0  0.65200  0.57700  0.56757  1.0000
  S   S328      1.0  0.67081  0.59857  0.54607  1.0000
  S   S329      1.0  0.66047  0.59567  0.59247  1.0000
  Fe  Fe166     1.0  0.63137  0.57721  0.53380  1.0000
  S   S330      1.0  0.60746  0.59275  0.51954  1.0000
  Fe  Fe167     1.0  0.67662  0.56353  0.53983  1.0000
  S   S331      1.0  0.71654  0.57289  0.52958  1.0000
  S   S332      1.0  0.61180  0.55780  0.55607  1.0000
  S   S333      1.0  0.65888  0.54239  0.56186  1.0000
  Fe  Fe168     1.0  0.85783  0.56633  0.54565  1.0000
  S   S334      1.0  0.87652  0.55648  0.56621  1.0000
  S   S335      1.0  0.81461  0.55506  0.55024  1.0000
  Fe  Fe169     1.0  0.91077  0.59164  0.52919  1.0000
  S   S336      1.0  0.93200  0.58462  0.54946  1.0000
  S   S337      1.0  0.92866  0.60962  0.50563  1.0000
  Fe  Fe170     1.0  0.89808  0.54394  0.54900  1.0000
  Fe  Fe171     1.0  0.90866  0.59767  0.56514  1.0000
  S   S338      1.0  0.91712  0.61819  0.58967  1.0000
  S   S339      1.0  0.87721  0.55075  0.52838  1.0000
  S   S340      1.0  0.88966  0.60761  0.54488  1.0000
  H   H1976     1.0  0.96750  0.81499  0.61024  1.0000
  Fe  Fe172     1.0  0.95388  0.77036  0.66959  1.0000
  S   S341      1.0  0.91502  0.76266  0.67920  1.0000
  S   S342      1.0  0.96319  0.73674  0.66986  1.0000
  H   H1977     1.0  0.70680  0.88489  0.72683  1.0000
  H   H1978     1.0  0.94209  0.68056  0.63473  1.0000
  S   S343      1.0  0.78276  0.93984  0.64565  1.0000
  H   H1979     1.0  0.70919  0.73853  0.53351  1.0000
  H   H1980     1.0  0.61497  0.66408  0.53228  1.0000
  Fe  Fe173     1.0  0.75246  0.78962  0.65757  1.0000
  S   S344      1.0  0.72675  0.74685  0.66211  1.0000
  S   S345      1.0  0.73694  0.81915  0.66215  1.0000
  Fe  Fe174     1.0  0.79917  0.77985  0.65132  1.0000
  S   S346      1.0  0.77741  0.73738  0.65587  1.0000
  S   S347      1.0  0.84052  0.79767  0.64322  1.0000
  Fe  Fe175     1.0  0.74516  0.73789  0.64099  1.0000
  S   S348      1.0  0.73188  0.71322  0.61784  1.0000
  Fe  Fe176     1.0  0.76119  0.74975  0.67653  1.0000
  S   S349      1.0  0.76472  0.73485  0.70080  1.0000
  S   S350      1.0  0.76811  0.78058  0.63562  1.0000
  S   S351      1.0  0.78568  0.79237  0.67281  1.0000
  C   C2486     1.0  0.75542  0.74248  0.71921  1.0000
  H   H1981     1.0  0.66790  0.90802  0.69193  1.0000
  C   C2487     1.0  0.73856  0.75358  0.72024  1.0000
  H   H1982     1.0  0.72512  0.81944  0.69709  1.0000
  H   H1983     1.0  0.73090  0.75780  0.70961  1.0000
  C   C2488     1.0  0.76970  0.90639  0.65064  1.0000
  C   C2489     1.0  0.78081  0.89134  0.64425  1.0000
  C   C2490     1.0  0.77121  0.86478  0.64775  1.0000
  C   C2491     1.0  0.75032  0.85284  0.65774  1.0000
  C   C2492     1.0  0.73915  0.86787  0.66412  1.0000
  C   C2493     1.0  0.74873  0.89443  0.66060  1.0000
  H   H1984     1.0  0.79672  0.90022  0.63631  1.0000
  H   H1985     1.0  0.77955  0.85333  0.64246  1.0000
  H   H1986     1.0  0.72273  0.85880  0.67168  1.0000
  H   H1987     1.0  0.73959  0.90549  0.66534  1.0000
  H   H1988     1.0  0.66656  0.88382  0.71594  1.0000
  C   C2494     1.0  0.73087  0.75842  0.73504  1.0000
  H   H1989     1.0  0.64241  0.95307  0.63152  1.0000
  C   C2495     1.0  0.89416  0.77127  0.66841  1.0000
  C   C2496     1.0  0.90212  0.78565  0.65477  1.0000
  C   C2497     1.0  0.88557  0.79386  0.64717  1.0000
  C   C2498     1.0  0.86084  0.78715  0.65294  1.0000
  C   C2499     1.0  0.85271  0.77235  0.66639  1.0000
  C   C2500     1.0  0.86943  0.76457  0.67414  1.0000
  H   H1990     1.0  0.92121  0.79096  0.65031  1.0000
  H   H1991     1.0  0.89196  0.80551  0.63686  1.0000
  H   H1992     1.0  0.83370  0.76717  0.67094  1.0000
  H   H1993     1.0  0.86330  0.75342  0.68466  1.0000
  C   C2501     1.0  0.64922  0.97328  0.63506  1.0000
  C   C2502     1.0  0.69249  0.67023  0.52999  1.0000
  C   C2503     1.0  0.93364  0.65027  0.59844  1.0000
  C   C2504     1.0  0.93095  0.65367  0.61462  1.0000
  C   C2505     1.0  0.94413  0.67844  0.62226  1.0000
  C   C2506     1.0  0.96045  0.70025  0.61384  1.0000
  H   H1994     1.0  0.89057  0.82349  0.70917  1.0000
  C   C2507     1.0  0.94937  0.67220  0.58993  1.0000
  H   H1995     1.0  0.91882  0.63696  0.62137  1.0000
  H   H1996     1.0  0.78946  0.83642  0.73469  1.0000
  C   C2508     1.0  0.90075  0.51592  0.59126  1.0000
  H   H1997     1.0  0.80405  0.59230  0.57512  1.0000
  C   C2509     1.0  0.68128  0.62830  0.59935  1.0000
  C   C2510     1.0  0.69777  0.64769  0.58943  1.0000
  C   C2511     1.0  0.71319  0.67338  0.59536  1.0000
  C   C2512     1.0  0.71265  0.68010  0.61129  1.0000
  C   C2513     1.0  0.69673  0.66055  0.62129  1.0000
  C   C2514     1.0  0.68116  0.63490  0.61534  1.0000
  H   H1998     1.0  0.69867  0.64290  0.57722  1.0000
  H   H1999     1.0  0.72563  0.68818  0.58751  1.0000
  H   H2000     1.0  0.69607  0.66528  0.63356  1.0000
  H   H2001     1.0  0.66866  0.62011  0.62317  1.0000
  C   C2515     1.0  0.74391  0.56854  0.53603  1.0000
  C   C2516     1.0  0.74286  0.55292  0.54864  1.0000
  C   C2517     1.0  0.76464  0.54914  0.55274  1.0000
  C   C2518     1.0  0.78801  0.56120  0.54455  1.0000
  C   C2519     1.0  0.78926  0.57729  0.53217  1.0000
  C   C2520     1.0  0.76735  0.58075  0.52790  1.0000
  H   H2002     1.0  0.72507  0.54332  0.55501  1.0000
  H   H2003     1.0  0.76327  0.53652  0.56226  1.0000
  H   H2004     1.0  0.80696  0.58673  0.52570  1.0000
  H   H2005     1.0  0.76852  0.59286  0.51812  1.0000
  H   H2006     1.0  0.90332  0.76839  0.71701  1.0000
  H   H2007     1.0  0.86594  0.59744  0.60555  1.0000
  C   C2521     1.0  0.70898  0.92234  0.68918  1.0000
  H   H2008     1.0  0.68206  0.55978  0.59761  1.0000
  H   H2009     1.0  0.90207  0.50055  0.58455  1.0000
  H   H2010     1.0  0.74981  0.93473  0.68946  1.0000
  C   C2522     1.0  0.64175  0.72377  0.51170  1.0000
  H   H2011     1.0  0.53039  0.54148  0.49691  1.0000
  H   H2012     1.0  0.65400  0.48886  0.50662  1.0000
  H   H2013     1.0  0.97519  0.71357  0.59091  1.0000
  C   C2523     1.0  0.84774  0.71752  0.72603  1.0000
  H   H2014     1.0  0.75646  0.63111  0.64824  1.0000
  C   C2524     1.0  0.82907  0.82416  0.70661  1.0000
  H   H2015     1.0  0.96854  0.53488  0.54253  1.0000
  H   H2016     1.0  0.96729  0.51743  0.49683  1.0000
  C   C2525     1.0  0.74756  0.58305  0.59436  1.0000
  H   H2017     1.0  0.85909  0.78075  0.72822  1.0000
  H   H2018     1.0  0.95729  0.66893  0.50063  1.0000
  H   H2019     1.0  0.96652  0.73322  0.71317  1.0000
  H   H2020     1.0  0.70213  0.72216  0.59066  1.0000
  H   H2021     1.0  0.57764  0.62897  0.54457  1.0000
  H   H2022     1.0  0.72138  0.85807  0.70617  1.0000
  C   C2526     1.0  0.80252  0.96119  0.71824  1.0000
  P   P85       1.0  0.77707  0.61362  0.59469  1.0000
  C   C2527     1.0  0.80527  0.60858  0.59845  1.0000
  C   C2528     1.0  0.78110  0.62851  0.57583  1.0000
  C   C2529     1.0  0.80578  0.64760  0.57161  1.0000
  C   C2530     1.0  0.80933  0.65873  0.55685  1.0000
  C   C2531     1.0  0.78823  0.65104  0.54626  1.0000
  C   C2532     1.0  0.76357  0.63238  0.55049  1.0000
  C   C2533     1.0  0.75997  0.62107  0.56518  1.0000
  C   C2534     1.0  0.81919  0.61608  0.61289  1.0000
  C   C2535     1.0  0.84090  0.61193  0.61547  1.0000
  S   S352      1.0  0.91028  0.51098  0.55162  1.0000
  C   C2536     1.0  0.60958  0.60851  0.50141  1.0000
  C   C2537     1.0  0.93471  0.93495  0.71582  1.0000
  C   C2538     1.0  0.77328  0.63375  0.60985  1.0000
  C   C2539     1.0  0.76681  0.62422  0.62505  1.0000
  C   C2540     1.0  0.76181  0.63868  0.63660  1.0000
  C   C2541     1.0  0.76281  0.66255  0.63299  1.0000
  C   C2542     1.0  0.76886  0.67196  0.61786  1.0000
  C   C2543     1.0  0.77409  0.65769  0.60630  1.0000
  H   H2023     1.0  0.82237  0.65354  0.57962  1.0000
  H   H2024     1.0  0.82852  0.67293  0.55351  1.0000
  H   H2025     1.0  0.79103  0.65916  0.53468  1.0000
  H   H2026     1.0  0.74723  0.62601  0.54223  1.0000
  H   H2027     1.0  0.74074  0.60621  0.56795  1.0000
  H   H2028     1.0  0.81365  0.62535  0.62214  1.0000
  H   H2029     1.0  0.85177  0.61797  0.62654  1.0000
  H   H2030     1.0  0.72248  0.60097  0.59881  1.0000
  H   H2031     1.0  0.66680  0.64559  0.56019  1.0000
  H   H2032     1.0  0.75827  0.67355  0.64176  1.0000
  H   H2033     1.0  0.76862  0.68999  0.61503  1.0000
  H   H2034     1.0  0.77791  0.66507  0.59456  1.0000
  H   H2035     1.0  0.89629  0.57342  0.61255  1.0000
  H   H2036     1.0  0.58445  0.60258  0.56505  1.0000
  C   C2544     1.0  0.68479  0.89473  0.71017  1.0000
  C   C2545     1.0  0.87589  0.53259  0.60591  1.0000
  C   C2546     1.0  0.95723  0.52782  0.49240  1.0000
  C   C2547     1.0  0.73189  0.92329  0.69535  1.0000
  C   C2548     1.0  0.73143  0.90989  0.70900  1.0000
  C   C2549     1.0  0.70765  0.89548  0.71633  1.0000
  P   P86       1.0  0.76076  0.91060  0.71711  1.0000
  H   H2037     1.0  0.93995  0.54384  0.58629  1.0000
  C   C2550     1.0  0.76264  0.88130  0.71144  1.0000
  C   C2551     1.0  0.58984  0.61518  0.49716  1.0000
  P   P87       1.0  0.67196  0.68392  0.53692  1.0000
  C   C2552     1.0  0.76653  0.83703  0.70098  1.0000
  C   C2553     1.0  0.78887  0.85943  0.70592  1.0000
  C   C2554     1.0  0.78691  0.88137  0.71135  1.0000
  C   C2555     1.0  0.59102  0.49159  0.49259  1.0000
  C   C2556     1.0  0.94133  0.53320  0.50243  1.0000
  H   H2038     1.0  0.64521  0.60921  0.49409  1.0000
  C   C2557     1.0  0.87745  0.51169  0.59826  1.0000
  C   C2558     1.0  0.85798  0.74331  0.73178  1.0000
  C   C2559     1.0  0.78886  0.93783  0.70947  1.0000
  C   C2560     1.0  0.79701  0.93568  0.69430  1.0000
  C   C2561     1.0  0.81847  0.95648  0.68804  1.0000
  C   C2562     1.0  0.94918  0.79729  0.60963  1.0000
  C   C2563     1.0  0.81146  0.80594  0.71661  1.0000
  H   H2039     1.0  0.70957  0.93315  0.67882  1.0000
  H   H2040     1.0  0.95163  0.67007  0.57750  1.0000
  H   H2041     1.0  0.76596  0.55873  0.58899  1.0000
  C   C2564     1.0  0.63007  0.61449  0.49118  1.0000
  H   H2042     1.0  0.82179  0.68899  0.70898  1.0000
  H   H2043     1.0  0.93880  0.52674  0.51444  1.0000
  H   H2044     1.0  0.72864  0.70099  0.53978  1.0000
  C   C2565     1.0  0.95894  0.61786  0.49640  1.0000
  H   H2045     1.0  0.76792  0.82015  0.69640  1.0000
  H   H2046     1.0  0.80767  0.85989  0.70523  1.0000
  H   H2047     1.0  0.80440  0.89864  0.71504  1.0000
  H   H2048     1.0  0.82389  0.95494  0.67608  1.0000
  C   C2566     1.0  0.74228  0.83660  0.70143  1.0000
  H   H2049     1.0  0.78213  0.50100  0.57118  1.0000
  H   H2050     1.0  0.57391  0.61071  0.50496  1.0000
  C   C2567     1.0  0.94449  0.78565  0.72080  1.0000
  H   H2051     1.0  0.78635  0.91813  0.68710  1.0000
  H   H2052     1.0  0.52219  0.51652  0.54248  1.0000
  H   H2053     1.0  0.58469  0.53564  0.51085  1.0000
  H   H2054     1.0  0.66530  0.67241  0.50251  1.0000
  H   H2055     1.0  0.95891  0.48907  0.53874  1.0000
  C   C2568     1.0  0.54919  0.50088  0.50444  1.0000
  C   C2569     1.0  0.65918  0.68697  0.50533  1.0000
  H   H2056     1.0  0.75568  0.68140  0.53020  1.0000
  C   C2570     1.0  0.55483  0.52880  0.52732  1.0000
  H   H2057     1.0  0.72517  0.51794  0.58741  1.0000
  C   C2571     1.0  0.73495  0.67178  0.52765  1.0000
  C   C2572     1.0  0.72223  0.75488  0.55675  1.0000
  H   H2058     1.0  0.93727  0.58040  0.60041  1.0000
  C   C2573     1.0  0.89498  0.89495  0.71025  1.0000
  C   C2574     1.0  0.82631  0.48947  0.55140  1.0000
  P   P88       1.0  0.87713  0.86478  0.69913  1.0000
  C   C2575     1.0  0.86018  0.87002  0.68265  1.0000
  C   C2576     1.0  0.89907  0.85310  0.69175  1.0000
  C   C2577     1.0  0.91345  0.86405  0.67832  1.0000
  C   C2578     1.0  0.93048  0.85520  0.67251  1.0000
  C   C2579     1.0  0.93330  0.83539  0.68003  1.0000
  C   C2580     1.0  0.91891  0.82425  0.69327  1.0000
  C   C2581     1.0  0.90181  0.83294  0.69912  1.0000
  C   C2582     1.0  0.85296  0.85304  0.66945  1.0000
  C   C2583     1.0  0.84061  0.85734  0.65643  1.0000
  C   C2584     1.0  0.83521  0.87845  0.65650  1.0000
  C   C2585     1.0  0.84159  0.89502  0.66973  1.0000
  C   C2586     1.0  0.85412  0.89091  0.68277  1.0000
  C   C2587     1.0  0.85434  0.84118  0.71199  1.0000
  C   C2588     1.0  0.85085  0.76060  0.72429  1.0000
  C   C2589     1.0  0.89497  0.92779  0.72843  1.0000
  H   H2059     1.0  0.51360  0.96186  0.49362  1.0000
  C   C2590     1.0  0.68135  0.64643  0.52154  1.0000
  C   C2591     1.0  0.86187  0.83959  0.72751  1.0000
  H   H2060     1.0  0.93217  0.90488  0.69984  1.0000
  C   C2592     1.0  0.74029  0.85866  0.70654  1.0000
  H   H2061     1.0  0.86125  0.89174  0.72249  1.0000
  C   C2593     1.0  0.81058  0.49158  0.58203  1.0000
  C   C2594     1.0  0.62613  0.62298  0.56409  1.0000
  H   H2062     1.0  0.91132  0.87925  0.67224  1.0000
  S   S353      1.0  0.73434  0.97354  0.65296  1.0000
  C   C2595     1.0  0.92234  0.54053  0.59219  1.0000
  C   C2596     1.0  0.82399  0.98202  0.71191  1.0000
  C   C2597     1.0  0.66074  0.69650  0.52081  1.0000
  H   H2063     1.0  0.85692  0.83647  0.66914  1.0000
  H   H2064     1.0  0.83521  0.84426  0.64623  1.0000
  H   H2065     1.0  0.82601  0.88189  0.64628  1.0000
  H   H2066     1.0  0.83683  0.91106  0.66979  1.0000
  H   H2067     1.0  0.85909  0.90421  0.69275  1.0000
  C   C2598     1.0  0.60096  0.61816  0.55972  1.0000
  H   H2068     1.0  0.94120  0.86334  0.66200  1.0000
  C   C2599     1.0  0.88182  0.90355  0.72066  1.0000
  H   H2069     1.0  0.61282  0.96081  0.49793  1.0000
  C   C2600     1.0  0.64395  0.65813  0.54567  1.0000
  C   C2601     1.0  0.88473  0.69338  0.56704  1.0000
  C   C2602     1.0  0.88522  0.67041  0.57126  1.0000
  C   C2603     1.0  0.88119  0.66257  0.58679  1.0000
  C   C2604     1.0  0.87625  0.67736  0.59813  1.0000
  C   C2605     1.0  0.87538  0.70031  0.59396  1.0000
  C   C2606     1.0  0.88015  0.70844  0.57838  1.0000
  P   P89       1.0  0.87183  0.72126  0.60865  1.0000
  C   C2607     1.0  0.84379  0.72650  0.60479  1.0000
  C   C2608     1.0  0.86714  0.70680  0.62769  1.0000
  C   C2609     1.0  0.84266  0.68661  0.63126  1.0000
  C   C2610     1.0  0.83837  0.67570  0.64611  1.0000
  C   C2611     1.0  0.85852  0.68480  0.65746  1.0000
  C   C2612     1.0  0.88297  0.70472  0.65395  1.0000
  C   C2613     1.0  0.88731  0.71578  0.63915  1.0000
  C   C2614     1.0  0.83600  0.73885  0.61637  1.0000
  C   C2615     1.0  0.81424  0.74284  0.61374  1.0000
  C   C2616     1.0  0.79987  0.73431  0.59963  1.0000
  C   C2617     1.0  0.80708  0.72147  0.58818  1.0000
  C   C2618     1.0  0.82887  0.71745  0.59075  1.0000
  C   C2619     1.0  0.90190  0.75124  0.60891  1.0000
  C   C2620     1.0  0.92560  0.75027  0.60770  1.0000
  C   C2621     1.0  0.68820  0.70568  0.56742  1.0000
  S   S354      1.0  0.97174  0.78511  0.64639  1.0000
  C   C2622     1.0  0.92572  0.79845  0.61078  1.0000
  C   C2623     1.0  0.90213  0.77553  0.61037  1.0000
  H   H2070     1.0  0.88859  0.69980  0.55507  1.0000
  H   H2071     1.0  0.88938  0.65895  0.56261  1.0000
  H   H2072     1.0  0.88275  0.64537  0.59008  1.0000
  H   H2073     1.0  0.87401  0.67121  0.61017  1.0000
  H   H2074     1.0  0.88083  0.72673  0.57509  1.0000
  H   H2075     1.0  0.82681  0.67958  0.62263  1.0000
  H   H2076     1.0  0.81933  0.66048  0.64888  1.0000
  H   H2077     1.0  0.85523  0.67667  0.66905  1.0000
  H   H2078     1.0  0.89855  0.71201  0.66280  1.0000
  H   H2079     1.0  0.90634  0.73150  0.63691  1.0000
  H   H2080     1.0  0.84678  0.74552  0.62746  1.0000
  H   H2081     1.0  0.80840  0.75245  0.62271  1.0000
  H   H2082     1.0  0.78276  0.73712  0.59780  1.0000
  H   H2083     1.0  0.79553  0.71435  0.57740  1.0000
  H   H2084     1.0  0.83365  0.70703  0.58184  1.0000
  H   H2085     1.0  0.92611  0.73179  0.60685  1.0000
  C   C2624     1.0  0.74795  0.55938  0.59110  1.0000
  H   H2086     1.0  0.83295  0.48952  0.53958  1.0000
  H   H2087     1.0  0.92582  0.81711  0.61221  1.0000
  H   H2088     1.0  0.88429  0.77700  0.61136  1.0000
  C   C2625     1.0  0.72367  0.64822  0.51904  1.0000
  H   H2089     1.0  0.62911  0.61137  0.57296  1.0000
  C   C2626     1.0  0.49165  0.51505  0.48842  1.0000
  H   H2090     1.0  0.85773  0.53015  0.61065  1.0000
  H   H2091     1.0  0.96729  0.77219  0.60743  1.0000
  C   C2627     1.0  0.72036  0.75032  0.57285  1.0000
  C   C2628     1.0  0.94909  0.77320  0.60801  1.0000
  H   H2092     1.0  0.92048  0.80825  0.69868  1.0000
  H   H2093     1.0  0.91712  0.55218  0.50494  1.0000
  C   C2629     1.0  0.92891  0.54739  0.49708  1.0000
  C   C2630     1.0  0.56479  0.52292  0.51386  1.0000
  C   C2631     1.0  0.92080  0.56110  0.60009  1.0000
  H   H2094     1.0  0.76505  0.60531  0.62785  1.0000
  C   C2632     1.0  0.81398  0.59766  0.58652  1.0000
  C   C2633     1.0  0.70337  0.72575  0.57816  1.0000
  H   H2095     1.0  0.80489  0.49353  0.59380  1.0000
  Fe  Fe177     1.0  0.77283  0.97229  0.65355  1.0000
  C   C2634     1.0  0.71947  0.68283  0.53308  1.0000
  H   H2096     1.0  0.84210  0.58491  0.57989  1.0000
  C   C2635     1.0  0.59716  0.63313  0.54826  1.0000
  H   H2097     1.0  0.68304  0.51819  0.59172  1.0000
  H   H2098     1.0  0.49017  0.49992  0.49614  1.0000
  C   C2636     1.0  0.97491  0.50389  0.53258  1.0000
  H   H2099     1.0  0.79200  0.79274  0.71226  1.0000
  H   H2100     1.0  0.94606  0.82808  0.67534  1.0000
  C   C2637     1.0  0.69690  0.63564  0.51591  1.0000
  C   C2638     1.0  0.65187  0.71495  0.52389  1.0000
  C   C2639     1.0  0.61854  0.65309  0.54127  1.0000
  H   H2101     1.0  0.95520  0.94716  0.71388  1.0000
  H   H2102     1.0  0.82295  0.82491  0.69469  1.0000
  C   C2640     1.0  0.83198  0.97963  0.69684  1.0000
  H   H2103     1.0  0.73551  0.63939  0.51498  1.0000
  C   C2641     1.0  0.52960  0.51221  0.53183  1.0000
  C   C2642     1.0  0.64748  0.64253  0.55690  1.0000
  H   H2104     1.0  0.66052  0.63602  0.51948  1.0000
  C   C2643     1.0  0.83555  0.59339  0.58918  1.0000
  C   C2644     1.0  0.83274  0.75185  0.71174  1.0000
  C   C2645     1.0  0.82209  0.72600  0.70635  1.0000
  C   C2646     1.0  0.82978  0.70891  0.71338  1.0000
  C   C2647     1.0  0.68989  0.71003  0.55119  1.0000
  C   C2648     1.0  0.92155  0.91085  0.70788  1.0000
  C   C2649     1.0  0.63647  0.50264  0.48905  1.0000
  C   C2650     1.0  0.83931  0.48529  0.56412  1.0000
  C   C2651     1.0  0.70105  0.53617  0.59265  1.0000
  H   H2105     1.0  0.73212  0.76576  0.58126  1.0000
  C   C2652     1.0  0.84891  0.60035  0.60367  1.0000
  C   C2653     1.0  0.91887  0.77487  0.72583  1.0000
  H   H2106     1.0  0.65230  0.72214  0.53578  1.0000
  C   C2654     1.0  0.72356  0.58297  0.59667  1.0000
  C   C2655     1.0  0.70049  0.55961  0.59594  1.0000
  C   C2656     1.0  0.96272  0.69691  0.59760  1.0000
  H   H2107     1.0  0.68806  0.61705  0.50956  1.0000
  H   H2108     1.0  0.57282  0.54954  0.48773  1.0000
  H   H2109     1.0  0.67540  0.68695  0.57200  1.0000
  H   H2110     1.0  0.88150  0.85222  0.73174  1.0000
  H   H2111     1.0  0.57333  0.97497  0.51076  1.0000
  C   C2657     1.0  0.70718  0.73481  0.54596  1.0000
  H   H2112     1.0  0.94829  0.78726  0.70834  1.0000
  H   H2113     1.0  0.56686  0.54615  0.53435  1.0000
  H   H2114     1.0  0.73549  0.77394  0.55266  1.0000
  C   C2658     1.0  0.72477  0.53606  0.59024  1.0000
  H   H2115     1.0  0.82683  0.76501  0.70611  1.0000
  H   H2116     1.0  0.80800  0.71933  0.69662  1.0000
  C   C2659     1.0  0.89761  0.55712  0.60697  1.0000
  C   C2660     1.0  0.68548  0.90823  0.69662  1.0000
  H   H2117     1.0  0.63471  0.73780  0.51416  1.0000
  H   H2118     1.0  0.97614  0.66417  0.52583  1.0000
  H   H2119     1.0  0.86168  0.49499  0.62917  1.0000
  C   C2661     1.0  0.92141  0.94348  0.72603  1.0000
  C   C2662     1.0  0.83114  0.48563  0.57947  1.0000
  H   H2120     1.0  0.71724  0.76634  0.73564  1.0000
  H   H2121     1.0  0.77819  0.72850  0.73252  1.0000
  C   C2663     1.0  0.63637  0.48927  0.50255  1.0000
  C   C2664     1.0  0.79760  0.49580  0.56927  1.0000
  H   H2122     1.0  0.61356  0.97378  0.62817  1.0000
  H   H2123     1.0  0.85355  0.70404  0.73128  1.0000
  C   C2665     1.0  0.64904  0.69582  0.49318  1.0000
  C   C2666     1.0  0.81901  0.80449  0.73207  1.0000
  C   C2667     1.0  0.51454  0.53867  0.48888  1.0000
  C   C2668     1.0  0.80528  0.49446  0.55396  1.0000
  C   C2669     1.0  0.64027  0.71415  0.49635  1.0000
  H   H2124     1.0  0.63208  0.72062  0.48690  1.0000
  C   C2670     1.0  0.61598  0.97761  0.49118  1.0000
  H   H2125     1.0  0.54576  0.48883  0.55750  1.0000
  H   H2126     1.0  0.68697  0.97873  0.64283  1.0000
  H   H2127     1.0  0.79564  0.49844  0.54413  1.0000
  C   C2671     1.0  0.76507  0.73701  0.73320  1.0000
  H   H2128     1.0  0.48741  0.98184  0.58690  1.0000
  H   H2129     1.0  0.93159  0.96230  0.73201  1.0000
  C   C2672     1.0  0.96509  0.79323  0.73172  1.0000
  H   H2130     1.0  0.70419  0.97836  0.73044  1.0000
  H   H2131     1.0  0.79648  0.96370  0.72980  1.0000
  C   C2673     1.0  0.51437  0.48952  0.52297  1.0000
  P   P90       1.0  0.56195  0.49379  0.48679  1.0000
  H   H2132     1.0  0.88465  0.93449  0.73626  1.0000
  Fe  Fe178     1.0  0.62132  0.54050  0.91731  1.0000
  S   S355      1.0  0.64604  0.55097  0.93963  1.0000
  Fe  Fe179     1.0  0.66390  0.58877  0.90059  1.0000
  S   S356      1.0  0.69005  0.60166  0.92226  1.0000
  S   S357      1.0  0.68011  0.60801  0.87696  1.0000
  Fe  Fe180     1.0  0.68074  0.55972  0.92445  1.0000
  S   S358      1.0  0.71003  0.54410  0.93067  1.0000
  Fe  Fe181     1.0  0.65345  0.59217  0.93573  1.0000
  S   S359      1.0  0.65525  0.61964  0.95622  1.0000
  S   S360      1.0  0.65546  0.54654  0.90230  1.0000
  S   S361      1.0  0.62792  0.58196  0.91386  1.0000
  Fe  Fe182     1.0  0.86842  0.57286  0.92666  1.0000
  S   S362      1.0  0.88422  0.56099  0.90550  1.0000
  S   S363      1.0  0.83317  0.58178  0.92432  1.0000
  Fe  Fe183     1.0  0.91877  0.58566  0.94657  1.0000
  S   S364      1.0  0.93717  0.57612  0.92620  1.0000
  S   S365      1.0  0.93573  0.59160  0.97192  1.0000
  Fe  Fe184     1.0  0.92145  0.59758  0.91092  1.0000
  S   S366      1.0  0.94598  0.62232  0.89061  1.0000
  Fe  Fe185     1.0  0.89881  0.54011  0.92232  1.0000
  S   S367      1.0  0.90585  0.60993  0.93175  1.0000
  S   S368      1.0  0.88026  0.54931  0.94308  1.0000
  H   H2133     1.0  0.59860  0.59870  0.95145  1.0000
  C   C2674     1.0  0.89211  0.69571  0.76697  1.0000
  S   S369      1.0  0.94181  0.81160  0.81935  1.0000
  S   S370      1.0  0.94872  0.74769  0.81233  1.0000
  C   C2675     1.0  0.54262  0.49976  0.97056  1.0000
  C   C2676     1.0  0.84226  0.68058  0.92248  1.0000
  H   H2134     1.0  0.86794  0.73655  0.90215  1.0000
  Fe  Fe186     1.0  0.76187  0.96907  0.81696  1.0000
  S   S371      1.0  0.74565  0.92482  0.81582  1.0000
  H   H2135     1.0  0.96745  0.83875  0.87306  1.0000
  Fe  Fe187     1.0  0.79031  0.75893  0.81134  1.0000
  S   S372      1.0  0.74976  0.72834  0.80472  1.0000
  S   S373      1.0  0.81983  0.74381  0.80925  1.0000
  Fe  Fe188     1.0  0.77255  0.80021  0.81873  1.0000
  S   S374      1.0  0.73096  0.77220  0.81289  1.0000
  S   S375      1.0  0.78788  0.84233  0.82766  1.0000
  Fe  Fe189     1.0  0.73796  0.74246  0.82642  1.0000
  S   S376      1.0  0.71077  0.71843  0.84586  1.0000
  Fe  Fe190     1.0  0.74689  0.76050  0.79180  1.0000
  S   S377      1.0  0.72934  0.75879  0.76731  1.0000
  S   S378      1.0  0.77882  0.77151  0.83363  1.0000
  S   S379      1.0  0.78820  0.79017  0.79706  1.0000
  C   C2677     1.0  0.82738  0.65350  0.82020  1.0000
  H   H2136     1.0  0.48206  0.49700  0.97722  1.0000
  H   H2137     1.0  0.86618  0.62902  0.90601  1.0000
  H   H2138     1.0  0.89737  0.82632  0.78694  1.0000
  C   C2678     1.0  0.85474  0.62932  0.86672  1.0000
  C   C2679     1.0  0.75976  0.90348  0.81774  1.0000
  C   C2680     1.0  0.78174  0.90967  0.82735  1.0000
  C   C2681     1.0  0.79034  0.89085  0.82999  1.0000
  C   C2682     1.0  0.77724  0.86576  0.82299  1.0000
  C   C2683     1.0  0.75584  0.85990  0.81290  1.0000
  C   C2684     1.0  0.74716  0.87866  0.81034  1.0000
  H   H2139     1.0  0.79150  0.92858  0.83322  1.0000
  H   H2140     1.0  0.80691  0.89558  0.83780  1.0000
  H   H2141     1.0  0.74552  0.84069  0.80747  1.0000
  H   H2142     1.0  0.73007  0.87365  0.80295  1.0000
  C   C2685     1.0  0.67152  0.59485  0.75525  1.0000
  C   C2686     1.0  0.77682  0.70605  0.84931  1.0000
  H   H2143     1.0  0.87022  0.66838  0.78444  1.0000
  C   C2687     1.0  0.90792  0.79345  0.81577  1.0000
  C   C2688     1.0  0.89128  0.80389  0.82017  1.0000
  C   C2689     1.0  0.86411  0.78908  0.81809  1.0000
  C   C2690     1.0  0.85357  0.76377  0.81164  1.0000
  C   C2691     1.0  0.87022  0.75357  0.80713  1.0000
  C   C2692     1.0  0.89723  0.76844  0.80894  1.0000
  H   H2144     1.0  0.89940  0.82328  0.82540  1.0000
  H   H2145     1.0  0.85134  0.79702  0.82168  1.0000
  H   H2146     1.0  0.86221  0.73398  0.80231  1.0000
  H   H2147     1.0  0.90969  0.76041  0.80510  1.0000
  C   C2693     1.0  0.89831  0.74837  0.84589  1.0000
  H   H2148     1.0  0.77673  0.71552  0.83844  1.0000
  C   C2694     1.0  0.94857  0.64966  0.87979  1.0000
  C   C2695     1.0  0.93673  0.66489  0.88445  1.0000
  C   C2696     1.0  0.94024  0.68687  0.87580  1.0000
  C   C2697     1.0  0.95537  0.69388  0.86227  1.0000
  H   H2149     1.0  0.76938  0.69252  0.76167  1.0000
  H   H2150     1.0  0.60279  0.67911  0.97891  1.0000
  H   H2151     1.0  0.92520  0.65993  0.89486  1.0000
  C   C2698     1.0  0.73619  0.87690  0.86088  1.0000
  C   C2699     1.0  0.84519  0.76830  0.76229  1.0000
  C   C2700     1.0  0.54465  0.52872  0.94975  1.0000
  H   H2152     1.0  0.91053  0.71886  0.84329  1.0000
  C   C2701     1.0  0.70304  0.68787  0.85452  1.0000
  C   C2702     1.0  0.71209  0.67090  0.84865  1.0000
  C   C2703     1.0  0.70532  0.64691  0.85587  1.0000
  C   C2704     1.0  0.68896  0.63918  0.86886  1.0000
  C   C2705     1.0  0.67979  0.65610  0.87468  1.0000
  C   C2706     1.0  0.68686  0.68025  0.86758  1.0000
  H   H2153     1.0  0.72416  0.67620  0.83850  1.0000
  H   H2154     1.0  0.71268  0.63415  0.85128  1.0000
  H   H2155     1.0  0.66696  0.65042  0.88451  1.0000
  H   H2156     1.0  0.67951  0.69304  0.87218  1.0000
  C   C2707     1.0  0.74439  0.55517  0.92882  1.0000
  C   C2708     1.0  0.76162  0.58045  0.92446  1.0000
  C   C2709     1.0  0.78853  0.58809  0.92322  1.0000
  C   C2710     1.0  0.79886  0.57079  0.92638  1.0000
  C   C2711     1.0  0.78168  0.54564  0.93096  1.0000
  C   C2712     1.0  0.75478  0.53798  0.93219  1.0000
  H   H2157     1.0  0.75420  0.59407  0.92195  1.0000
  H   H2158     1.0  0.80150  0.60754  0.91968  1.0000
  H   H2159     1.0  0.78910  0.53202  0.93348  1.0000
  H   H2160     1.0  0.74185  0.51844  0.93567  1.0000
  C   C2713     1.0  0.63032  0.62107  0.96767  1.0000
  C   C2714     1.0  0.64614  0.59009  0.75141  1.0000
  H   H2161     1.0  0.79968  0.64303  0.80081  1.0000
  C   C2715     1.0  0.60420  0.60928  0.96261  1.0000
  H   H2162     1.0  0.93889  0.91223  0.75702  1.0000
  H   H2163     1.0  0.74487  0.94779  0.76584  1.0000
  C   C2716     1.0  0.89447  0.71663  0.75801  1.0000
  H   H2164     1.0  0.57434  0.80075  0.84754  1.0000
  S   S380      1.0  0.90530  0.50387  0.91693  1.0000
  S   S381      1.0  0.96481  0.73553  0.77083  1.0000
  H   H2165     1.0  0.93140  0.94908  0.76618  1.0000
  C   C2717     1.0  0.53975  0.54428  0.96050  1.0000
  H   H2166     1.0  0.93129  0.69863  0.87969  1.0000
  H   H2167     1.0  0.55766  0.67050  0.98388  1.0000
  C   C2718     1.0  0.93452  0.77879  0.75280  1.0000
  C   C2719     1.0  0.80253  0.64051  0.81315  1.0000
  H   H2168     1.0  0.76208  0.61431  0.81652  1.0000
  H   H2169     1.0  0.74352  0.66843  0.94836  1.0000
  C   C2720     1.0  0.74190  0.61351  0.89138  1.0000
  H   H2170     1.0  0.67798  0.52072  0.96653  1.0000
  H   H2171     1.0  0.61462  0.59829  0.75733  1.0000
  C   C2721     1.0  0.70543  0.86328  0.83885  1.0000
  C   C2722     1.0  0.68523  0.61182  0.76781  1.0000
  H   H2172     1.0  0.74775  0.55873  0.88335  1.0000
  H   H2173     1.0  0.72699  0.61920  0.89390  1.0000
  C   C2723     1.0  0.53616  0.53764  0.97629  1.0000
  C   C2724     1.0  0.92130  0.50185  0.97548  1.0000
  C   C2725     1.0  0.67218  0.78844  0.96619  1.0000
  C   C2726     1.0  0.75923  0.91335  0.73817  1.0000
  H   H2174     1.0  0.76088  0.88300  0.77187  1.0000
  H   H2175     1.0  0.80743  0.63781  0.88776  1.0000
  H   H2176     1.0  0.67313  0.71363  0.76928  1.0000
  C   C2727     1.0  0.75865  0.89665  0.76423  1.0000
  C   C2728     1.0  0.96010  0.78992  0.74772  1.0000
  C   C2729     1.0  0.74945  0.93305  0.76085  1.0000
  C   C2730     1.0  0.89038  0.79619  0.76955  1.0000
  H   H2177     1.0  0.93104  0.77489  0.76516  1.0000
  C   C2731     1.0  0.78133  0.62438  0.82199  1.0000
  C   C2732     1.0  0.75784  0.74243  0.74804  1.0000
  H   H2178     1.0  0.93537  0.75540  0.87176  1.0000
  C   C2733     1.0  0.78701  0.62395  0.88792  1.0000
  H   H2179     1.0  0.57936  0.82202  0.82191  1.0000
  H   H2180     1.0  0.63856  0.62813  0.77960  1.0000
  H   H2181     1.0  0.70901  0.61091  0.80636  1.0000
  H   H2182     1.0  0.69504  0.58227  0.82920  1.0000
  H   H2183     1.0  0.80012  0.70047  0.78419  1.0000
  H   H2184     1.0  0.66444  0.78815  0.95447  1.0000
  H   H2185     1.0  0.71213  0.80811  0.95936  1.0000
  H   H2186     1.0  0.69731  0.85089  0.82853  1.0000
  Fe  Fe191     1.0  0.96648  0.79074  0.81622  1.0000
  H   H2187     1.0  0.75187  0.80895  0.75062  1.0000
  C   C2734     1.0  0.76898  0.82466  0.75619  1.0000
  C   C2735     1.0  0.76970  0.82934  0.77236  1.0000
  C   C2736     1.0  0.79168  0.84960  0.77961  1.0000
  C   C2737     1.0  0.81330  0.86505  0.77073  1.0000
  C   C2738     1.0  0.81229  0.86052  0.75442  1.0000
  P   P91       1.0  0.84029  0.89294  0.77980  1.0000
  C   C2739     1.0  0.84580  0.88702  0.79988  1.0000
  C   C2740     1.0  0.87054  0.89941  0.77092  1.0000
  C   C2741     1.0  0.87508  0.87860  0.76605  1.0000
  C   C2742     1.0  0.89963  0.88326  0.76099  1.0000
  C   C2743     1.0  0.91555  0.92945  0.76590  1.0000
  C   C2744     1.0  0.89104  0.92484  0.77105  1.0000
  C   C2745     1.0  0.85558  0.90743  0.81120  1.0000
  C   C2746     1.0  0.86132  0.90299  0.82652  1.0000
  C   C2747     1.0  0.85794  0.87835  0.83053  1.0000
  C   C2748     1.0  0.84902  0.85818  0.81919  1.0000
  C   C2749     1.0  0.84293  0.86248  0.80393  1.0000
  C   C2750     1.0  0.83187  0.91912  0.77799  1.0000
  C   C2751     1.0  0.83787  0.93396  0.76441  1.0000
  C   C2752     1.0  0.82986  0.95322  0.76267  1.0000
  C   C2753     1.0  0.97647  0.77673  0.87658  1.0000
  C   C2754     1.0  0.80915  0.94243  0.78778  1.0000
  C   C2755     1.0  0.81687  0.92304  0.78946  1.0000
  H   H2188     1.0  0.97574  0.51251  0.93676  1.0000
  H   H2189     1.0  0.83434  0.96460  0.75217  1.0000
  H   H2190     1.0  0.75318  0.81710  0.77930  1.0000
  H   H2191     1.0  0.79172  0.85318  0.79214  1.0000
  H   H2192     1.0  0.82838  0.87275  0.74725  1.0000
  H   H2193     1.0  0.85991  0.85874  0.76673  1.0000
  H   H2194     1.0  0.91079  0.80155  0.76895  1.0000
  H   H2195     1.0  0.88836  0.94101  0.77559  1.0000
  H   H2196     1.0  0.85880  0.92677  0.80827  1.0000
  H   H2197     1.0  0.86817  0.91858  0.83534  1.0000
  H   H2198     1.0  0.86184  0.87474  0.84247  1.0000
  H   H2199     1.0  0.84589  0.83896  0.82239  1.0000
  H   H2200     1.0  0.83567  0.84654  0.79537  1.0000
  H   H2201     1.0  0.84831  0.93038  0.75506  1.0000
  H   H2202     1.0  0.67102  0.73351  0.79484  1.0000
  H   H2203     1.0  0.81072  0.91084  0.79959  1.0000
  C   C2756     1.0  0.68166  0.62618  0.80997  1.0000
  C   C2757     1.0  0.66051  0.62387  0.81882  1.0000
  P   P92       1.0  0.69105  0.64605  0.79282  1.0000
  C   C2758     1.0  0.72566  0.66130  0.78996  1.0000
  C   C2759     1.0  0.67370  0.62441  0.77649  1.0000
  C   C2760     1.0  0.73533  0.67096  0.77517  1.0000
  C   C2761     1.0  0.76211  0.68461  0.77302  1.0000
  C   C2762     1.0  0.77942  0.68895  0.78565  1.0000
  C   C2763     1.0  0.77000  0.67962  0.80043  1.0000
  C   C2764     1.0  0.74321  0.66599  0.80265  1.0000
  C   C2765     1.0  0.68330  0.67287  0.79367  1.0000
  C   C2766     1.0  0.68294  0.68481  0.80809  1.0000
  C   C2767     1.0  0.67786  0.70619  0.80849  1.0000
  C   C2768     1.0  0.67404  0.71639  0.79452  1.0000
  C   C2769     1.0  0.67507  0.70506  0.78012  1.0000
  C   C2770     1.0  0.67973  0.68345  0.77967  1.0000
  H   H2204     1.0  0.65000  0.63462  0.81591  1.0000
  H   H2205     1.0  0.72218  0.66861  0.76538  1.0000
  C   C2771     1.0  0.75270  0.93196  0.74469  1.0000
  H   H2206     1.0  0.73659  0.90731  0.87594  1.0000
  H   H2207     1.0  0.78358  0.68420  0.81029  1.0000
  H   H2208     1.0  0.73628  0.66017  0.81435  1.0000
  H   H2209     1.0  0.68711  0.67809  0.81904  1.0000
  H   H2210     1.0  0.67760  0.71533  0.81966  1.0000
  C   C2772     1.0  0.96701  0.67853  0.85751  1.0000
  H   H2211     1.0  0.68116  0.67546  0.76836  1.0000
  C   C2773     1.0  0.77717  0.68209  0.84892  1.0000
  H   H2212     1.0  0.77746  0.67301  0.83778  1.0000
  H   H2213     1.0  0.77689  0.65109  0.86235  1.0000
  C   C2774     1.0  0.85280  0.73356  0.85097  1.0000
  C   C2775     1.0  0.87764  0.75385  0.84869  1.0000
  C   C2776     1.0  0.89420  0.72262  0.84539  1.0000
  C   C2777     1.0  0.86915  0.70208  0.84715  1.0000
  C   C2778     1.0  0.84860  0.70777  0.85032  1.0000
  P   P93       1.0  0.86323  0.66863  0.84555  1.0000
  C   C2779     1.0  0.88769  0.66676  0.83330  1.0000
  C   C2780     1.0  0.86395  0.65619  0.86481  1.0000
  C   C2781     1.0  0.87404  0.67315  0.87796  1.0000
  C   C2782     1.0  0.87482  0.66335  0.89275  1.0000
  C   C2783     1.0  0.86533  0.63661  0.89457  1.0000
  C   C2784     1.0  0.89506  0.68083  0.81939  1.0000
  C   C2785     1.0  0.91433  0.67991  0.81012  1.0000
  C   C2786     1.0  0.92667  0.66525  0.81472  1.0000
  C   C2787     1.0  0.91973  0.65144  0.82858  1.0000
  C   C2788     1.0  0.90045  0.65226  0.83787  1.0000
  C   C2789     1.0  0.83132  0.65039  0.83619  1.0000
  C   C2790     1.0  0.80972  0.63450  0.84503  1.0000
  C   C2791     1.0  0.78494  0.62135  0.83792  1.0000
  C   C2792     1.0  0.88283  0.81054  0.77973  1.0000
  H   H2214     1.0  0.88079  0.77380  0.84873  1.0000
  H   H2215     1.0  0.82928  0.69229  0.85201  1.0000
  H   H2216     1.0  0.88189  0.69396  0.87679  1.0000
  H   H2217     1.0  0.88340  0.67648  0.90277  1.0000
  H   H2218     1.0  0.88675  0.69337  0.81596  1.0000
  H   H2219     1.0  0.92033  0.69123  0.79958  1.0000
  H   H2220     1.0  0.79742  0.94514  0.79669  1.0000
  H   H2221     1.0  0.92981  0.64065  0.83240  1.0000
  H   H2222     1.0  0.89633  0.64211  0.84880  1.0000
  H   H2223     1.0  0.81175  0.63245  0.85748  1.0000
  H   H2224     1.0  0.76846  0.60900  0.84485  1.0000
  H   H2225     1.0  0.54756  0.53380  0.93747  1.0000
  C   C2793     1.0  0.83772  0.78255  0.77255  1.0000
  C   C2794     1.0  0.66372  0.50719  0.97426  1.0000
  H   H2226     1.0  0.54892  0.49428  0.94613  1.0000
  C   C2795     1.0  0.74041  0.75290  0.74903  1.0000
  H   H2227     1.0  0.70176  0.91096  0.86107  1.0000
  H   H2228     1.0  0.92955  0.79520  0.86925  1.0000
  C   C2796     1.0  0.61399  0.82529  0.85526  1.0000
  H   H2229     1.0  0.75162  0.87538  0.86740  1.0000
  H   H2230     1.0  0.76704  0.88100  0.74339  1.0000
  C   C2797     1.0  0.61973  0.84908  0.82631  1.0000
  C   C2798     1.0  0.64111  0.85759  0.83687  1.0000
  C   C2799     1.0  0.63798  0.84579  0.85148  1.0000
  P   P94       1.0  0.67178  0.88454  0.83207  1.0000
  C   C2800     1.0  0.67158  0.91503  0.83688  1.0000
  C   C2801     1.0  0.69727  0.88180  0.84326  1.0000
  C   C2802     1.0  0.73457  0.58724  0.88829  1.0000
  H   H2231     1.0  0.71424  0.57301  0.88866  1.0000
  C   C2803     1.0  0.69904  0.79967  0.96894  1.0000
  H   H2232     1.0  0.73136  0.84691  0.84395  1.0000
  C   C2804     1.0  0.70821  0.89717  0.85698  1.0000
  C   C2805     1.0  0.69497  0.93834  0.83744  1.0000
  C   C2806     1.0  0.69502  0.96196  0.84115  1.0000
  C   C2807     1.0  0.67177  0.96263  0.84422  1.0000
  C   C2808     1.0  0.64838  0.93958  0.84368  1.0000
  C   C2809     1.0  0.64823  0.91584  0.84004  1.0000
  C   C2810     1.0  0.67646  0.88212  0.81122  1.0000
  C   C2811     1.0  0.68580  0.90423  0.80191  1.0000
  C   C2812     1.0  0.68973  0.90223  0.78590  1.0000
  C   C2813     1.0  0.68419  0.87814  0.77898  1.0000
  C   C2814     1.0  0.67434  0.85591  0.78804  1.0000
  C   C2815     1.0  0.67032  0.85784  0.80406  1.0000
  H   H2233     1.0  0.61173  0.81612  0.86651  1.0000
  C   C2816     1.0  0.59576  0.82859  0.83014  1.0000
  C   C2817     1.0  0.76232  0.89575  0.74808  1.0000
  H   H2234     1.0  0.94204  0.66510  0.80773  1.0000
  H   H2235     1.0  0.65401  0.85235  0.85996  1.0000
  H   H2236     1.0  0.63037  0.94019  0.84606  1.0000
  C   C2818     1.0  0.96374  0.65672  0.86625  1.0000
  C   C2819     1.0  0.58532  0.61156  0.97189  1.0000
  H   H2237     1.0  0.59134  0.50286  0.96036  1.0000
  H   H2238     1.0  0.94564  0.72163  0.73896  1.0000
  H   H2239     1.0  0.71320  0.93828  0.83496  1.0000
  C   C2820     1.0  0.69433  0.57027  0.97990  1.0000
  Fe  Fe192     1.0  0.97712  0.74792  0.83070  1.0000
  C   C2821     1.0  0.72779  0.89493  0.86562  1.0000
  H   H2240     1.0  0.62987  0.89830  0.83968  1.0000
  H   H2241     1.0  0.69075  0.92323  0.80696  1.0000
  H   H2242     1.0  0.69749  0.91955  0.77894  1.0000
  H   H2243     1.0  0.68761  0.87674  0.76662  1.0000
  H   H2244     1.0  0.66998  0.83720  0.78268  1.0000
  H   H2245     1.0  0.66251  0.84037  0.81085  1.0000
  H   H2246     1.0  0.91375  0.51587  0.97524  1.0000
  C   C2822     1.0  0.65268  0.60755  0.83167  1.0000
  P   P95       1.0  0.77747  0.66595  0.89559  1.0000
  C   C2823     1.0  0.77648  0.68128  0.87744  1.0000
  H   H2247     1.0  0.97595  0.79473  0.75617  1.0000
  C   C2824     1.0  0.96616  0.73478  0.73856  1.0000
  S   S382      1.0  0.73594  0.98222  0.80386  1.0000
  H   H2248     1.0  0.56533  0.60285  0.96771  1.0000
  H   H2249     1.0  0.69591  0.66817  0.90916  1.0000
  H   H2250     1.0  0.74926  0.91591  0.78308  1.0000
  C   C2825     1.0  0.59291  0.81664  0.84459  1.0000
  H   H2251     1.0  0.65723  0.64444  0.98619  1.0000
  H   H2252     1.0  0.80898  0.97215  0.77296  1.0000
  C   C2826     1.0  0.77574  0.71742  0.86370  1.0000
  H   H2253     1.0  0.70475  0.61504  0.77074  1.0000
  C   C2827     1.0  0.77690  0.66971  0.86291  1.0000
  H   H2254     1.0  0.91746  0.76405  0.84368  1.0000
  H   H2255     1.0  0.71846  0.55090  0.98210  1.0000
  C   C2828     1.0  0.64803  0.61913  0.77278  1.0000
  C   C2829     1.0  0.85532  0.61961  0.88157  1.0000
  C   C2830     1.0  0.71785  0.66871  0.92993  1.0000
  H   H2256     1.0  0.65936  0.58041  0.84557  1.0000
  H   H2257     1.0  0.77445  0.73552  0.86393  1.0000
  C   C2831     1.0  0.75206  0.91518  0.77058  1.0000
  C   C2832     1.0  0.68553  0.59399  0.82627  1.0000
  H   H2258     1.0  0.63704  0.60658  0.83888  1.0000
  C   C2833     1.0  0.94858  0.79689  0.87205  1.0000
  C   C2834     1.0  0.69357  0.61048  0.81350  1.0000
  H   H2259     1.0  0.83862  0.68602  0.78733  1.0000
  H   H2260     1.0  0.61904  0.49203  0.94336  1.0000
  H   H2261     1.0  0.76527  0.73800  0.75868  1.0000
  C   C2835     1.0  0.66522  0.59269  0.83543  1.0000
  C   C2836     1.0  0.91981  0.90868  0.76081  1.0000
  C   C2837     1.0  0.81562  0.95755  0.77440  1.0000
  C   C2838     1.0  0.84424  0.82132  0.73751  1.0000
  H   H2262     1.0  0.90324  0.86710  0.75763  1.0000
  C   C2839     1.0  0.77569  0.70518  0.87772  1.0000
  C   C2840     1.0  0.85416  0.69444  0.77910  1.0000
  C   C2841     1.0  0.96727  0.61172  0.98042  1.0000
  C   C2842     1.0  0.71018  0.60631  0.96209  1.0000
  H   H2263     1.0  0.70323  0.66819  0.93791  1.0000
  C   C2843     1.0  0.63437  0.60214  0.76022  1.0000
  H   H2264     1.0  0.84333  0.66619  0.81318  1.0000
  H   H2265     1.0  0.54195  0.97996  0.94761  1.0000
  H   H2266     1.0  0.67195  0.98111  0.84693  1.0000
  H   H2267     1.0  0.83669  0.73783  0.85284  1.0000
  C   C2844     1.0  0.71369  0.66864  0.91373  1.0000
  C   C2845     1.0  0.87194  0.68456  0.77750  1.0000
  H   H2268     1.0  0.84297  0.72315  0.77193  1.0000
  C   C2846     1.0  0.73201  0.66830  0.90339  1.0000
  H   H2269     1.0  0.72806  0.66754  0.89089  1.0000
  C   C2847     1.0  0.76817  0.63205  0.89140  1.0000
  C   C2848     1.0  0.74048  0.66866  0.93580  1.0000
  C   C2849     1.0  0.65526  0.77736  0.97850  1.0000
  C   C2850     1.0  0.87701  0.72703  0.75975  1.0000
  C   C2851     1.0  0.72477  0.86086  0.84763  1.0000
  C   C2852     1.0  0.85669  0.71560  0.77029  1.0000
  C   C2853     1.0  0.77963  0.59761  0.88492  1.0000
  H   H2270     1.0  0.62156  0.85836  0.81514  1.0000
  C   C2854     1.0  0.73399  0.58168  0.96568  1.0000
  H   H2271     1.0  0.85065  0.81397  0.78973  1.0000
  H   H2272     1.0  0.81727  0.77672  0.77400  1.0000
  C   C2855     1.0  0.75478  0.66814  0.90915  1.0000
  C   C2856     1.0  0.54578  0.50642  0.95473  1.0000
  H   H2273     1.0  0.90624  0.68843  0.76582  1.0000
  C   C2857     1.0  0.95181  0.77454  0.87343  1.0000
  H   H2274     1.0  0.53863  0.56141  0.95654  1.0000
  C   C2858     1.0  0.85652  0.80362  0.78130  1.0000
  C   C2859     1.0  0.87159  0.77480  0.76080  1.0000
  H   H2275     1.0  0.70772  0.62166  0.95643  1.0000
  H   H2276     1.0  0.84847  0.59893  0.88304  1.0000
  H   H2277     1.0  0.92964  0.50505  0.95088  1.0000
  S   S383      1.0  0.57790  0.50883  0.91695  1.0000
  C   C2860     1.0  0.96998  0.82144  0.87415  1.0000
  H   H2278     1.0  0.74990  0.57772  0.96256  1.0000
  H   H2279     1.0  0.77487  0.71428  0.88878  1.0000
  C   C2861     1.0  0.71593  0.56632  0.97659  1.0000
  C   C2862     1.0  0.75885  0.66830  0.92547  1.0000
  C   C2863     1.0  0.79024  0.84021  0.74722  1.0000
  H   H2280     1.0  0.63447  0.76862  0.97614  1.0000
  H   H2281     1.0  0.79428  0.59127  0.88290  1.0000
  H   H2282     1.0  0.87993  0.71417  0.92292  1.0000
  H   H2283     1.0  0.84738  0.61590  0.85670  1.0000
  H   H2284     1.0  0.68055  0.58533  0.74849  1.0000
  H   H2285     1.0  0.84755  0.67060  0.93141  1.0000
  C   C2864     1.0  0.82864  0.70592  0.89920  1.0000
  C   C2865     1.0  0.81719  0.66881  0.91573  1.0000
  C   C2866     1.0  0.69199  0.59083  0.97288  1.0000
  H   H2286     1.0  0.77589  0.66777  0.93034  1.0000
  H   H2287     1.0  0.82391  0.71609  0.89019  1.0000
  H   H2288     1.0  0.80329  0.64983  0.91961  1.0000
  C   C2867     1.0  0.86050  0.70507  0.91766  1.0000
  C   C2868     1.0  0.75343  0.57924  0.88517  1.0000
  C   C2869     1.0  0.85374  0.71765  0.90596  1.0000
  C   C2870     1.0  0.81013  0.68138  0.90405  1.0000
  H   H2289     1.0  0.85021  0.81996  0.74940  1.0000
  H   H2290     1.0  0.83019  0.75171  0.75587  1.0000
  P   P96       1.0  0.88053  0.75459  0.74843  1.0000
  H   H2291     1.0  0.63554  0.57696  0.74167  1.0000
  H   H2292     1.0  0.67610  0.59494  0.97561  1.0000
  S   S384      1.0  0.95926  0.72215  0.85206  1.0000
  H   H2293     1.0  0.74447  0.61283  0.94949  1.0000
  H   H2294     1.0  0.71309  0.97986  0.84153  1.0000
  C   C2871     1.0  0.70899  0.79981  0.98402  1.0000
  C   C2872     1.0  0.91365  0.77142  0.74191  1.0000
  C   C2873     1.0  0.73095  0.60150  0.95830  1.0000
  H   H2295     1.0  0.63084  0.54555  0.97113  1.0000
  H   H2296     1.0  0.74987  0.94551  0.73725  1.0000
  H   H2297     1.0  0.91017  0.72475  0.74988  1.0000
  H   H2298     1.0  0.59521  0.55746  0.97210  1.0000
  H   H2299     1.0  0.97306  0.64519  0.86251  1.0000
  H   H2300     1.0  0.80531  0.79023  0.73976  1.0000
  C   C2874     1.0  0.93054  0.49594  0.96175  1.0000
  H   H2301     1.0  0.51810  0.97716  0.97200  1.0000
  H   H2302     1.0  0.97045  0.54954  0.92676  1.0000
  C   C2875     1.0  0.60725  0.56002  0.98252  1.0000
  C   C2876     1.0  0.62762  0.55352  0.98194  1.0000
  C   C2877     1.0  0.53734  0.51530  0.98131  1.0000
  C   C2878     1.0  0.63712  0.63511  0.98215  1.0000
  H   H2303     1.0  0.53235  0.54984  0.98458  1.0000
  H   H2304     1.0  0.72981  0.80835  0.98612  1.0000
  C   C2879     1.0  0.59930  0.69325  0.98559  1.0000
  C   C2880     1.0  0.59202  0.62522  0.98645  1.0000
