data_image0
_chemical_formula_structural       CFeS2FeSFeSFeS3FeS2FeS2FeHFeHS2HCHCH4C4H2C2HCH2C3H2C6H4C6HCHPC4PC8H2C4H3C2H2C2H5C2H8C2H2C3HC7H4PCHCHC3HCHCH2CH2C2H2CHCHPH2CH3CH2CHC6H3C2H2PHC3H4C6HC8HCH2C3HCHC2HC8PH5CHC2HC9HCH2CHCH2C2H2SH2C8HC2H2C2HFeSFeS2FeSFeS3FeS2FeSCFeSFeS3FeSFeS2FeSFeS2H2C9H4CH3C7H4CHC2H2CH2CHC6H4CHSC4H3CH3CHC2SC3SHCHC4HCHCH2CH3C2HCHC2H2CH2CSHPC2H2C2HCPHC2HC5HC6HC3HCH6C3H6SHC5PC6HC6HCHC3HCH5CH2CHC2H2CH2C2HCHC2HCHC3PCHC2HCHCHCHCH2C2HCH2C2H2CHC2HC3H3C7HCH2C6H2CHCH4CHC3H6CH2CHPHCHC5H3C2FeS2FeS2Fe2S3CH3CHFeSFeSFeSFeS2FeS2FeS2FeHFeS3H3CH2SCSHC5H7C7H4CHCHC4HC6H2C6H4C3HC2HCH2C2H2C3PH2CHC3H2CHCHC2HCH2CH8C2H2CHCH2C2H3C6PHC7HC4HC3H10C2HCHCHC3HSC2HC2H2CH2CHC2HCHCHC2HC8PC12HCHCH14C8PC18H10PCH3C2HPHC5HCHCHC3HCPCHCHC2H2CH2CHC3H3C2H2CHSC6HCHSH2CFeS2FeSFeSFeS3FeSFeS4HCSH3C2FeC6H2C7H6CHCH4CH2C4HCH5PH2C3HC3HC2HC9H7C2HCH7C3H5CH2C3H2CHC6HCHC5PCH2CHPCHCSHCHCH2CH3CH2CH2C3SHCHCHCHCHCHCHCPC16H4C2H7CH2CH3CHCFeCHC2H2CH2C2HC5HC5HC2H2CHCSC6H2CHC2HC2HC3HC3HCHC3HCHPH2CH2C2H5CH4CHCHCPHC2HFeS2FeS2FeSFeS3FeSCSFePFeS2HCSHSFeHFeS2H3CH2C2H3C6H4C6H2SHC6H6PCH3CHC6PC18H20CHC2HCHCHCHCSCHC3HC2HCHPHCH2C2HC9HFeCH4PHC2HC4H2SH2CHC5HCH2C5HC4H2CH2C3HC2HCH3C2FeSPC3H2C3HSC6HC2HCH2CH2CHFeC2H2CSHC4HCHC2HCHCHC5HCHC2HC2H2SHCHCHC2H2CHC2H3C3HCPH6CHC4HC2SH3CFeS2FeSCFeSFeS5FeSFeH2FeS2FeS2FeSFeS4C6H3C2HC7H7C6H4C2HCH3CPC5H2C3H2CH2CH2CH2C4H4CH2CHCHC3HPC16FeC2H2CH13CHC7PC6H4CH2FeCSH2CH2C2H3CHCSCHC2HC2HCH2CHPHCH3C2HCH2C4HC5H3CH3C2H2C2H2SCH2CHCHC6PC18H20CHC3H2CH2C4HCHC3HCHCSCHC6HCHCH3C2H2C4H2CSCPFeHFeS2HCS2CSFeSPFe2S2FeS2FeS2FeSFeS4C6H3C2FePCH2C6H7C7H7CHC2H2C3HFeCH2C2HCSHC3HCH4SCHC3HCH2CHC3HCHCH3CH2CHC3SCSH6CH2C3HCHCFeHC2H2CHC2HC13H2C5HC2H7CHC3HCH3C2SHCHPC8HCHC2HCHC2HC2H5CH2C3H2CHPHC6PC18H18CHCH7C6HC3HC2H4C2HCHCHFeS2FeS2FeSFeS3FeS2FeCFeCS2C3HFeSCFeS2FeSFeCS2C2H3C3HC5SC3SCH2SC6H4C6HCH2C6H4CFeC4PC3H4CHC2HCH3C2H2CH4C6PC19H19C5H2CH4CH4C3HCH2C2HC3HC3HC3HCH2CHCHSCHSH2C8HCH3CH7C3H3C6HPC3HC2HC2H2C2H2C2HCHC2H2CHC2H3CH3C4H5CH3SHCHC3FeS2FeSFeSFeS3C2H2SH2SHFeSFeS2HFeCSFeS2FeH2CS2H4CH2C8H2CH3C2HC2H3C2HC3HPHCH2C6H4C2H2CPC4H5C10PC3H2C13H5CH2CH10C6PC3H3C9HC2H6CH10C2HC6PC4H2CH2CHC3HCHCH2C2HCHCHCHC5HCPC2FeHCH2CH5C4H2C3HCHCHCHCH2CHC2HC3HC2H2CHCHCH2C2HC3H2C2H2C3H3CHSCHC4H2C2H2CHC2HC2H3FeC2HFeH2CHCSCH3C2HC2HFeSFeS2FeSFeS4FeS2FeS2FeHFeHS2CPH2CH2CHCH2C2H2C6H4C6HCH2C5PH2CHCHC4HC2H2CSC4HC4HCH2C2HCH2CPH2C4HC8PC3HC6HC3H9C2HC2HCHC3H3CHC3H2C3HC2SHPCH2CH2CHC2HC6HCHC2H2CH4CHSC2HCHC3H3CHCH5C4HCSC2HCHCHC4H3C4H2CSC2H3C2HCH6C3H3CSHCSCH4C2HC5H2CH2C4H2CSC3H5CH2CH2FeS2FeSFeSFeS3CFeS2FeSHCFeS3H2C5HCHCHCH3CHCHCHCHCHC7H4C6H2CHC3H3CH2C7PC15HC2H2SH14CH3C2HCHC4PFeCH3CHC2H3C3HCHCHC3HC5HCH2CHC2H8CH3C3HCH4PHC2H2CHCHCHCHCSHCHCHCHCFeS2FeSHFeSFeS3CH3FeS2FeSCFeHFeCS2FeS2FeSFe2CS2HCHC6H2C5H5CHC3HCHCH2C6H4CPH3C2HC5HCHC2HC2HC2SC3HC2HC6H2CSHCSCHCHCHSCH5C6PC16H4CH12C8H2CHCH2C3H2CH3CH3SC3H5CHSCH2CHC8SH2C3HC3HC3HC3H2CH7CPH2C5PC12HC5H11CHCHCH2C3H2CPC2HSCH3CH3C2HCHC2H3CHCPH2CSCH2C3HCH2C3HCH2CH2C3PCHCH2SFeS2FeS2FeSFeS3H4C2HFeS2FeSCS2FeS2FeCSFeHFeHS2HCSC5H2CHCHCHC2HCHC2H2CH3C4H2PHC3H2C6H4CH3C7H3CH2FeHCHCH2CH2FeSCH2CH2CHC2H3C2HC8SH4CHC3H5CH2CHC7PC10H8C6PC15H2CH16C2H2C2HC4H3C2H2C4H2CH3C8H2CH2C5H3PH3C2HCHCHSHC2H4FeS2FeSHFeSFeS3FeS2FeSFe2S2H2C4HCPC2H2C3H2C10H4C2H6SHC3HCH3CHCH2C4H2CHC4SHCHC3HCHCSHC10HCH6CHCH2CHC2H3C3H2C5HCHC2HC4PHSH6C4H2C3HC7PH2C2H5C6PHC7H3C7H7C2H2CH2SHCH6CH3C4HC2H4C2H3CHC2HC2H3C3HC6H4C3H3C5HC5H5FeSFeS2FeSFeS3FeS2FeHSFeHPHS2C2HC3HCH2CHC4PH3C9H4C2HC7HC2HC3HC2HCHC3FeH6CHC3H4CHCH2CHCHC2H3C8PC4H2C2HC9H2CH3C3H3C3H5C2HCHCH2CHCH2CH4C2H6CSH2C6HC4H2CH2CH2CHCH2C3H2CH3C2HC4H2C5HCHC2H3C4H2C2HC3HPHC2HSH2CHC2H3C2H2CHCH2C6HC5HC3SFeSFeS2FeSFeS3H2CH2CFeS2FeS2FeSFeCS2FeS2FeS2FeHFeCS2H3C6H4CSCH2SHPCHCHC6HCHC8H4C4HC6H3C5H7SCHC3PC19HCH14PCHC2H5C2HC2HC5HC3PCHC2H2CH5C2HPC7H3C8H2CHCH7CH7C3HCHCHC2HCHCHC2HCHCH3C7PC19HCH4CH14C7HCH2PC2H2C2H4C2HCH2C2H2C2SC2HCH2C6HC2SCH3C4H4C3SHC3H5CH4CH3C4FeS2FeS2FeSFeS3FeS2Fe2S2C2FeS2FeCSFeH2CS2CHCHC4H2CHFeH2C4HC6H4C6H4C2HC6H3CH2CH2C2H3SH2CSC6PC18H20CSC2H2CHC2H2C4H5C3H2C11HC2HC2H2C2H5C4H2C2H3C2HPHC2HCH2SCHCHC2HC3HC2H4C2HC3H2CH4C3HCPH2CHC5H2C2PHC2H2CFeCH2C4H3CH2C2HCHCSHC4HCHC2HC2H2CH2CH2C2HC2SH2C2H2C3HC2HC2HCHCHCH2CH2C4H2PCH2C3H4C2HCPFeSFeS2FeCFeS2FeSFeSHFeSHSFeS2FeS2FeSFeS3C2HCHC6H4C11H3PCH2SC6H4CH2CHCH7C5HCH2C2H3C3H2CH3PC3H3CHSCH2C2HC6PC18H20C4HC3HC4H2C2H2C2PC2HCH3C7H2PC3H5FeCHCHPC2HCHSH2SC4HC2HC8H2CSC6H2C2H2CH6C2H6CPCHC2HCHC3SC4HC2HCH2CH2C3HC3H2C2H3C2H2CFeSHCSHFeSFeSHSCFeSCS2FeS2FeS2FeSFeS3C3H2C6H4C2HC5H4C7H5C2HC2H2CH2FeCH2C2H4C2FeCHCSCHCH2C3H4C3HCHCHCHCH2CH2CHCHC2HC3HFeH2CHC2HC2H2C2HCH2PC2HC2H4C4H2C4HSCH2CHC3HC7PC17H19CSCHC2HPC2H2C7HCH2CH2C3HCHCFeCHC3H2C2PCHCHC4HC4H5C2H4C2HCHC3H3SCHCHCH2C2HCH2CH2CHC2FeS2FeS2FeSFeS3Fe2S3FeSHFeSCFeSFeS2CH2CHC4H2S2C6H4C6H7C2H2C5H3CH3SC2HC3HC3H2C2HCSCHFeC4HCH2CHCSC3HC2HCPC2H2CHCSHCHCHCH3CSC7PC3HC15H13C2HC3PHC10HPCH6C2H3C8H8SHCH2SC7H2SC6HCH3CH3C3H4CH2CHPC2HCHSCHCHFeHCHCHCH2C2H4C3HC3H2C2HCH7C3H3FeS2FeS2Fe2S3FeS2FeSFeCFeCS3C4HCHC2HCH2C2H3C2HCH2C6H4C6HCH2CHCH3CH2CH4CHC2H2C3HCH3CH2CHCPHC3H2CHC2HC3PC3H3C7HCSCHC2HPC6HC2HC2H3C2HC3PHC3H2CHCH2C2HSC2H2C3H3CHC4H3CHCHC5H5C4HC4HC3HCH3CH2C2HC3HCH2C2HC4H2CHC2H3C4H2CH2CHCH3PCH3CHCSC3FeS2FeS2FeSFeCS2H2FeSFeSFeSFeS2FeS2FeS2FeCFeCS2C2HC4H2CHCHCHC6H3C2HCHCH2C2HC2SC6H4C6H4CH2SCH2CHC5HC5H2SC3HC2H3C2HPCHCHC5PC21HCH3C2H6SH6CHC2HC2HCHC4HC2H2PC3H3CHC2HSHC2H3C3H3CHC2HCHCHCH4CHCHCHCH2C2HCHC3H3CHC3HC8H6CH5C2HCSPCH2CHC4H2CHCHCHC2HCH8C3HSCHSHCPHC7HC3HCHCFeS2FeS2Fe2S3HFeHSFeS2FeC2HS2FeSFeS2FeHFeHS2HCHCH4CH2SC4H2C6H4CHCSCH2SCHCPHC6H4C6HCH2C2H4C7PC18H21C8H2CHC4H4CH3C2FeCH2C3HC4HC2H2CSC2HC2HC2H2C2HC2HCHC6H5CPC2HC5H2CH2CHC2SC4H2C2HC2H2CPCH2CHC3HC2H2CHC3H2C3H2CH3C2PCHCHCH2C3H2C2HC2SH2CHSC3HCHCH2CH4C2H2FeS2FeSCFeSFeS3CFeS2FeS2FeSFeS3HC2HC4H2CHC3HC3HC6H4C6H2CH2CH2C2SCH3C2HCHCHCH3CHCHC2H6C2H4CHC3HC3HC2H2C3H2C7PC18H11CH8CHC3HPC4H2C10HCH6C3H7CHC6HC2PC3HCHCHCHC2HC2H2C2HC2HCHCHCH2C8HPCHCHCPC2PCH5CHSCH7CH2CHC3HC2HC2H2CHC2H3
_chemical_formula_sum              "C3840 Fe256 S512 H3072 P128"
_cell_length_a       62.2949
_cell_length_b       62.0292
_cell_length_c       83.5458
_cell_angle_alpha    84.3585
_cell_angle_beta     84.2937
_cell_angle_gamma    86.3033

_space_group_name_H-M_alt    "P 1"
_space_group_IT_number       1

loop_
  _space_group_symop_operation_xyz
  'x, y, z'

loop_
  _atom_site_type_symbol
  _atom_site_label
  _atom_site_symmetry_multiplicity
  _atom_site_fract_x
  _atom_site_fract_y
  _atom_site_fract_z
  _atom_site_occupancy
  C   C1        1.0  0.29886  0.09619  0.15090  1.0000
  Fe  Fe1       1.0  0.04725  0.08953  0.06977  1.0000
  S   S1        1.0  0.07303  0.11368  0.06436  1.0000
  S   S2        1.0  0.04815  0.05298  0.07333  1.0000
  Fe  Fe2       1.0  0.01110  0.12404  0.07042  1.0000
  S   S3        1.0  0.03355  0.15140  0.06554  1.0000
  Fe  Fe3       1.0  0.05088  0.13092  0.04686  1.0000
  S   S4        1.0  0.06009  0.14734  0.02175  1.0000
  Fe  Fe4       1.0  0.05391  0.13248  0.08356  1.0000
  S   S5        1.0  0.07371  0.14409  0.10269  1.0000
  S   S6        1.0  0.02699  0.10515  0.05063  1.0000
  S   S7        1.0  0.02970  0.10681  0.08997  1.0000
  Fe  Fe5       1.0  0.10758  0.24819  0.19299  1.0000
  S   S8        1.0  0.09858  0.23131  0.21775  1.0000
  S   S9        1.0  0.13608  0.27075  0.18559  1.0000
  Fe  Fe6       1.0  0.07653  0.22056  0.17702  1.0000
  S   S10       1.0  0.06612  0.20214  0.20076  1.0000
  S   S11       1.0  0.05981  0.21489  0.15453  1.0000
  Fe  Fe7       1.0  0.06376  0.23427  0.21126  1.0000
  H   H1        1.0  0.14527  0.31760  0.15498  1.0000
  Fe  Fe8       1.0  0.10129  0.20057  0.20534  1.0000
  H   H2        1.0  0.02368  0.01563  0.00040  1.0000
  S   S12       1.0  0.07262  0.25333  0.18724  1.0000
  S   S13       1.0  0.11177  0.21687  0.18086  1.0000
  H   H3        1.0  0.12692  0.04227  0.06215  1.0000
  C   C2        1.0  0.44743  0.29759  0.21607  1.0000
  H   H4        1.0  0.09277  0.06503  0.06633  1.0000
  C   C3        1.0  0.48530  0.31284  0.15975  1.0000
  H   H5        1.0  0.18341  0.13986  0.20724  1.0000
  H   H6        1.0  0.27492  0.00320  0.20462  1.0000
  H   H7        1.0  0.06162  0.25513  0.13139  1.0000
  H   H8        1.0  0.44059  0.30761  0.22543  1.0000
  C   C4        1.0  0.25170  0.05450  0.19933  1.0000
  C   C5        1.0  0.00477  0.20050  0.09662  1.0000
  C   C6        1.0  0.37832  0.30923  0.99640  1.0000
  C   C7        1.0  0.01175  0.20693  0.08045  1.0000
  H   H9        1.0  0.30500  0.08500  0.19085  1.0000
  H   H10       1.0  0.21812  0.07985  0.22075  1.0000
  C   C8        1.0  0.22542  0.25009  0.20714  1.0000
  C   C9        1.0  0.27413  0.08843  0.18065  1.0000
  H   H11       1.0  0.13121  0.29613  0.21414  1.0000
  C   C10       1.0  0.13112  0.06491  0.02246  1.0000
  H   H12       1.0  0.19920  0.27426  0.20377  1.0000
  H   H13       1.0  0.21368  0.15016  0.18702  1.0000
  C   C11       1.0  0.17024  0.29778  0.18273  1.0000
  C   C12       1.0  0.15153  0.29102  0.19235  1.0000
  C   C13       1.0  0.14552  0.30100  0.20658  1.0000
  H   H14       1.0  0.14169  0.03939  0.00741  1.0000
  H   H15       1.0  0.00707  0.22682  0.20953  1.0000
  C   C14       1.0  0.06900  0.16313  0.11758  1.0000
  C   C15       1.0  0.08509  0.16529  0.12795  1.0000
  C   C16       1.0  0.08238  0.18058  0.13959  1.0000
  C   C17       1.0  0.06359  0.19419  0.14088  1.0000
  C   C18       1.0  0.04747  0.19197  0.13054  1.0000
  C   C19       1.0  0.05004  0.17641  0.11910  1.0000
  H   H16       1.0  0.09985  0.15512  0.12692  1.0000
  H   H17       1.0  0.09498  0.18209  0.14736  1.0000
  H   H18       1.0  0.03288  0.20239  0.13142  1.0000
  H   H19       1.0  0.03751  0.17473  0.11135  1.0000
  C   C20       1.0  0.07873  0.00902  0.15438  1.0000
  C   C21       1.0  0.11103  0.01211  0.06481  1.0000
  C   C22       1.0  0.07198  0.01534  0.06917  1.0000
  C   C23       1.0  0.07251  0.03787  0.06913  1.0000
  C   C24       1.0  0.09230  0.04763  0.06639  1.0000
  C   C25       1.0  0.11158  0.03475  0.06409  1.0000
  H   H20       1.0  0.06524  0.18868  0.08617  1.0000
  C   C26       1.0  0.18897  0.23315  0.22687  1.0000
  H   H21       1.0  0.28379  0.11774  0.20649  1.0000
  P   P1        1.0  0.20794  0.22756  0.20981  1.0000
  C   C27       1.0  0.04362  0.23395  0.09276  1.0000
  C   C28       1.0  0.23411  0.10033  0.20131  1.0000
  C   C29       1.0  0.46408  0.30496  0.20475  1.0000
  C   C30       1.0  0.07767  0.00655  0.11618  1.0000
  P   P2        1.0  0.09785  0.02186  0.12348  1.0000
  C   C31       1.0  0.09069  0.02468  0.14469  1.0000
  C   C32       1.0  0.09896  0.04861  0.11279  1.0000
  C   C33       1.0  0.08308  0.06486  0.11673  1.0000
  C   C34       1.0  0.08442  0.08590  0.10917  1.0000
  C   C35       1.0  0.10161  0.09094  0.09765  1.0000
  C   C36       1.0  0.11733  0.07484  0.09350  1.0000
  C   C37       1.0  0.11603  0.05374  0.10101  1.0000
  C   C38       1.0  0.26408  0.09160  0.16622  1.0000
  H   H22       1.0  0.24625  0.12565  0.18357  1.0000
  H   H23       1.0  0.25178  0.14436  0.21857  1.0000
  C   C39       1.0  0.09231  0.04450  0.16822  1.0000
  C   C40       1.0  0.09759  0.04235  0.15177  1.0000
  C   C41       1.0  0.00360  0.05308  0.98226  1.0000
  C   C42       1.0  0.27640  0.09565  0.15141  1.0000
  H   H24       1.0  0.19669  0.31930  0.17938  1.0000
  H   H25       1.0  0.07279  0.04934  0.01838  1.0000
  H   H26       1.0  0.11377  0.31865  0.17537  1.0000
  C   C43       1.0  0.10165  0.02994  0.97909  1.0000
  C   C44       1.0  0.23151  0.04920  0.19516  1.0000
  H   H27       1.0  0.18334  0.25007  0.15568  1.0000
  H   H28       1.0  0.44220  0.31348  0.13746  1.0000
  C   C45       1.0  0.07679  0.00922  0.00736  1.0000
  C   C46       1.0  0.23295  0.12054  0.19212  1.0000
  H   H29       1.0  0.06971  0.06134  0.12571  1.0000
  H   H30       1.0  0.07215  0.09839  0.11227  1.0000
  H   H31       1.0  0.10266  0.10734  0.09193  1.0000
  H   H32       1.0  0.13046  0.07869  0.08437  1.0000
  H   H33       1.0  0.12833  0.04156  0.09747  1.0000
  C   C47       1.0  0.05971  0.14642  0.98889  1.0000
  C   C48       1.0  0.26083  0.26462  0.20674  1.0000
  H   H34       1.0  0.11002  0.06268  0.98216  1.0000
  H   H35       1.0  0.09761  0.05825  0.17357  1.0000
  H   H36       1.0  0.10716  0.05445  0.14461  1.0000
  H   H37       1.0  0.18584  0.10466  0.22417  1.0000
  H   H38       1.0  0.07886  0.07886  0.03481  1.0000
  H   H39       1.0  0.17516  0.29025  0.17172  1.0000
  H   H40       1.0  0.22260  0.30542  0.20078  1.0000
  H   H41       1.0  0.05715  0.03462  0.10870  1.0000
  C   C49       1.0  0.33666  0.26509  0.22424  1.0000
  C   C50       1.0  0.02081  0.05827  0.02174  1.0000
  H   H42       1.0  0.05670  0.00773  0.07108  1.0000
  H   H43       1.0  0.26197  0.29942  0.20241  1.0000
  C   C51       1.0  0.43977  0.27702  0.21559  1.0000
  C   C52       1.0  0.13871  0.00737  0.13281  1.0000
  C   C53       1.0  0.10681  0.04184  0.01191  1.0000
  H   H44       1.0  0.03038  0.07065  0.01491  1.0000
  C   C54       1.0  0.47069  0.30410  0.99944  1.0000
  C   C55       1.0  0.02820  0.04765  0.03584  1.0000
  C   C56       1.0  0.22962  0.28902  0.20265  1.0000
  C   C57       1.0  0.47306  0.29182  0.19272  1.0000
  C   C58       1.0  0.13736  0.16601  0.22796  1.0000
  C   C59       1.0  0.08027  0.02894  0.17776  1.0000
  C   C60       1.0  0.05929  0.01711  0.10988  1.0000
  H   H45       1.0  0.12454  0.00279  0.02855  1.0000
  H   H46       1.0  0.01268  0.20562  0.10642  1.0000
  H   H47       1.0  0.07125  0.16008  0.22144  1.0000
  H   H48       1.0  0.35213  0.26668  0.21716  1.0000
  P   P3        1.0  0.10264  0.01983  0.00010  1.0000
  C   C61       1.0  0.22706  0.02750  0.19448  1.0000
  H   H49       1.0  0.06015  0.25589  0.05569  1.0000
  C   C62       1.0  0.99856  0.10652  0.01097  1.0000
  H   H50       1.0  0.06115  0.08382  0.99059  1.0000
  C   C63       1.0  0.21457  0.13459  0.19412  1.0000
  C   C64       1.0  0.19752  0.12883  0.20558  1.0000
  C   C65       1.0  0.24353  0.16021  0.21679  1.0000
  H   H51       1.0  0.26854  0.09817  0.14032  1.0000
  C   C66       1.0  0.01607  0.03181  0.04495  1.0000
  H   H52       1.0  0.15269  0.32536  0.22181  1.0000
  C   C67       1.0  0.07157  0.19410  0.03937  1.0000
  H   H53       1.0  0.20555  0.25331  0.17801  1.0000
  H   H54       1.0  0.21918  0.06173  0.19241  1.0000
  C   C68       1.0  0.03775  0.27909  0.04453  1.0000
  H   H55       1.0  0.30841  0.09922  0.13941  1.0000
  H   H56       1.0  0.26572  0.17164  0.19680  1.0000
  C   C69       1.0  0.06025  0.10133  0.99007  1.0000
  C   C70       1.0  0.08427  0.17860  0.04800  1.0000
  H   H57       1.0  0.15548  0.19358  0.18139  1.0000
  H   H58       1.0  0.47148  0.26088  0.18299  1.0000
  C   C71       1.0  0.45101  0.31589  0.99762  1.0000
  H   H59       1.0  0.15834  0.22026  0.15719  1.0000
  C   C72       1.0  0.05943  0.13407  0.00396  1.0000
  H   H60       1.0  0.05034  0.28888  0.03827  1.0000
  P   P4        1.0  0.25811  0.08246  0.19958  1.0000
  H   H61       1.0  0.46996  0.32077  0.20558  1.0000
  H   H62       1.0  0.01185  0.24736  0.10078  1.0000
  C   C73       1.0  0.01605  0.28518  0.04282  1.0000
  H   H63       1.0  0.04314  0.05206  0.03994  1.0000
  H   H64       1.0  0.17663  0.19718  0.20422  1.0000
  H   H65       1.0  0.28334  0.04148  0.20530  1.0000
  C   C74       1.0  0.05691  0.20817  0.04758  1.0000
  H   H66       1.0  0.45440  0.29801  0.16357  1.0000
  H   H67       1.0  0.07624  0.03062  0.19052  1.0000
  C   C75       1.0  0.24278  0.01098  0.19777  1.0000
  H   H68       1.0  0.08851  0.23705  0.11258  1.0000
  C   C76       1.0  0.25183  0.28566  0.20371  1.0000
  C   C77       1.0  0.05934  0.11148  0.00449  1.0000
  C   C78       1.0  0.12405  0.00762  0.12103  1.0000
  C   C79       1.0  0.44851  0.26390  0.20364  1.0000
  C   C80       1.0  0.36882  0.31664  0.98227  1.0000
  C   C81       1.0  0.26298  0.01614  0.20171  1.0000
  H   H69       1.0  0.05906  0.10187  0.01598  1.0000
  H   H70       1.0  0.28672  0.29004  0.22771  1.0000
  H   H71       1.0  0.25497  0.23107  0.21189  1.0000
  C   C82       1.0  0.26754  0.03780  0.20231  1.0000
  C   C83       1.0  0.11346  0.07612  0.03013  1.0000
  H   H72       1.0  0.14737  0.06938  0.02363  1.0000
  H   H73       1.0  0.42725  0.27111  0.22462  1.0000
  P   P5        1.0  0.49521  0.30071  0.17836  1.0000
  H   H74       1.0  0.13438  0.01502  0.14385  1.0000
  C   C84       1.0  0.99672  0.02616  0.03974  1.0000
  C   C85       1.0  0.45796  0.31700  0.14068  1.0000
  C   C86       1.0  0.04365  0.00513  0.10443  1.0000
  H   H75       1.0  0.00429  0.13652  0.02043  1.0000
  H   H76       1.0  0.06431  0.99907  0.17828  1.0000
  H   H77       1.0  0.11596  0.08925  0.03728  1.0000
  H   H78       1.0  0.27804  0.26198  0.20761  1.0000
  C   C87       1.0  0.12784  0.04787  0.01333  1.0000
  C   C88       1.0  0.19284  0.22541  0.19279  1.0000
  C   C89       1.0  0.04326  0.26038  0.05436  1.0000
  C   C90       1.0  0.99757  0.23177  0.22025  1.0000
  C   C91       1.0  0.02866  0.24506  0.10317  1.0000
  C   C92       1.0  0.24049  0.19598  0.20242  1.0000
  H   H79       1.0  0.05892  0.02969  0.99010  1.0000
  C   C93       1.0  0.24766  0.24696  0.20880  1.0000
  C   C94       1.0  0.17867  0.20855  0.19353  1.0000
  C   C95       1.0  0.16661  0.20647  0.18061  1.0000
  C   C96       1.0  0.16830  0.22144  0.16696  1.0000
  C   C97       1.0  0.18240  0.23825  0.16613  1.0000
  C   C98       1.0  0.21398  0.18551  0.22448  1.0000
  C   C99       1.0  0.09118  0.00246  0.06729  1.0000
  C   C100      1.0  0.21645  0.27134  0.20438  1.0000
  H   H80       1.0  0.05988  0.16390  0.98836  1.0000
  C   C101      1.0  0.46492  0.30829  0.15551  1.0000
  H   H81       1.0  0.01059  0.15666  0.99342  1.0000
  H   H82       1.0  0.02993  0.01358  0.09910  1.0000
  C   C102      1.0  0.00091  0.10739  0.98177  1.0000
  C   C103      1.0  0.30903  0.09248  0.16517  1.0000
  C   C104      1.0  0.19887  0.10905  0.21510  1.0000
  H   H83       1.0  0.43745  0.30747  0.99476  1.0000
  C   C105      1.0  0.18247  0.31445  0.18702  1.0000
  H   H84       1.0  0.07256  0.19459  0.02631  1.0000
  C   C106      1.0  0.05672  0.24984  0.12037  1.0000
  C   C107      1.0  0.48863  0.31452  0.00303  1.0000
  H   H85       1.0  0.04671  0.21950  0.04063  1.0000
  C   C108      1.0  0.03516  0.25275  0.11701  1.0000
  C   C109      1.0  0.07353  0.01119  0.17085  1.0000
  C   C110      1.0  0.09250  0.07032  0.02867  1.0000
  C   C111      1.0  0.02708  0.24751  0.06241  1.0000
  C   C112      1.0  0.00099  0.05330  0.01675  1.0000
  C   C113      1.0  0.17627  0.32470  0.20112  1.0000
  C   C114      1.0  0.39526  0.32017  0.00111  1.0000
  C   C115      1.0  0.05809  0.01716  0.00010  1.0000
  P   P6        1.0  0.03458  0.22364  0.07520  1.0000
  H   H86       1.0  0.09164  0.16463  0.07159  1.0000
  H   H87       1.0  0.24672  0.09081  0.16642  1.0000
  H   H88       1.0  0.07761  0.22431  0.08781  1.0000
  H   H89       1.0  0.32647  0.09253  0.16474  1.0000
  H   H90       1.0  0.14485  0.13198  0.22558  1.0000
  C   C116      1.0  0.08224  0.17706  0.06486  1.0000
  H   H91       1.0  0.09511  0.16728  0.04160  1.0000
  C   C117      1.0  0.06735  0.19086  0.07311  1.0000
  C   C118      1.0  0.08915  0.05336  0.01950  1.0000
  H   H92       1.0  0.02164  0.02419  0.05614  1.0000
  C   C119      1.0  0.21715  0.09494  0.21307  1.0000
  C   C120      1.0  0.07186  0.23954  0.10978  1.0000
  C   C121      1.0  0.05491  0.20687  0.06455  1.0000
  C   C122      1.0  0.06545  0.23189  0.09589  1.0000
  C   C123      1.0  0.31934  0.27977  0.22100  1.0000
  C   C124      1.0  0.19480  0.24017  0.17894  1.0000
  C   C125      1.0  0.16859  0.24335  0.22445  1.0000
  C   C126      1.0  0.15775  0.31769  0.21087  1.0000
  C   C127      1.0  0.29675  0.08843  0.17999  1.0000
  H   H93       1.0  0.02344  0.26056  0.12537  1.0000
  C   C128      1.0  0.46491  0.27132  0.19214  1.0000
  H   H94       1.0  0.40192  0.31474  0.01242  1.0000
  H   H95       1.0  0.21135  0.02340  0.19159  1.0000
  C   C129      1.0  0.03801  0.00933  0.00596  1.0000
  H   H96       1.0  0.01179  0.29967  0.03519  1.0000
  C   C130      1.0  0.22232  0.20147  0.21291  1.0000
  H   H97       1.0  0.32141  0.29269  0.21135  1.0000
  H   H98       1.0  0.24629  0.20750  0.19260  1.0000
  C   C131      1.0  0.25135  0.17559  0.20461  1.0000
  C   C132      1.0  0.27267  0.08647  0.21656  1.0000
  H   H99       1.0  0.16365  0.24745  0.21238  1.0000
  H   H100      1.0  0.44275  0.24781  0.20352  1.0000
  S   S14       1.0  0.11804  0.16818  0.21368  1.0000
  H   H101      1.0  0.37216  0.29535  0.00397  1.0000
  H   H102      1.0  0.47210  0.28687  0.99805  1.0000
  C   C133      1.0  0.00528  0.25391  0.06086  1.0000
  C   C134      1.0  0.00538  0.12933  0.98049  1.0000
  C   C135      1.0  0.00316  0.12842  0.00964  1.0000
  C   C136      1.0  0.00661  0.13980  0.99442  1.0000
  C   C137      1.0  0.28369  0.10550  0.21665  1.0000
  C   C138      1.0  0.99795  0.09571  0.99702  1.0000
  C   C139      1.0  0.99983  0.27263  0.05101  1.0000
  C   C140      1.0  0.00158  0.19907  0.06809  1.0000
  H   H103      1.0  0.00716  0.20316  0.05553  1.0000
  C   C141      1.0  0.12375  0.99870  0.00310  1.0000
  C   C142      1.0  0.22455  0.16505  0.22641  1.0000
  H   H104      1.0  0.03340  0.14946  0.22763  1.0000
  H   H105      1.0  0.11958  0.99822  0.09738  1.0000
  C   C143      1.0  0.47140  0.32999  0.12989  1.0000
  C   C144      1.0  0.13046  0.99784  0.10675  1.0000
  H   H106      1.0  0.35535  0.30849  0.97882  1.0000
  Fe  Fe9       1.0  0.11787  0.02180  0.40932  1.0000
  S   S15       1.0  0.14129  0.04768  0.41054  1.0000
  Fe  Fe10      1.0  0.07864  0.05285  0.41228  1.0000
  S   S16       1.0  0.09852  0.08142  0.41335  1.0000
  S   S17       1.0  0.04255  0.05013  0.41469  1.0000
  Fe  Fe11      1.0  0.12080  0.06776  0.39332  1.0000
  S   S18       1.0  0.13168  0.08956  0.37065  1.0000
  Fe  Fe12      1.0  0.11739  0.05908  0.43051  1.0000
  S   S19       1.0  0.12513  0.07318  0.45332  1.0000
  S   S20       1.0  0.09895  0.04105  0.39086  1.0000
  S   S21       1.0  0.09599  0.03145  0.43061  1.0000
  Fe  Fe13      1.0  0.42047  0.24824  0.26026  1.0000
  S   S22       1.0  0.40511  0.23880  0.28566  1.0000
  S   S23       1.0  0.45271  0.23363  0.24876  1.0000
  Fe  Fe14      1.0  0.38300  0.28080  0.25297  1.0000
  S   S24       1.0  0.36575  0.27451  0.27757  1.0000
  C   C145      1.0  0.41291  0.32082  0.33087  1.0000
  Fe  Fe15      1.0  0.39839  0.27481  0.28711  1.0000
  S   S25       1.0  0.40411  0.29844  0.30568  1.0000
  Fe  Fe16      1.0  0.37322  0.23886  0.27437  1.0000
  S   S26       1.0  0.34435  0.21720  0.28336  1.0000
  S   S27       1.0  0.41508  0.28387  0.26236  1.0000
  S   S28       1.0  0.38924  0.24551  0.24903  1.0000
  Fe  Fe17      1.0  0.23050  0.08358  0.26418  1.0000
  S   S29       1.0  0.20199  0.09648  0.28009  1.0000
  Fe  Fe18      1.0  0.25893  0.12107  0.27223  1.0000
  S   S30       1.0  0.23219  0.13420  0.28926  1.0000
  S   S31       1.0  0.28975  0.13996  0.26353  1.0000
  Fe  Fe19      1.0  0.22573  0.09944  0.29809  1.0000
  S   S32       1.0  0.21930  0.08389  0.32404  1.0000
  Fe  Fe20      1.0  0.21068  0.12989  0.26982  1.0000
  S   S33       1.0  0.25441  0.08597  0.28252  1.0000
  S   S34       1.0  0.18893  0.15995  0.26397  1.0000
  H   H107      1.0  0.22746  0.25370  0.24938  1.0000
  H   H108      1.0  0.49442  0.31733  0.25691  1.0000
  C   C146      1.0  0.13960  0.02733  0.36007  1.0000
  C   C147      1.0  0.23023  0.02747  0.24599  1.0000
  C   C148      1.0  0.18794  0.00550  0.39175  1.0000
  C   C149      1.0  0.41161  0.30014  0.32558  1.0000
  C   C150      1.0  0.36305  0.27566  0.34089  1.0000
  C   C151      1.0  0.14396  0.00489  0.36076  1.0000
  C   C152      1.0  0.42161  0.30515  0.35753  1.0000
  C   C153      1.0  0.42068  0.28440  0.35217  1.0000
  C   C154      1.0  0.41580  0.28188  0.33629  1.0000
  H   H109      1.0  0.01314  0.15701  0.25357  1.0000
  H   H110      1.0  0.12711  0.12392  0.26331  1.0000
  H   H111      1.0  0.26178  0.02687  0.25447  1.0000
  H   H112      1.0  0.41499  0.26585  0.33241  1.0000
  C   C155      1.0  0.47794  0.24546  0.24199  1.0000
  H   H113      1.0  0.20033  0.02228  0.23636  1.0000
  H   H114      1.0  0.05091  0.03112  0.45345  1.0000
  H   H115      1.0  0.28198  0.22526  0.23419  1.0000
  C   C156      1.0  0.16310  0.05974  0.27516  1.0000
  C   C157      1.0  0.32914  0.19604  0.27731  1.0000
  C   C158      1.0  0.33407  0.18673  0.26267  1.0000
  C   C159      1.0  0.32175  0.16988  0.25867  1.0000
  C   C160      1.0  0.30412  0.16205  0.26909  1.0000
  C   C161      1.0  0.29887  0.17171  0.28356  1.0000
  C   C162      1.0  0.31134  0.18839  0.28764  1.0000
  H   H116      1.0  0.34760  0.19226  0.25452  1.0000
  H   H117      1.0  0.32611  0.16266  0.24745  1.0000
  H   H118      1.0  0.28546  0.16604  0.29177  1.0000
  H   H119      1.0  0.30724  0.19529  0.29902  1.0000
  C   C163      1.0  0.16298  0.15053  0.30021  1.0000
  H   H120      1.0  0.28466  0.09322  0.39405  1.0000
  C   C164      1.0  0.28288  0.07476  0.24350  1.0000
  C   C165      1.0  0.18810  0.02076  0.41734  1.0000
  H   H121      1.0  0.03554  0.21910  0.26081  1.0000
  H   H122      1.0  0.34747  0.23717  0.23940  1.0000
  C   C166      1.0  0.25252  0.10168  0.40443  1.0000
  H   H123      1.0  0.49342  0.21500  0.23561  1.0000
  H   H124      1.0  0.05173  0.10073  0.27135  1.0000
  C   C167      1.0  0.28920  0.24688  0.28553  1.0000
  H   H125      1.0  0.07989  0.05325  0.33576  1.0000
  C   C168      1.0  0.15626  0.08767  0.35795  1.0000
  C   C169      1.0  0.15962  0.10304  0.34453  1.0000
  C   C170      1.0  0.17880  0.10208  0.33406  1.0000
  C   C171      1.0  0.19478  0.08564  0.33680  1.0000
  C   C172      1.0  0.19155  0.07045  0.35035  1.0000
  C   C173      1.0  0.17240  0.07142  0.36087  1.0000
  H   H126      1.0  0.14745  0.11593  0.34231  1.0000
  H   H127      1.0  0.18156  0.11436  0.32412  1.0000
  H   H128      1.0  0.20400  0.05790  0.35267  1.0000
  H   H129      1.0  0.17016  0.05971  0.37127  1.0000
  C   C174      1.0  0.02561  0.07365  0.41130  1.0000
  H   H130      1.0  0.17252  0.12814  0.24543  1.0000
  S   S35       1.0  0.22140  0.05446  0.25101  1.0000
  C   C175      1.0  0.03903  0.24758  0.29304  1.0000
  C   C176      1.0  0.01888  0.11285  0.40866  1.0000
  C   C177      1.0  0.03321  0.09449  0.41076  1.0000
  C   C178      1.0  0.26932  0.08718  0.39929  1.0000
  H   H131      1.0  0.12823  0.03689  0.32099  1.0000
  H   H132      1.0  0.02469  0.12894  0.40845  1.0000
  H   H133      1.0  0.05001  0.09648  0.41218  1.0000
  C   C179      1.0  0.33137  0.31360  0.24830  1.0000
  H   H134      1.0  0.37226  0.26958  0.35090  1.0000
  H   H135      1.0  0.02740  0.08510  0.47294  1.0000
  H   H136      1.0  0.31326  0.23451  0.25625  1.0000
  C   C180      1.0  0.29966  0.27837  0.23058  1.0000
  H   H137      1.0  0.06311  0.06599  0.46968  1.0000
  C   C181      1.0  0.18062  0.23389  0.25586  1.0000
  C   C182      1.0  0.46691  0.24200  0.28690  1.0000
  S   S36       1.0  0.23733  0.11734  0.25249  1.0000
  C   C183      1.0  0.48062  0.29330  0.32497  1.0000
  C   C184      1.0  0.16859  0.16149  0.25054  1.0000
  C   C185      1.0  0.48099  0.26759  0.24234  1.0000
  S   S37       1.0  0.42804  0.30751  0.37766  1.0000
  H   H138      1.0  0.06620  0.11813  0.24482  1.0000
  C   C186      1.0  0.19493  0.22858  0.24266  1.0000
  H   H139      1.0  0.21981  0.10546  0.41492  1.0000
  C   C187      1.0  0.23015  0.27077  0.24748  1.0000
  C   C188      1.0  0.48432  0.22752  0.29026  1.0000
  C   C189      1.0  0.00381  0.07128  0.40947  1.0000
  C   C190      1.0  0.16029  0.24386  0.25335  1.0000
  H   H140      1.0  0.21060  0.22080  0.24479  1.0000
  C   C191      1.0  0.00781  0.24025  0.23223  1.0000
  H   H141      1.0  0.29306  0.23131  0.28085  1.0000
  C   C192      1.0  0.08559  0.08242  0.34624  1.0000
  H   H142      1.0  0.16056  0.19527  0.25330  1.0000
  H   H143      1.0  0.48218  0.27615  0.32340  1.0000
  C   C193      1.0  0.34662  0.30608  0.32493  1.0000
  H   H144      1.0  0.09453  0.11259  0.35365  1.0000
  H   H145      1.0  0.44531  0.31619  0.29716  1.0000
  H   H146      1.0  0.27662  0.30230  0.30316  1.0000
  C   C194      1.0  0.24349  0.20219  0.27027  1.0000
  C   C195      1.0  0.15430  0.24858  0.23765  1.0000
  H   H147      1.0  0.10365  0.13024  0.24101  1.0000
  C   C196      1.0  0.29714  0.32236  0.33368  1.0000
  H   H148      1.0  0.14051  0.03582  0.37070  1.0000
  C   C197      1.0  0.13259  0.02796  0.33209  1.0000
  C   C198      1.0  0.20367  0.03997  0.39270  1.0000
  H   H149      1.0  0.15600  0.99951  0.46581  1.0000
  H   H150      1.0  0.21160  0.05374  0.38627  1.0000
  C   C199      1.0  0.47216  0.32173  0.34290  1.0000
  H   H151      1.0  0.42377  0.27017  0.36035  1.0000
  H   H152      1.0  0.18356  0.01944  0.43018  1.0000
  C   C200      1.0  0.15029  0.16981  0.29812  1.0000
  S   S38       1.0  0.03641  0.24350  0.23061  1.0000
  H   H153      1.0  0.36994  0.32386  0.29495  1.0000
  P   P7        1.0  0.27197  0.25973  0.25632  1.0000
  C   C201      1.0  0.41772  0.32336  0.34671  1.0000
  C   C202      1.0  0.26396  0.23206  0.25688  1.0000
  H   H154      1.0  0.45483  0.27512  0.28463  1.0000
  H   H155      1.0  0.19912  0.18859  0.23192  1.0000
  C   C203      1.0  0.21629  0.30728  0.23975  1.0000
  C   C204      1.0  0.49550  0.23212  0.23596  1.0000
  H   H156      1.0  0.26595  0.29729  0.27639  1.0000
  C   C205      1.0  0.19853  0.02327  0.38390  1.0000
  P   P8        1.0  0.02464  0.17937  0.28093  1.0000
  H   H157      1.0  0.18002  0.15105  0.30174  1.0000
  C   C206      1.0  0.17138  0.09318  0.42978  1.0000
  C   C207      1.0  0.20432  0.05298  0.44186  1.0000
  H   H158      1.0  0.17097  0.03903  0.47574  1.0000
  C   C208      1.0  0.06828  0.10551  0.26962  1.0000
  C   C209      1.0  0.13702  0.00552  0.33269  1.0000
  C   C210      1.0  0.21623  0.01531  0.23860  1.0000
  C   C211      1.0  0.06228  0.16364  0.23277  1.0000
  C   C212      1.0  0.07208  0.17435  0.24382  1.0000
  H   H159      1.0  0.26270  0.05715  0.23079  1.0000
  C   C213      1.0  0.11078  0.11846  0.26517  1.0000
  C   C214      1.0  0.31461  0.24734  0.24652  1.0000
  C   C215      1.0  0.15541  0.10955  0.42673  1.0000
  C   C216      1.0  0.15144  0.11665  0.41087  1.0000
  C   C217      1.0  0.16365  0.10757  0.39804  1.0000
  C   C218      1.0  0.17925  0.09082  0.40103  1.0000
  H   H160      1.0  0.11878  0.18414  0.29374  1.0000
  C   C219      1.0  0.18521  0.04811  0.45163  1.0000
  C   C220      1.0  0.29713  0.26219  0.24354  1.0000
  C   C221      1.0  0.13399  0.03889  0.34576  1.0000
  H   H161      1.0  0.14913  0.24783  0.26356  1.0000
  C   C222      1.0  0.27197  0.07136  0.23022  1.0000
  H   H162      1.0  0.07835  0.07690  0.35818  1.0000
  H   H163      1.0  0.13827  0.08261  0.26729  1.0000
  H   H164      1.0  0.14584  0.11645  0.43673  1.0000
  H   H165      1.0  0.13886  0.12912  0.40851  1.0000
  H   H166      1.0  0.16078  0.11331  0.38572  1.0000
  H   H167      1.0  0.18833  0.08404  0.39084  1.0000
  C   C223      1.0  0.14183  0.18381  0.23586  1.0000
  C   C224      1.0  0.34582  0.31785  0.23460  1.0000
  C   C225      1.0  0.27857  0.26383  0.27642  1.0000
  H   H168      1.0  0.04346  0.25538  0.26715  1.0000
  H   H169      1.0  0.30388  0.23674  0.30745  1.0000
  H   H170      1.0  0.28211  0.06308  0.25406  1.0000
  H   H171      1.0  0.33612  0.30224  0.25812  1.0000
  H   H172      1.0  0.12546  0.02787  0.46732  1.0000
  H   H173      1.0  0.01010  0.13578  0.29135  1.0000
  S   S39       1.0  0.37225  0.30549  0.23308  1.0000
  H   H174      1.0  0.00258  0.25350  0.25525  1.0000
  C   C226      1.0  0.25076  0.01803  0.24872  1.0000
  C   C227      1.0  0.12851  0.16916  0.29560  1.0000
  C   C228      1.0  0.11944  0.14920  0.29515  1.0000
  C   C229      1.0  0.13224  0.12977  0.29694  1.0000
  C   C230      1.0  0.15407  0.13060  0.29945  1.0000
  P   P9        1.0  0.12027  0.10415  0.29642  1.0000
  C   C231      1.0  0.10573  0.09631  0.31571  1.0000
  C   C232      1.0  0.24982  0.22352  0.26977  1.0000
  C   C233      1.0  0.05942  0.14407  0.31457  1.0000
  C   C234      1.0  0.24645  0.05712  0.40745  1.0000
  C   C235      1.0  0.16399  0.14361  0.24279  1.0000
  C   C236      1.0  0.29525  0.24987  0.30077  1.0000
  H   H175      1.0  0.45229  0.23593  0.28349  1.0000
  C   C237      1.0  0.10476  0.10956  0.32849  1.0000
  C   C238      1.0  0.09462  0.10265  0.34365  1.0000
  C   C239      1.0  0.18301  0.08315  0.41696  1.0000
  C   C240      1.0  0.08655  0.06910  0.33361  1.0000
  C   C241      1.0  0.09671  0.07594  0.31842  1.0000
  C   C242      1.0  0.14113  0.08296  0.29296  1.0000
  H   H176      1.0  0.16777  0.05470  0.26317  1.0000
  C   C243      1.0  0.03362  0.23155  0.30552  1.0000
  H   H177      1.0  0.30282  0.12369  0.23023  1.0000
  C   C244      1.0  0.03529  0.22227  0.27335  1.0000
  C   C245      1.0  0.15257  0.07378  0.30589  1.0000
  C   C246      1.0  0.35786  0.29791  0.33820  1.0000
  H   H178      1.0  0.13069  0.05631  0.34534  1.0000
  C   C247      1.0  0.17446  0.05084  0.28807  1.0000
  H   H179      1.0  0.10258  0.14894  0.29310  1.0000
  H   H180      1.0  0.16442  0.11599  0.30052  1.0000
  H   H181      1.0  0.47180  0.28766  0.35063  1.0000
  H   H182      1.0  0.17425  0.08848  0.44221  1.0000
  H   H183      1.0  0.05433  0.11193  0.32609  1.0000
  C   C248      1.0  0.22937  0.07163  0.41239  1.0000
  H   H184      1.0  0.07476  0.09441  0.29379  1.0000
  H   H185      1.0  0.11232  0.12493  0.32703  1.0000
  C   C249      1.0  0.02948  0.16218  0.25094  1.0000
  H   H186      1.0  0.08857  0.17909  0.24102  1.0000
  C   C250      1.0  0.03047  0.20594  0.28577  1.0000
  C   C251      1.0  0.22399  0.05131  0.44894  1.0000
  H   H187      1.0  0.06846  0.18748  0.26675  1.0000
  H   H188      1.0  0.15753  0.18522  0.29811  1.0000
  C   C252      1.0  0.08150  0.10183  0.28232  1.0000
  H   H189      1.0  0.17855  0.05159  0.31333  1.0000
  H   H190      1.0  0.14904  0.07930  0.31782  1.0000
  C   C253      1.0  0.03385  0.15815  0.29543  1.0000
  C   C254      1.0  0.03104  0.12180  0.30900  1.0000
  H   H191      1.0  0.46774  0.27814  0.24686  1.0000
  C   C255      1.0  0.02370  0.13838  0.29793  1.0000
  H   H192      1.0  0.27126  0.18746  0.23562  1.0000
  C   C256      1.0  0.05213  0.16067  0.30350  1.0000
  C   C257      1.0  0.14833  0.14585  0.23159  1.0000
  H   H193      1.0  0.16976  0.04938  0.44654  1.0000
  C   C258      1.0  0.19837  0.03898  0.40951  1.0000
  H   H194      1.0  0.29540  0.27197  0.31900  1.0000
  C   C259      1.0  0.29060  0.26976  0.30719  1.0000
  C   C260      1.0  0.16921  0.05788  0.30343  1.0000
  C   C261      1.0  0.05200  0.02085  0.46469  1.0000
  P   P10       1.0  0.20354  0.06161  0.42052  1.0000
  C   C262      1.0  0.26501  0.19772  0.24497  1.0000
  H   H195      1.0  0.24671  0.17256  0.25854  1.0000
  C   C263      1.0  0.27121  0.21910  0.24433  1.0000
  C   C264      1.0  0.45060  0.32055  0.28458  1.0000
  H   H196      1.0  0.03271  0.23524  0.31798  1.0000
  C   C265      1.0  0.25119  0.18927  0.25793  1.0000
  H   H197      1.0  0.18790  0.03911  0.28598  1.0000
  C   C266      1.0  0.07637  0.11543  0.25469  1.0000
  H   H198      1.0  0.23902  0.05491  0.44183  1.0000
  C   C267      1.0  0.47480  0.29972  0.34047  1.0000
  H   H199      1.0  0.24439  0.03982  0.40860  1.0000
  C   C268      1.0  0.14649  0.07575  0.27756  1.0000
  H   H200      1.0  0.09788  0.06521  0.30886  1.0000
  H   H201      1.0  0.00456  0.02541  0.43311  1.0000
  C   C269      1.0  0.25025  0.27850  0.24976  1.0000
  C   C270      1.0  0.99800  0.01328  0.42675  1.0000
  H   H202      1.0  0.04247  0.26365  0.29578  1.0000
  C   C271      1.0  0.06056  0.17916  0.25836  1.0000
  H   H203      1.0  0.02451  0.19873  0.31167  1.0000
  H   H204      1.0  0.18522  0.23000  0.26802  1.0000
  C   C272      1.0  0.34047  0.29155  0.31455  1.0000
  C   C273      1.0  0.03899  0.17361  0.26185  1.0000
  H   H205      1.0  0.26822  0.30749  0.24865  1.0000
  H   H206      1.0  0.25486  0.11895  0.40319  1.0000
  C   C274      1.0  0.35714  0.26138  0.33038  1.0000
  H   H207      1.0  0.08589  0.02514  0.46550  1.0000
  C   C275      1.0  0.26632  0.06491  0.40086  1.0000
  C   C276      1.0  0.29453  0.10890  0.22999  1.0000
  H   H208      1.0  0.34145  0.25818  0.30901  1.0000
  C   C277      1.0  0.04099  0.15759  0.23631  1.0000
  C   C278      1.0  0.02910  0.21084  0.30190  1.0000
  C   C279      1.0  0.27399  0.28383  0.28297  1.0000
  H   H209      1.0  0.07327  0.14626  0.32101  1.0000
  H   H210      1.0  0.02290  0.10671  0.31112  1.0000
  H   H211      1.0  0.23287  0.19546  0.28034  1.0000
  C   C280      1.0  0.47813  0.32096  0.26199  1.0000
  C   C281      1.0  0.25301  0.30092  0.24700  1.0000
  C   C282      1.0  0.04879  0.12470  0.31740  1.0000
  C   C283      1.0  0.46854  0.26428  0.28743  1.0000
  C   C284      1.0  0.47192  0.31548  0.27843  1.0000
  C   C285      1.0  0.28001  0.28676  0.29829  1.0000
  C   C286      1.0  0.10298  0.10798  0.28011  1.0000
  H   H212      1.0  0.21776  0.15294  0.23533  1.0000
  C   C287      1.0  0.09753  0.12209  0.25251  1.0000
  H   H213      1.0  0.30237  0.09629  0.25380  1.0000
  H   H214      1.0  0.36323  0.30857  0.34629  1.0000
  C   C288      1.0  0.34575  0.26930  0.31728  1.0000
  C   C289      1.0  0.15723  0.18146  0.24721  1.0000
  C   C290      1.0  0.23263  0.09396  0.41101  1.0000
  C   C291      1.0  0.03969  0.24296  0.27695  1.0000
  C   C292      1.0  0.07176  0.01735  0.47139  1.0000
  C   C293      1.0  0.21325  0.28508  0.24257  1.0000
  H   H215      1.0  0.06079  0.17542  0.30124  1.0000
  H   H216      1.0  0.24388  0.23327  0.27951  1.0000
  C   C294      1.0  0.29424  0.09346  0.24336  1.0000
  H   H217      1.0  0.23965  0.04407  0.47089  1.0000
  C   C295      1.0  0.48376  0.30895  0.31172  1.0000
  H   H218      1.0  0.33181  0.29738  0.30421  1.0000
  H   H219      1.0  0.08262  0.99994  0.40293  1.0000
  H   H220      1.0  0.27936  0.05369  0.39686  1.0000
  H   H221      1.0  0.36171  0.24422  0.33222  1.0000
  C   C296      1.0  0.12665  0.03817  0.47686  1.0000
  H   H222      1.0  0.13347  0.19939  0.23321  1.0000
  C   C297      1.0  0.18577  0.04215  0.46817  1.0000
  C   C298      1.0  0.23616  0.31517  0.24194  1.0000
  C   C299      1.0  0.12617  0.06070  0.47328  1.0000
  H   H223      1.0  0.20332  0.31836  0.23569  1.0000
  H   H224      1.0  0.20243  0.02429  0.37093  1.0000
  H   H225      1.0  0.30009  0.32165  0.26035  1.0000
  H   H226      1.0  0.26513  0.31306  0.34275  1.0000
  H   H227      1.0  0.30239  0.30611  0.33086  1.0000
  H   H228      1.0  0.99623  0.27015  0.30829  1.0000
  C   C300      1.0  0.33418  0.24872  0.23688  1.0000
  H   H229      1.0  0.48305  0.21033  0.28944  1.0000
  H   H230      1.0  0.43300  0.32463  0.46038  1.0000
  C   C301      1.0  0.18282  0.00418  0.40846  1.0000
  H   H231      1.0  0.99789  0.05528  0.40950  1.0000
  P   P11       1.0  0.49058  0.30103  0.29148  1.0000
  H   H232      1.0  0.99639  0.19578  0.25571  1.0000
  C   C302      1.0  0.31086  0.32453  0.24948  1.0000
  H   H233      1.0  0.19788  0.27897  0.24067  1.0000
  C   C303      1.0  0.48775  0.27224  0.29136  1.0000
  C   C304      1.0  0.03368  0.01120  0.47252  1.0000
  C   C305      1.0  0.22447  0.04515  0.46548  1.0000
  C   C306      1.0  0.27596  0.32624  0.34045  1.0000
  C   C307      1.0  0.20535  0.04068  0.47510  1.0000
  H   H234      1.0  0.46728  0.32659  0.35492  1.0000
  H   H235      1.0  0.13856  0.25632  0.23562  1.0000
  H   H236      1.0  0.01835  0.01400  0.46734  1.0000
  C   C308      1.0  0.43564  0.33058  0.27442  1.0000
  C   C309      1.0  0.99698  0.11037  0.40706  1.0000
  Fe  Fe21      1.0  0.12362  0.04181  0.54785  1.0000
  S   S40       1.0  0.08836  0.03585  0.55108  1.0000
  S   S41       1.0  0.13954  0.03048  0.52408  1.0000
  Fe  Fe22      1.0  0.12344  0.05847  0.58175  1.0000
  S   S42       1.0  0.08764  0.05415  0.58640  1.0000
  S   S43       1.0  0.13341  0.07022  0.60520  1.0000
  Fe  Fe23      1.0  0.09444  0.02226  0.57610  1.0000
  Fe  Fe24      1.0  0.08461  0.06813  0.56102  1.0000
  S   S44       1.0  0.05809  0.09175  0.55238  1.0000
  S   S45       1.0  0.13026  0.02535  0.57255  1.0000
  S   S46       1.0  0.11976  0.07534  0.55663  1.0000
  C   C310      1.0  0.13025  0.06480  0.50166  1.0000
  H   H237      1.0  0.07189  0.07175  0.51938  1.0000
  H   H238      1.0  0.08878  0.12639  0.57061  1.0000
  H   H239      1.0  0.11872  0.14908  0.71505  1.0000
  C   C311      1.0  0.20249  0.30130  0.68559  1.0000
  H   H240      1.0  0.48446  0.29005  0.72166  1.0000
  Fe  Fe25      1.0  0.36513  0.26202  0.71403  1.0000
  S   S47       1.0  0.34858  0.25299  0.69316  1.0000
  Fe  Fe26      1.0  0.40851  0.23942  0.70343  1.0000
  S   S48       1.0  0.39483  0.22828  0.68154  1.0000
  Fe  Fe27      1.0  0.37952  0.26215  0.67813  1.0000
  S   S49       1.0  0.37479  0.28200  0.65394  1.0000
  Fe  Fe28      1.0  0.36469  0.21986  0.69791  1.0000
  S   S50       1.0  0.34884  0.18712  0.69766  1.0000
  S   S51       1.0  0.39471  0.27379  0.69884  1.0000
  Fe  Fe29      1.0  0.21524  0.09171  0.67041  1.0000
  S   S52       1.0  0.19483  0.07447  0.69079  1.0000
  S   S53       1.0  0.21458  0.08568  0.64374  1.0000
  Fe  Fe30      1.0  0.23676  0.11892  0.69332  1.0000
  S   S54       1.0  0.21716  0.10328  0.71513  1.0000
  S   S55       1.0  0.25473  0.15040  0.69470  1.0000
  Fe  Fe31      1.0  0.22437  0.07110  0.70436  1.0000
  H   H241      1.0  0.99579  0.14716  0.48471  1.0000
  Fe  Fe32      1.0  0.18902  0.10734  0.70023  1.0000
  S   S56       1.0  0.15468  0.11886  0.70842  1.0000
  S   S57       1.0  0.24592  0.08653  0.68329  1.0000
  S   S58       1.0  0.20759  0.12478  0.67900  1.0000
  H   H242      1.0  0.39166  0.21190  0.59061  1.0000
  H   H243      1.0  0.43915  0.28539  0.67754  1.0000
  H   H244      1.0  0.08727  0.27517  0.71067  1.0000
  C   C312      1.0  0.25659  0.27259  0.69596  1.0000
  H   H245      1.0  0.17966  0.03377  0.63871  1.0000
  H   H246      1.0  0.10840  0.24659  0.69616  1.0000
  S   S59       1.0  0.23241  0.04117  0.72209  1.0000
  C   C313      1.0  0.20550  0.23037  0.70253  1.0000
  S   S60       1.0  0.37971  0.22830  0.71989  1.0000
  H   H247      1.0  0.21091  0.01298  0.70288  1.0000
  C   C314      1.0  0.06935  0.06687  0.49446  1.0000
  C   C315      1.0  0.39334  0.29643  0.63985  1.0000
  C   C316      1.0  0.41572  0.29355  0.64036  1.0000
  C   C317      1.0  0.42980  0.30407  0.62819  1.0000
  C   C318      1.0  0.42171  0.31766  0.61539  1.0000
  H   H248      1.0  0.99882  0.17165  0.57672  1.0000
  H   H249      1.0  0.09390  0.99937  0.51996  1.0000
  H   H250      1.0  0.42214  0.28302  0.64999  1.0000
  H   H251      1.0  0.44707  0.30154  0.62865  1.0000
  H   H252      1.0  0.43408  0.30849  0.48888  1.0000
  H   H253      1.0  0.29021  0.17899  0.61255  1.0000
  H   H254      1.0  0.35021  0.26207  0.60850  1.0000
  C   C319      1.0  0.20095  0.19223  0.70058  1.0000
  C   C320      1.0  0.32247  0.17734  0.69680  1.0000
  C   C321      1.0  0.32022  0.15483  0.69692  1.0000
  C   C322      1.0  0.29980  0.14623  0.69635  1.0000
  C   C323      1.0  0.28118  0.16005  0.69546  1.0000
  C   C324      1.0  0.28349  0.18258  0.69506  1.0000
  C   C325      1.0  0.30385  0.19116  0.69593  1.0000
  H   H255      1.0  0.33442  0.14389  0.69756  1.0000
  H   H256      1.0  0.29850  0.12889  0.69658  1.0000
  H   H257      1.0  0.26938  0.19350  0.69396  1.0000
  H   H258      1.0  0.30519  0.20846  0.69585  1.0000
  C   C326      1.0  0.14504  0.02822  0.67872  1.0000
  H   H259      1.0  0.39063  0.26452  0.62079  1.0000
  C   C327      1.0  0.04184  0.08571  0.51123  1.0000
  H   H260      1.0  0.44869  0.27712  0.71028  1.0000
  C   C328      1.0  0.13802  0.25118  0.70643  1.0000
  C   C329      1.0  0.32409  0.30957  0.71830  1.0000
  C   C330      1.0  0.09456  0.11287  0.59465  1.0000
  C   C331      1.0  0.27613  0.28101  0.68934  1.0000
  H   H261      1.0  0.22751  0.20963  0.68842  1.0000
  C   C332      1.0  0.25533  0.26078  0.71113  1.0000
  C   C333      1.0  0.18627  0.23174  0.71281  1.0000
  C   C334      1.0  0.08152  0.12027  0.58238  1.0000
  C   C335      1.0  0.21270  0.21071  0.69636  1.0000
  C   C336      1.0  0.19354  0.29784  0.71917  1.0000
  C   C337      1.0  0.39297  0.21022  0.63124  1.0000
  H   H262      1.0  0.20561  0.03624  0.48797  1.0000
  H   H263      1.0  0.03875  0.16356  0.51972  1.0000
  C   C338      1.0  0.15640  0.07443  0.61548  1.0000
  C   C339      1.0  0.15301  0.08105  0.63124  1.0000
  C   C340      1.0  0.17050  0.08468  0.64000  1.0000
  C   C341      1.0  0.19177  0.08189  0.63308  1.0000
  C   C342      1.0  0.19517  0.07564  0.61720  1.0000
  C   C343      1.0  0.17766  0.07171  0.60851  1.0000
  H   H264      1.0  0.13668  0.08361  0.63661  1.0000
  H   H265      1.0  0.16753  0.08991  0.65203  1.0000
  H   H266      1.0  0.21151  0.07365  0.61160  1.0000
  H   H267      1.0  0.18062  0.06681  0.59638  1.0000
  C   C344      1.0  0.03174  0.08703  0.56115  1.0000
  C   C345      1.0  0.01440  0.10091  0.55641  1.0000
  C   C346      1.0  0.11427  0.28367  0.72257  1.0000
  H   H268      1.0  0.12113  0.00764  0.69186  1.0000
  C   C347      1.0  0.43162  0.32587  0.48635  1.0000
  C   C348      1.0  0.02790  0.06980  0.57292  1.0000
  H   H269      1.0  0.01742  0.11431  0.54738  1.0000
  C   C349      1.0  0.01597  0.22605  0.58525  1.0000
  H   H270      1.0  0.44493  0.29679  0.54822  1.0000
  H   H271      1.0  0.04123  0.05899  0.57653  1.0000
  C   C350      1.0  0.13190  0.04228  0.50511  1.0000
  C   C351      1.0  0.01510  0.24156  0.57197  1.0000
  H   H272      1.0  0.13201  0.07522  0.51105  1.0000
  H   H273      1.0  0.33352  0.30473  0.70754  1.0000
  C   C352      1.0  0.12676  0.06007  0.69846  1.0000
  C   C353      1.0  0.14338  0.06510  0.68646  1.0000
  C   C354      1.0  0.15256  0.04924  0.67665  1.0000
  P   P12       1.0  0.00231  0.10320  0.50126  1.0000
  H   H274      1.0  0.18823  0.27054  0.68644  1.0000
  H   H275      1.0  0.31185  0.26102  0.66633  1.0000
  C   C355      1.0  0.46305  0.23648  0.72152  1.0000
  H   H276      1.0  0.36802  0.31239  0.62650  1.0000
  C   C356      1.0  0.27372  0.25693  0.71966  1.0000
  C   C357      1.0  0.00682  0.06657  0.58006  1.0000
  C   C358      1.0  0.03656  0.08199  0.48333  1.0000
  H   H277      1.0  0.26434  0.21202  0.71748  1.0000
  H   H278      1.0  0.99773  0.15302  0.63413  1.0000
  C   C359      1.0  0.00582  0.09025  0.63974  1.0000
  H   H279      1.0  0.00566  0.02470  0.51299  1.0000
  C   C360      1.0  0.21324  0.02984  0.64256  1.0000
  H   H280      1.0  0.13132  0.01155  0.49517  1.0000
  C   C361      1.0  0.39121  0.24738  0.61930  1.0000
  C   C362      1.0  0.12770  0.02353  0.69038  1.0000
  H   H281      1.0  0.02832  0.25214  0.56863  1.0000
  C   C363      1.0  0.39178  0.21792  0.60229  1.0000
  H   H282      1.0  0.34716  0.21995  0.63350  1.0000
  H   H283      1.0  0.00397  0.05332  0.58931  1.0000
  C   C364      1.0  0.19138  0.02598  0.64648  1.0000
  H   H284      1.0  0.12008  0.07235  0.70623  1.0000
  H   H285      1.0  0.14927  0.08135  0.68487  1.0000
  H   H286      1.0  0.16563  0.05341  0.66755  1.0000
  H   H287      1.0  0.33928  0.24712  0.54677  1.0000
  H   H288      1.0  0.29697  0.15538  0.66228  1.0000
  H   H289      1.0  0.39330  0.18571  0.61469  1.0000
  H   H290      1.0  0.02983  0.22467  0.59224  1.0000
  H   H291      1.0  0.39374  0.19869  0.64183  1.0000
  C   C365      1.0  0.45332  0.31081  0.70228  1.0000
  C   C366      1.0  0.29326  0.26556  0.71299  1.0000
  H   H292      1.0  0.00829  0.17299  0.53980  1.0000
  H   H293      1.0  0.21823  0.04026  0.63185  1.0000
  C   C367      1.0  0.11619  0.25574  0.70413  1.0000
  H   H294      1.0  0.21497  0.24433  0.69920  1.0000
  C   C368      1.0  0.21488  0.00352  0.71386  1.0000
  H   H295      1.0  0.45918  0.31088  0.65602  1.0000
  H   H296      1.0  0.26365  0.13576  0.66294  1.0000
  C   C369      1.0  0.19290  0.28289  0.69352  1.0000
  C   C370      1.0  0.35264  0.27815  0.60255  1.0000
  H   H297      1.0  0.08500  0.05828  0.49298  1.0000
  H   H298      1.0  0.01053  0.13322  0.58267  1.0000
  H   H299      1.0  0.02957  0.02640  0.56593  1.0000
  C   C371      1.0  0.35525  0.24343  0.55076  1.0000
  C   C372      1.0  0.37015  0.23006  0.54213  1.0000
  C   C373      1.0  0.39086  0.22556  0.54710  1.0000
  C   C374      1.0  0.39676  0.23455  0.56063  1.0000
  C   C375      1.0  0.38193  0.24810  0.56931  1.0000
  C   C376      1.0  0.36107  0.25240  0.56433  1.0000
  P   P13       1.0  0.39000  0.26011  0.58648  1.0000
  H   H300      1.0  0.10575  0.03551  0.70955  1.0000
  C   C377      1.0  0.41614  0.27118  0.58075  1.0000
  C   C378      1.0  0.43115  0.27164  0.59218  1.0000
  C   C379      1.0  0.45108  0.28072  0.58770  1.0000
  C   C380      1.0  0.45613  0.28964  0.57187  1.0000
  C   C381      1.0  0.44129  0.28933  0.56042  1.0000
  C   C382      1.0  0.42140  0.28013  0.56481  1.0000
  C   C383      1.0  0.39218  0.23245  0.63290  1.0000
  H   H301      1.0  0.34936  0.26293  0.57069  1.0000
  C   C384      1.0  0.39110  0.24031  0.60387  1.0000
  C   C385      1.0  0.22866  0.02101  0.65273  1.0000
  C   C386      1.0  0.11145  0.02210  0.63299  1.0000
  C   C387      1.0  0.20055  0.00361  0.67051  1.0000
  H   H302      1.0  0.17301  0.17904  0.71434  1.0000
  C   C388      1.0  0.38528  0.31002  0.62704  1.0000
  C   C389      1.0  0.00426  0.12541  0.51338  1.0000
  C   C390      1.0  0.46883  0.24032  0.66680  1.0000
  H   H303      1.0  0.43530  0.25077  0.66621  1.0000
  H   H304      1.0  0.36570  0.22337  0.53148  1.0000
  H   H305      1.0  0.40249  0.21539  0.54030  1.0000
  H   H306      1.0  0.41299  0.23119  0.56421  1.0000
  H   H307      1.0  0.28808  0.19916  0.66034  1.0000
  H   H308      1.0  0.42740  0.26562  0.60466  1.0000
  H   H309      1.0  0.46220  0.28183  0.59673  1.0000
  H   H310      1.0  0.47123  0.29743  0.56864  1.0000
  H   H311      1.0  0.01070  0.22982  0.71195  1.0000
  H   H312      1.0  0.40994  0.28059  0.55582  1.0000
  C   C391      1.0  0.10428  0.27191  0.71224  1.0000
  C   C392      1.0  0.37321  0.30312  0.58379  1.0000
  H   H313      1.0  0.11200  0.11331  0.59246  1.0000
  C   C393      1.0  0.02425  0.15456  0.52104  1.0000
  H   H314      1.0  0.99876  0.04819  0.48830  1.0000
  C   C394      1.0  0.39935  0.32062  0.61492  1.0000
  H   H315      1.0  0.04918  0.12433  0.57538  1.0000
  C   C395      1.0  0.05914  0.11906  0.58509  1.0000
  C   C396      1.0  0.12989  0.02899  0.49266  1.0000
  C   C397      1.0  0.41789  0.31927  0.72479  1.0000
  H   H316      1.0  0.34304  0.25417  0.64646  1.0000
  S   S61       1.0  0.44458  0.23133  0.70727  1.0000
  C   C398      1.0  0.02871  0.08922  0.49836  1.0000
  C   C399      1.0  0.22507  0.01340  0.72521  1.0000
  H   H317      1.0  0.24353  0.13757  0.63871  1.0000
  C   C400      1.0  0.33757  0.29507  0.60623  1.0000
  C   C401      1.0  0.06191  0.07437  0.50934  1.0000
  H   H318      1.0  0.30945  0.28446  0.69290  1.0000
  H   H319      1.0  0.28427  0.23352  0.67316  1.0000
  C   C402      1.0  0.48546  0.23289  0.71754  1.0000
  H   H320      1.0  0.25677  0.15943  0.61360  1.0000
  H   H321      1.0  0.04526  0.02417  0.51497  1.0000
  C   C403      1.0  0.14798  0.26254  0.71717  1.0000
  H   H322      1.0  0.11421  0.02803  0.65751  1.0000
  C   C404      1.0  0.45324  0.27444  0.67561  1.0000
  C   C405      1.0  0.20800  0.31775  0.69448  1.0000
  H   H323      1.0  0.23994  0.25505  0.71641  1.0000
  C   C406      1.0  0.02281  0.13747  0.51151  1.0000
  H   H324      1.0  0.32395  0.29206  0.61511  1.0000
  C   C407      1.0  0.18215  0.19334  0.71113  1.0000
  H   H325      1.0  0.32840  0.22466  0.58356  1.0000
  C   C408      1.0  0.03451  0.01721  0.55570  1.0000
  C   C409      1.0  0.03662  0.02763  0.54007  1.0000
  H   H326      1.0  0.20657  0.17695  0.69585  1.0000
  C   C410      1.0  0.39270  0.20296  0.61594  1.0000
  C   C411      1.0  0.15009  0.13846  0.72258  1.0000
  C   C412      1.0  0.04897  0.02411  0.64150  1.0000
  C   C413      1.0  0.04656  0.01703  0.62643  1.0000
  C   C414      1.0  0.04442  0.03215  0.61308  1.0000
  C   C415      1.0  0.04523  0.05430  0.61467  1.0000
  C   C416      1.0  0.04870  0.06150  0.62954  1.0000
  C   C417      1.0  0.04986  0.04629  0.64310  1.0000
  P   P14       1.0  0.05051  0.09011  0.63133  1.0000
  C   C418      1.0  0.06734  0.09341  0.64730  1.0000
  C   C419      1.0  0.06278  0.10252  0.61238  1.0000
  C   C420      1.0  0.04980  0.10999  0.59993  1.0000
  C   C421      1.0  0.08527  0.10413  0.60961  1.0000
  C   C422      1.0  0.06154  0.10882  0.65845  1.0000
  C   C423      1.0  0.07493  0.11142  0.67055  1.0000
  C   C424      1.0  0.09410  0.09860  0.67168  1.0000
  C   C425      1.0  0.09982  0.08302  0.66080  1.0000
  C   C426      1.0  0.08657  0.08047  0.64864  1.0000
  C   C427      1.0  0.02377  0.10281  0.63516  1.0000
  C   C428      1.0  0.02070  0.12552  0.63309  1.0000
  C   C429      1.0  0.49540  0.31570  0.51263  1.0000
  H   H327      1.0  0.12731  0.09137  0.48317  1.0000
  C   C430      1.0  0.17502  0.21288  0.71746  1.0000
  H   H328      1.0  0.20546  0.30294  0.67254  1.0000
  C   C431      1.0  0.14246  0.00968  0.64766  1.0000
  H   H329      1.0  0.39229  0.23822  0.64473  1.0000
  H   H330      1.0  0.04255  0.02665  0.60139  1.0000
  H   H331      1.0  0.04361  0.06572  0.60418  1.0000
  H   H332      1.0  0.05165  0.05151  0.65487  1.0000
  H   H333      1.0  0.03252  0.10824  0.60148  1.0000
  H   H334      1.0  0.09593  0.09821  0.61868  1.0000
  H   H335      1.0  0.04683  0.11897  0.65785  1.0000
  H   H336      1.0  0.07055  0.12355  0.67898  1.0000
  H   H337      1.0  0.10465  0.10092  0.68088  1.0000
  H   H338      1.0  0.11476  0.07321  0.66155  1.0000
  H   H339      1.0  0.09161  0.06873  0.64002  1.0000
  H   H340      1.0  0.03430  0.13549  0.62936  1.0000
  H   H341      1.0  0.32877  0.32916  0.60168  1.0000
  H   H342      1.0  0.23913  0.18269  0.71860  1.0000
  C   C432      1.0  0.00004  0.13551  0.63577  1.0000
  C   C433      1.0  0.20336  0.31609  0.71124  1.0000
  C   C434      1.0  0.35587  0.17651  0.59253  1.0000
  C   C435      1.0  0.34903  0.19543  0.58351  1.0000
  C   C436      1.0  0.33392  0.21013  0.59060  1.0000
  C   C437      1.0  0.32568  0.20594  0.60671  1.0000
  C   C438      1.0  0.33270  0.18711  0.61595  1.0000
  C   C439      1.0  0.34770  0.17230  0.60868  1.0000
  P   P15       1.0  0.32150  0.18166  0.63667  1.0000
  C   C440      1.0  0.29623  0.16861  0.63734  1.0000
  C   C441      1.0  0.34005  0.16362  0.64766  1.0000
  C   C442      1.0  0.35406  0.17166  0.65754  1.0000
  C   C443      1.0  0.36812  0.15745  0.66609  1.0000
  C   C444      1.0  0.36820  0.13513  0.66499  1.0000
  C   C445      1.0  0.35432  0.12697  0.65519  1.0000
  C   C446      1.0  0.34033  0.14113  0.64654  1.0000
  C   C447      1.0  0.28462  0.16977  0.62366  1.0000
  C   C448      1.0  0.26564  0.15868  0.62418  1.0000
  C   C449      1.0  0.25813  0.14638  0.63832  1.0000
  C   C450      1.0  0.26949  0.14532  0.65198  1.0000
  C   C451      1.0  0.28838  0.15645  0.65155  1.0000
  C   C452      1.0  0.31778  0.20707  0.64576  1.0000
  C   C453      1.0  0.33317  0.22282  0.64193  1.0000
  C   C454      1.0  0.33089  0.24226  0.64923  1.0000
  C   C455      1.0  0.31324  0.24614  0.66043  1.0000
  C   C456      1.0  0.29774  0.23066  0.66424  1.0000
  C   C457      1.0  0.29999  0.21115  0.65695  1.0000
  H   H343      1.0  0.36742  0.16499  0.58699  1.0000
  H   H344      1.0  0.35531  0.19861  0.57099  1.0000
  H   H345      1.0  0.31372  0.21734  0.61196  1.0000
  H   H346      1.0  0.35311  0.15748  0.61539  1.0000
  H   H347      1.0  0.35386  0.18877  0.65915  1.0000
  H   H348      1.0  0.37840  0.16375  0.67408  1.0000
  H   H349      1.0  0.37874  0.12417  0.67197  1.0000
  H   H350      1.0  0.35417  0.10963  0.65452  1.0000
  H   H351      1.0  0.32953  0.13449  0.63913  1.0000
  H   H352      1.0  0.03622  0.13352  0.50281  1.0000
  P   P16       1.0  0.47632  0.30509  0.68803  1.0000
  C   C458      1.0  0.11880  0.03933  0.70034  1.0000
  H   H353      1.0  0.03376  0.04508  0.53828  1.0000
  H   H354      1.0  0.00670  0.07278  0.53017  1.0000
  H   H355      1.0  0.38691  0.30674  0.57516  1.0000
  C   C459      1.0  0.37074  0.28210  0.59143  1.0000
  C   C460      1.0  0.18907  0.28064  0.71044  1.0000
  H   H356      1.0  0.24235  0.27565  0.68948  1.0000
  P   P17       1.0  0.15651  0.00789  0.66576  1.0000
  H   H357      1.0  0.14693  0.23879  0.69985  1.0000
  C   C461      1.0  0.44310  0.29373  0.71166  1.0000
  C   C462      1.0  0.99885  0.21248  0.58964  1.0000
  C   C463      1.0  0.30815  0.32665  0.71719  1.0000
  C   C464      1.0  0.14155  0.00210  0.61970  1.0000
  C   C465      1.0  0.29442  0.27751  0.69786  1.0000
  H   H358      1.0  0.27706  0.29059  0.67775  1.0000
  C   C466      1.0  0.45102  0.25493  0.66903  1.0000
  H   H359      1.0  0.05030  0.01237  0.65189  1.0000
  C   C467      1.0  0.12771  0.07392  0.48580  1.0000
  H   H360      1.0  0.20704  0.32915  0.71811  1.0000
  C   C468      1.0  0.35802  0.31996  0.58741  1.0000
  C   C469      1.0  0.07333  0.00403  0.48578  1.0000
  C   C470      1.0  0.03515  0.99795  0.48697  1.0000
  H   H361      1.0  0.03673  0.09195  0.52274  1.0000
  C   C471      1.0  0.22231  0.00789  0.66670  1.0000
  P   P18       1.0  0.17607  0.25707  0.72052  1.0000
  C   C472      1.0  0.34028  0.31597  0.59868  1.0000
  H   H362      1.0  0.24546  0.02466  0.64987  1.0000
  C   C473      1.0  0.13602  0.27904  0.72501  1.0000
  H   H363      1.0  0.48718  0.31615  0.61064  1.0000
  C   C474      1.0  0.00709  0.15989  0.53233  1.0000
  C   C475      1.0  0.18484  0.01264  0.66047  1.0000
  H   H364      1.0  0.17533  0.04278  0.71555  1.0000
  H   H365      1.0  0.08885  0.00167  0.49061  1.0000
  C   C476      1.0  0.42550  0.29794  0.72286  1.0000
  H   H366      1.0  0.30753  0.26348  0.71956  1.0000
  H   H367      1.0  0.00762  0.07272  0.64119  1.0000
  C   C477      1.0  0.04321  0.01567  0.52692  1.0000
  H   H368      1.0  0.46685  0.22486  0.66229  1.0000
  C   C478      1.0  0.99938  0.23218  0.72240  1.0000
  C   C479      1.0  0.49132  0.26491  0.67743  1.0000
  C   C480      1.0  0.46785  0.32496  0.65753  1.0000
  H   H369      1.0  0.16047  0.21331  0.72577  1.0000
  H   H370      1.0  0.04636  0.99986  0.62500  1.0000
  H   H371      1.0  0.09587  0.03079  0.63241  1.0000
  C   C481      1.0  0.47340  0.27955  0.67994  1.0000
  C   C482      1.0  0.48897  0.24533  0.67096  1.0000
  H   H372      1.0  0.99957  0.20076  0.60011  1.0000
  H   H373      1.0  0.48998  0.30364  0.50561  1.0000
  C   C483      1.0  0.12198  0.02052  0.64714  1.0000
  H   H374      1.0  0.49112  0.22718  0.70597  1.0000
  S   S62       1.0  0.43129  0.32756  0.51939  1.0000
  C   C484      1.0  0.05685  0.07099  0.48140  1.0000
  C   C485      1.0  0.47781  0.32661  0.67172  1.0000
  C   C486      1.0  0.13048  0.15103  0.72341  1.0000
  C   C487      1.0  0.15214  0.00043  0.63382  1.0000
  C   C488      1.0  0.12121  0.01292  0.61930  1.0000
  C   C489      1.0  0.25273  0.20949  0.72790  1.0000
  H   H375      1.0  0.11309  0.01444  0.60830  1.0000
  C   C490      1.0  0.99704  0.24360  0.56314  1.0000
  H   H376      1.0  0.99623  0.25584  0.55298  1.0000
  S   S63       1.0  0.44025  0.33057  0.60045  1.0000
  H   H377      1.0  0.23424  0.00123  0.67472  1.0000
  H   H378      1.0  0.16789  0.00566  0.72770  1.0000
  C   C491      1.0  0.23828  0.19305  0.72841  1.0000
  Fe  Fe33      1.0  0.04473  0.07898  0.90618  1.0000
  S   S64       1.0  0.07171  0.09923  0.91023  1.0000
  S   S65       1.0  0.04635  0.04375  0.90142  1.0000
  Fe  Fe34      1.0  0.01049  0.11470  0.91361  1.0000
  S   S66       1.0  0.03499  0.13805  0.91845  1.0000
  Fe  Fe35      1.0  0.05378  0.12635  0.89592  1.0000
  S   S67       1.0  0.07444  0.14422  0.87508  1.0000
  Fe  Fe36      1.0  0.05088  0.10908  0.93224  1.0000
  S   S68       1.0  0.06243  0.09989  0.95724  1.0000
  S   S69       1.0  0.02812  0.10494  0.89042  1.0000
  S   S70       1.0  0.02498  0.08704  0.92877  1.0000
  Fe  Fe37      1.0  0.09821  0.25693  0.76996  1.0000
  S   S71       1.0  0.11566  0.28935  0.76476  1.0000
  Fe  Fe38      1.0  0.07237  0.22257  0.79248  1.0000
  S   S72       1.0  0.07036  0.20083  0.77269  1.0000
  S   S73       1.0  0.05419  0.21634  0.81754  1.0000
  S   S74       1.0  0.10771  0.22790  0.78651  1.0000
  S   S75       1.0  0.06246  0.25332  0.77748  1.0000
  H   H379      1.0  0.18027  0.13139  0.73300  1.0000
  C   C492      1.0  0.22259  0.19006  0.74145  1.0000
  S   S76       1.0  0.13531  0.18578  0.76175  1.0000
  H   H380      1.0  0.20991  0.22433  0.84761  1.0000
  H   H381      1.0  0.29152  0.32843  0.75707  1.0000
  H   H382      1.0  0.40911  0.30922  0.95710  1.0000
  C   C493      1.0  0.16531  0.01440  0.75214  1.0000
  C   C494      1.0  0.30039  0.32313  0.74624  1.0000
  Fe  Fe39      1.0  0.10521  0.20830  0.76551  1.0000
  C   C495      1.0  0.12088  0.11153  0.75406  1.0000
  C   C496      1.0  0.33157  0.23232  0.75593  1.0000
  C   C497      1.0  0.10572  0.05166  0.97389  1.0000
  C   C498      1.0  0.12588  0.16599  0.73510  1.0000
  C   C499      1.0  0.13892  0.30245  0.76972  1.0000
  C   C500      1.0  0.14968  0.29584  0.78348  1.0000
  H   H383      1.0  0.30637  0.25737  0.75718  1.0000
  H   H384      1.0  0.14444  0.28186  0.79129  1.0000
  C   C501      1.0  0.11683  0.12540  0.76634  1.0000
  C   C502      1.0  0.06745  0.16314  0.85869  1.0000
  C   C503      1.0  0.04880  0.17696  0.85968  1.0000
  C   C504      1.0  0.04515  0.19316  0.84700  1.0000
  C   C505      1.0  0.05957  0.19529  0.83295  1.0000
  C   C506      1.0  0.07782  0.18099  0.83170  1.0000
  C   C507      1.0  0.08181  0.16519  0.84458  1.0000
  H   H385      1.0  0.03769  0.17575  0.87049  1.0000
  H   H386      1.0  0.03126  0.20444  0.84819  1.0000
  H   H387      1.0  0.08903  0.18235  0.82094  1.0000
  H   H388      1.0  0.09614  0.15442  0.84364  1.0000
  H   H389      1.0  0.15069  0.16580  0.79522  1.0000
  H   H390      1.0  0.17795  0.21647  0.83453  1.0000
  C   C508      1.0  0.48139  0.32481  0.95843  1.0000
  H   H391      1.0  0.01749  0.08769  0.85523  1.0000
  C   C509      1.0  0.37628  0.29276  0.76819  1.0000
  H   H392      1.0  0.18909  0.29758  0.73205  1.0000
  H   H393      1.0  0.15061  0.23040  0.80932  1.0000
  H   H394      1.0  0.05998  0.14595  0.96296  1.0000
  H   H395      1.0  0.99813  0.23926  0.76219  1.0000
  C   C510      1.0  0.16518  0.14106  0.73348  1.0000
  H   H396      1.0  0.14674  0.24368  0.74904  1.0000
  H   H397      1.0  0.02995  0.00956  0.87539  1.0000
  C   C511      1.0  0.46324  0.31933  0.95141  1.0000
  C   C512      1.0  0.07050  0.02832  0.90444  1.0000
  C   C513      1.0  0.09015  0.03809  0.90420  1.0000
  C   C514      1.0  0.10930  0.02518  0.90602  1.0000
  H   H398      1.0  0.43902  0.24661  0.73994  1.0000
  C   C515      1.0  0.47130  0.24717  0.74755  1.0000
  H   H399      1.0  0.09069  0.05553  0.90231  1.0000
  H   H400      1.0  0.12454  0.03274  0.90566  1.0000
  H   H401      1.0  0.13130  0.30395  0.82231  1.0000
  H   H402      1.0  0.20568  0.24357  0.87250  1.0000
  H   H403      1.0  0.17556  0.03556  0.83292  1.0000
  P   P19       1.0  0.43418  0.32467  0.92742  1.0000
  H   H404      1.0  0.02254  0.20241  0.79067  1.0000
  H   H405      1.0  0.13820  0.32624  0.74911  1.0000
  C   C516      1.0  0.16049  0.15585  0.74527  1.0000
  C   C517      1.0  0.00972  0.19177  0.79528  1.0000
  C   C518      1.0  0.06451  0.31656  0.75031  1.0000
  H   H406      1.0  0.25003  0.07299  0.74601  1.0000
  C   C519      1.0  0.23810  0.10515  0.75142  1.0000
  C   C520      1.0  0.32820  0.29922  0.73340  1.0000
  C   C521      1.0  0.19415  0.05639  0.79520  1.0000
  H   H407      1.0  0.14049  0.04534  0.82170  1.0000
  C   C522      1.0  0.00001  0.03630  0.85971  1.0000
  C   C523      1.0  0.03515  0.29228  0.75336  1.0000
  H   H408      1.0  0.16267  0.99800  0.75741  1.0000
  C   C524      1.0  0.49371  0.24337  0.74365  1.0000
  C   C525      1.0  0.10883  0.00250  0.90811  1.0000
  C   C526      1.0  0.17909  0.25435  0.74191  1.0000
  C   C527      1.0  0.19854  0.25914  0.74762  1.0000
  C   C528      1.0  0.20009  0.25900  0.76421  1.0000
  C   C529      1.0  0.18267  0.25305  0.77522  1.0000
  C   C530      1.0  0.16364  0.24728  0.76962  1.0000
  C   C531      1.0  0.16183  0.24784  0.75306  1.0000
  C   C532      1.0  0.00974  0.27478  0.78928  1.0000
  H   H409      1.0  0.46566  0.25246  0.75926  1.0000
  H   H410      1.0  0.10408  0.13812  0.76566  1.0000
  H   H411      1.0  0.47737  0.31521  0.91128  1.0000
  H   H412      1.0  0.14113  0.08583  0.74452  1.0000
  H   H413      1.0  0.45566  0.30450  0.95601  1.0000
  H   H414      1.0  0.03449  0.03546  0.82535  1.0000
  H   H415      1.0  0.02692  0.13232  0.80481  1.0000
  C   C533      1.0  0.12984  0.12350  0.77914  1.0000
  C   C534      1.0  0.15545  0.04854  0.81430  1.0000
  H   H416      1.0  0.27914  0.31795  0.79709  1.0000
  C   C535      1.0  0.31615  0.30589  0.74734  1.0000
  H   H417      1.0  0.40922  0.24068  0.95342  1.0000
  H   H418      1.0  0.20963  0.20074  0.76436  1.0000
  H   H419      1.0  0.34216  0.24080  0.76238  1.0000
  H   H420      1.0  0.35400  0.28604  0.79920  1.0000
  H   H421      1.0  0.21463  0.26394  0.76855  1.0000
  H   H422      1.0  0.18368  0.25343  0.78805  1.0000
  H   H423      1.0  0.14993  0.24322  0.77809  1.0000
  C   C536      1.0  0.07001  0.00568  0.90669  1.0000
  C   C537      1.0  0.09771  0.04611  0.94685  1.0000
  C   C538      1.0  0.45611  0.24388  0.73659  1.0000
  H   H424      1.0  0.03146  0.13062  0.85622  1.0000
  H   H425      1.0  0.05484  0.99812  0.90694  1.0000
  H   H426      1.0  0.10890  0.17732  0.89112  1.0000
  H   H427      1.0  0.03842  0.07340  0.83132  1.0000
  H   H428      1.0  0.42841  0.27305  0.76205  1.0000
  C   C539      1.0  0.19155  0.24014  0.86679  1.0000
  H   H429      1.0  0.16441  0.02719  0.77505  1.0000
  H   H430      1.0  0.03141  0.07273  0.97747  1.0000
  C   C540      1.0  0.23635  0.08292  0.75077  1.0000
  C   C541      1.0  0.19859  0.08624  0.76134  1.0000
  C   C542      1.0  0.40770  0.27476  0.95686  1.0000
  H   H431      1.0  0.13512  0.19257  0.86951  1.0000
  H   H432      1.0  0.17787  0.07230  0.73293  1.0000
  C   C543      1.0  0.03342  0.04725  0.96178  1.0000
  H   H433      1.0  0.09604  0.05250  0.93446  1.0000
  C   C544      1.0  0.29922  0.29004  0.80494  1.0000
  C   C545      1.0  0.02352  0.05897  0.97424  1.0000
  C   C546      1.0  0.46020  0.32343  0.87377  1.0000
  C   C547      1.0  0.16824  0.01870  0.73538  1.0000
  C   C548      1.0  0.17522  0.04300  0.82063  1.0000
  C   C549      1.0  0.06018  0.11367  0.97500  1.0000
  H   H434      1.0  0.18681  0.11891  0.76607  1.0000
  C   C550      1.0  0.09022  0.22390  0.86024  1.0000
  H   H435      1.0  0.22143  0.13529  0.75720  1.0000
  C   C551      1.0  0.08241  0.19881  0.88391  1.0000
  C   C552      1.0  0.44426  0.32447  0.90637  1.0000
  C   C553      1.0  0.33406  0.31362  0.79015  1.0000
  C   C554      1.0  0.12077  0.25062  0.83197  1.0000
  C   C555      1.0  0.10573  0.28792  0.81360  1.0000
  P   P20       1.0  0.17350  0.07361  0.76808  1.0000
  C   C556      1.0  0.13804  0.09586  0.75445  1.0000
  H   H436      1.0  0.12635  0.17866  0.84335  1.0000
  H   H437      1.0  0.17208  0.15752  0.75382  1.0000
  C   C557      1.0  0.17093  0.24653  0.87347  1.0000
  H   H438      1.0  0.23800  0.00804  0.74835  1.0000
  P   P21       1.0  0.13110  0.22598  0.84269  1.0000
  C   C558      1.0  0.15119  0.09377  0.76729  1.0000
  H   H439      1.0  0.13679  0.24722  0.87142  1.0000
  C   C559      1.0  0.46623  0.31903  0.90212  1.0000
  S   S77       1.0  0.34893  0.27863  0.73540  1.0000
  H   H440      1.0  0.05889  0.22154  0.87357  1.0000
  C   C560      1.0  0.07565  0.21553  0.87278  1.0000
  H   H441      1.0  0.07090  0.19169  0.89322  1.0000
  C   C561      1.0  0.15268  0.24212  0.86612  1.0000
  H   H442      1.0  0.15885  0.20418  0.78874  1.0000
  H   H443      1.0  0.12694  0.13464  0.78843  1.0000
  C   C562      1.0  0.02614  0.13265  0.83079  1.0000
  H   H444      1.0  0.40411  0.32243  0.73339  1.0000
  H   H445      1.0  0.25323  0.11249  0.74725  1.0000
  H   H446      1.0  0.02968  0.27614  0.75279  1.0000
  C   C563      1.0  0.10387  0.19067  0.88269  1.0000
  H   H447      1.0  0.43441  0.30575  0.77547  1.0000
  H   H448      1.0  0.02664  0.17758  0.81523  1.0000
  C   C564      1.0  0.16642  0.03107  0.76211  1.0000
  H   H449      1.0  0.11122  0.11349  0.74386  1.0000
  H   H450      1.0  0.08211  0.26765  0.80666  1.0000
  C   C565      1.0  0.03557  0.12808  0.81540  1.0000
  C   C566      1.0  0.41814  0.30217  0.77344  1.0000
  C   C567      1.0  0.15499  0.05802  0.79843  1.0000
  S   S78       1.0  0.03625  0.23383  0.73852  1.0000
  H   H451      1.0  0.10641  0.07655  0.95396  1.0000
  C   C568      1.0  0.19454  0.04688  0.81107  1.0000
  H   H452      1.0  0.20986  0.04236  0.81594  1.0000
  C   C569      1.0  0.10320  0.24984  0.82280  1.0000
  H   H453      1.0  0.03134  0.02046  0.94757  1.0000
  C   C570      1.0  0.41478  0.28369  0.76589  1.0000
  H   H454      1.0  0.00053  0.10125  0.82200  1.0000
  C   C571      1.0  0.22015  0.11799  0.75698  1.0000
  H   H455      1.0  0.20932  0.05898  0.78799  1.0000
  C   C572      1.0  0.19392  0.22932  0.85275  1.0000
  H   H456      1.0  0.06367  0.11506  0.80159  1.0000
  C   C573      1.0  0.10372  0.05965  0.95784  1.0000
  H   H457      1.0  0.99988  0.09966  0.97082  1.0000
  C   C574      1.0  0.11180  0.21565  0.85881  1.0000
  P   P22       1.0  0.27138  0.24359  0.73989  1.0000
  C   C575      1.0  0.29755  0.23117  0.74414  1.0000
  C   C576      1.0  0.26238  0.26349  0.75394  1.0000
  C   C577      1.0  0.25471  0.28445  0.74838  1.0000
  C   C578      1.0  0.24701  0.29941  0.75936  1.0000
  C   C579      1.0  0.24701  0.29370  0.77595  1.0000
  C   C580      1.0  0.25509  0.27310  0.78159  1.0000
  C   C581      1.0  0.26285  0.25807  0.77064  1.0000
  C   C582      1.0  0.30515  0.21159  0.73782  1.0000
  C   C583      1.0  0.32572  0.20250  0.74058  1.0000
  C   C584      1.0  0.33885  0.21275  0.74975  1.0000
  C   C585      1.0  0.40058  0.31601  0.77834  1.0000
  C   C586      1.0  0.31113  0.24164  0.75299  1.0000
  C   C587      1.0  0.25235  0.22247  0.74079  1.0000
  C   C588      1.0  0.23692  0.21889  0.75409  1.0000
  C   C589      1.0  0.22187  0.20302  0.75427  1.0000
  C   C590      1.0  0.37947  0.31138  0.77576  1.0000
  H   H458      1.0  0.17473  0.30243  0.79826  1.0000
  H   H459      1.0  0.00498  0.03955  0.89581  1.0000
  H   H460      1.0  0.08398  0.10490  0.82561  1.0000
  H   H461      1.0  0.16908  0.25491  0.88435  1.0000
  C   C591      1.0  0.03786  0.12696  0.84424  1.0000
  C   C592      1.0  0.11857  0.19919  0.87032  1.0000
  H   H462      1.0  0.36017  0.28903  0.76591  1.0000
  H   H463      1.0  0.25472  0.28953  0.73562  1.0000
  H   H464      1.0  0.24112  0.31557  0.75500  1.0000
  H   H465      1.0  0.02382  0.28440  0.78762  1.0000
  H   H466      1.0  0.25525  0.26880  0.79445  1.0000
  H   H467      1.0  0.26907  0.24217  0.77518  1.0000
  H   H468      1.0  0.32330  0.26522  0.81167  1.0000
  C   C593      1.0  0.47415  0.31868  0.88588  1.0000
  H   H469      1.0  0.35495  0.20588  0.75163  1.0000
  H   H470      1.0  0.39808  0.27285  0.96840  1.0000
  C   C594      1.0  0.31276  0.32253  0.78990  1.0000
  H   H471      1.0  0.23622  0.22838  0.76429  1.0000
  H   H472      1.0  0.11067  0.17547  0.73571  1.0000
  H   H473      1.0  0.21099  0.17771  0.74157  1.0000
  C   C595      1.0  0.09362  0.02450  0.95188  1.0000
  H   H474      1.0  0.06806  0.28309  0.74518  1.0000
  C   C596      1.0  0.09562  0.26844  0.81377  1.0000
  Fe  Fe40      1.0  0.06164  0.23174  0.75737  1.0000
  C   C597      1.0  0.17424  0.32600  0.77752  1.0000
  H   H475      1.0  0.08435  0.23658  0.85171  1.0000
  C   C598      1.0  0.01576  0.07121  0.85252  1.0000
  C   C599      1.0  0.02064  0.30897  0.75861  1.0000
  H   H476      1.0  0.14465  0.27144  0.83849  1.0000
  H   H477      1.0  0.31928  0.29801  0.75907  1.0000
  C   C600      1.0  0.02751  0.06313  0.83907  1.0000
  H   H478      1.0  0.24074  0.30533  0.78439  1.0000
  H   H479      1.0  0.39118  0.26491  0.75713  1.0000
  C   C601      1.0  0.21669  0.07350  0.75566  1.0000
  C   C602      1.0  0.02372  0.02927  0.95742  1.0000
  H   H480      1.0  0.48781  0.31425  0.96810  1.0000
  C   C603      1.0  0.39385  0.27904  0.76322  1.0000
  C   C604      1.0  0.43266  0.27971  0.92710  1.0000
  C   C605      1.0  0.41386  0.29534  0.95041  1.0000
  C   C606      1.0  0.15216  0.19873  0.80082  1.0000
  C   C607      1.0  0.42631  0.29797  0.93547  1.0000
  H   H481      1.0  0.49122  0.31493  0.88267  1.0000
  C   C608      1.0  0.42647  0.25913  0.93358  1.0000
  C   C609      1.0  0.20047  0.10860  0.76196  1.0000
  C   C610      1.0  0.14752  0.17699  0.80448  1.0000
  C   C611      1.0  0.23012  0.00070  0.73945  1.0000
  C   C612      1.0  0.02530  0.04178  0.83574  1.0000
  H   H482      1.0  0.44238  0.28126  0.91560  1.0000
  C   C613      1.0  0.13081  0.27032  0.83183  1.0000
  C   C614      1.0  0.15493  0.23129  0.85201  1.0000
  H   H483      1.0  0.35115  0.32530  0.81721  1.0000
  H   H484      1.0  0.10027  0.30216  0.80617  1.0000
  C   C615      1.0  0.14735  0.21349  0.81248  1.0000
  H   H485      1.0  0.13954  0.06189  0.79362  1.0000
  C   C616      1.0  0.14689  0.10771  0.77967  1.0000
  S   S79       1.0  0.09679  0.23740  0.74869  1.0000
  C   C617      1.0  0.14629  0.32074  0.75976  1.0000
  C   C618      1.0  0.32035  0.28115  0.80547  1.0000
  C   C619      1.0  0.12326  0.28888  0.82269  1.0000
  C   C620      1.0  0.00935  0.25684  0.80082  1.0000
  C   C621      1.0  0.13840  0.16986  0.81989  1.0000
  C   C622      1.0  0.33772  0.29296  0.79826  1.0000
  H   H486      1.0  0.02313  0.25257  0.80771  1.0000
  H   H487      1.0  0.13461  0.15304  0.82272  1.0000
  C   C623      1.0  0.09535  0.01648  0.96798  1.0000
  H   H488      1.0  0.15698  0.10662  0.78959  1.0000
  C   C624      1.0  0.16698  0.30757  0.78739  1.0000
  C   C625      1.0  0.14080  0.16827  0.74619  1.0000
  H   H489      1.0  0.06744  0.11250  0.85282  1.0000
  C   C626      1.0  0.00421  0.02283  0.96570  1.0000
  C   C627      1.0  0.13791  0.20653  0.82796  1.0000
  H   H490      1.0  0.14341  0.28815  0.73322  1.0000
  C   C628      1.0  0.17435  0.06228  0.78881  1.0000
  C   C629      1.0  0.05847  0.11667  0.84235  1.0000
  C   C630      1.0  0.13369  0.18454  0.83162  1.0000
  H   H491      1.0  0.43140  0.24509  0.92706  1.0000
  C   C631      1.0  0.17070  0.05219  0.75533  1.0000
  C   C632      1.0  0.17390  0.05630  0.73845  1.0000
  C   C633      1.0  0.05694  0.29614  0.74907  1.0000
  H   H492      1.0  0.33169  0.18774  0.73525  1.0000
  C   C634      1.0  0.00742  0.23438  0.73735  1.0000
  H   H493      1.0  0.04853  0.05240  0.95537  1.0000
  C   C635      1.0  0.17570  0.22490  0.84536  1.0000
  C   C636      1.0  0.05636  0.11814  0.81353  1.0000
  C   C637      1.0  0.06780  0.11242  0.82701  1.0000
  H   H494      1.0  0.21566  0.05627  0.75484  1.0000
  C   C638      1.0  0.41398  0.25665  0.94844  1.0000
  H   H495      1.0  0.28578  0.28109  0.81076  1.0000
  P   P23       1.0  0.35661  0.32935  0.78162  1.0000
  H   H496      1.0  0.09545  0.23473  0.82253  1.0000
  H   H497      1.0  0.08155  0.31930  0.74753  1.0000
  C   C639      1.0  0.05970  0.13630  0.97448  1.0000
  H   H498      1.0  0.40358  0.33026  0.78409  1.0000
  H   H499      1.0  0.08912  0.01404  0.94323  1.0000
  C   C640      1.0  0.29545  0.31075  0.79721  1.0000
  C   C641      1.0  0.01199  0.17768  0.80921  1.0000
  H   H500      1.0  0.29560  0.20341  0.73046  1.0000
  H   H501      1.0  0.09168  0.99981  0.97177  1.0000
  H   H502      1.0  0.21226  0.26372  0.73929  1.0000
  H   H503      1.0  0.36420  0.32485  0.74645  1.0000
  H   H504      1.0  0.01026  0.01178  0.84345  1.0000
  C   C642      1.0  0.00189  0.05797  0.86269  1.0000
  H   H505      1.0  0.46648  0.32339  0.86120  1.0000
  H   H506      1.0  0.41757  0.28454  0.72983  1.0000
  H   H507      1.0  0.38876  0.32088  0.92266  1.0000
  H   H508      1.0  0.00658  0.29024  0.73215  1.0000
  C   C643      1.0  0.43036  0.32928  0.89410  1.0000
  H   H509      1.0  0.99692  0.00868  0.96245  1.0000
  C   C644      1.0  0.01158  0.02841  0.84601  1.0000
  H   H510      1.0  0.00827  0.13810  0.96868  1.0000
  C   C645      1.0  0.02832  0.32959  0.75956  1.0000
  P   P24       1.0  0.99907  0.14521  0.83298  1.0000
  H   H511      1.0  0.00463  0.00271  0.91559  1.0000
  C   C646      1.0  0.43830  0.32862  0.87788  1.0000
  C   C647      1.0  0.17245  0.03964  0.72854  1.0000
  H   H512      1.0  0.10511  0.29609  0.72899  1.0000
  Fe  Fe41      1.0  0.35437  0.43231  0.03769  1.0000
  S   S80       1.0  0.38457  0.44682  0.04339  1.0000
  S   S81       1.0  0.35849  0.41726  0.01329  1.0000
  Fe  Fe42      1.0  0.33202  0.43859  0.07242  1.0000
  S   S82       1.0  0.36103  0.45349  0.07974  1.0000
  S   S83       1.0  0.30155  0.43875  0.09039  1.0000
  Fe  Fe43      1.0  0.36265  0.47170  0.05525  1.0000
  S   S84       1.0  0.36826  0.50735  0.04991  1.0000
  Fe  Fe44      1.0  0.38016  0.42711  0.06723  1.0000
  S   S85       1.0  0.40708  0.40891  0.07977  1.0000
  S   S86       1.0  0.33234  0.45880  0.04820  1.0000
  S   S87       1.0  0.35120  0.41078  0.06135  1.0000
  Fe  Fe45      1.0  0.42241  0.62510  0.05345  1.0000
  S   S88       1.0  0.45047  0.60074  0.05511  1.0000
  C   C648      1.0  0.45860  0.58406  0.01393  1.0000
  S   S89       1.0  0.45096  0.61139  0.09286  1.0000
  Fe  Fe46      1.0  0.46471  0.62505  0.06850  1.0000
  P   P25       1.0  0.42349  0.35357  0.99873  1.0000
  Fe  Fe47      1.0  0.43422  0.58922  0.07921  1.0000
  S   S90       1.0  0.43298  0.55352  0.08752  1.0000
  S   S91       1.0  0.40503  0.61188  0.07704  1.0000
  H   H513      1.0  0.27772  0.54456  0.20224  1.0000
  C   C649      1.0  0.17025  0.40525  0.20757  1.0000
  S   S92       1.0  0.25473  0.35346  0.19718  1.0000
  H   H514      1.0  0.44110  0.34813  0.03088  1.0000
  S   S93       1.0  0.22686  0.39815  0.18564  1.0000
  Fe  Fe48      1.0  0.22073  0.36733  0.20213  1.0000
  H   H515      1.0  0.47606  0.56219  0.12353  1.0000
  Fe  Fe49      1.0  0.26152  0.38513  0.18204  1.0000
  S   S94       1.0  0.28448  0.38295  0.15886  1.0000
  S   S95       1.0  0.27220  0.40133  0.20277  1.0000
  H   H516      1.0  0.40814  0.48571  0.03140  1.0000
  H   H517      1.0  0.33200  0.63860  0.20943  1.0000
  H   H518      1.0  0.36530  0.37776  0.03854  1.0000
  C   C650      1.0  0.13775  0.42749  0.15064  1.0000
  H   H519      1.0  0.46605  0.36560  0.00511  1.0000
  H   H520      1.0  0.43687  0.46587  0.04619  1.0000
  C   C651      1.0  0.42196  0.49410  0.03393  1.0000
  C   C652      1.0  0.17732  0.42634  0.20560  1.0000
  H   H521      1.0  0.43450  0.47680  0.07631  1.0000
  H   H522      1.0  0.22707  0.44468  0.17692  1.0000
  H   H523      1.0  0.41966  0.60274  0.13642  1.0000
  C   C653      1.0  0.29752  0.42363  0.10967  1.0000
  C   C654      1.0  0.31245  0.40737  0.11505  1.0000
  C   C655      1.0  0.30824  0.39531  0.13016  1.0000
  C   C656      1.0  0.28928  0.39954  0.14028  1.0000
  C   C657      1.0  0.27462  0.41621  0.13511  1.0000
  C   C658      1.0  0.27861  0.42798  0.11983  1.0000
  H   H524      1.0  0.32707  0.40377  0.10743  1.0000
  H   H525      1.0  0.31973  0.38248  0.13399  1.0000
  H   H526      1.0  0.26000  0.41968  0.14274  1.0000
  H   H527      1.0  0.26691  0.44044  0.11578  1.0000
  C   C659      1.0  0.43018  0.40088  0.06747  1.0000
  C   C660      1.0  0.43158  0.40541  0.05067  1.0000
  C   C661      1.0  0.44952  0.39732  0.04107  1.0000
  C   C662      1.0  0.46624  0.38502  0.04829  1.0000
  C   C663      1.0  0.46525  0.38120  0.06510  1.0000
  C   C664      1.0  0.44711  0.38888  0.07465  1.0000
  H   H528      1.0  0.41844  0.41422  0.04500  1.0000
  H   H529      1.0  0.45015  0.40011  0.02806  1.0000
  S   S96       1.0  0.40531  0.64696  0.11328  1.0000
  H   H530      1.0  0.44600  0.38516  0.08761  1.0000
  C   C665      1.0  0.38629  0.51958  0.06071  1.0000
  C   C666      1.0  0.39038  0.54141  0.05639  1.0000
  C   C667      1.0  0.40473  0.55185  0.06454  1.0000
  C   C668      1.0  0.41519  0.54044  0.07706  1.0000
  C   C669      1.0  0.41119  0.51852  0.08141  1.0000
  C   C670      1.0  0.39670  0.50808  0.07326  1.0000
  H   H531      1.0  0.38264  0.55020  0.04653  1.0000
  H   H532      1.0  0.40774  0.56872  0.06106  1.0000
  H   H533      1.0  0.41924  0.50967  0.09113  1.0000
  H   H534      1.0  0.39368  0.49118  0.07660  1.0000
  H   H535      1.0  0.45240  0.64956  0.18461  1.0000
  H   H536      1.0  0.47803  0.37154  0.07071  1.0000
  P   P26       1.0  0.47660  0.47967  0.05720  1.0000
  C   C671      1.0  0.35224  0.42567  0.99312  1.0000
  H   H537      1.0  0.30209  0.50385  0.01671  1.0000
  H   H538      1.0  0.43215  0.57385  0.00253  1.0000
  H   H539      1.0  0.31728  0.39535  0.17869  1.0000
  C   C672      1.0  0.45561  0.49413  0.04634  1.0000
  H   H540      1.0  0.11984  0.44506  0.11413  1.0000
  C   C673      1.0  0.37307  0.59093  0.10949  1.0000
  C   C674      1.0  0.38652  0.57278  0.11359  1.0000
  C   C675      1.0  0.38191  0.55239  0.10949  1.0000
  C   C676      1.0  0.36391  0.55012  0.10117  1.0000
  C   C677      1.0  0.35015  0.56824  0.09713  1.0000
  C   C678      1.0  0.35511  0.58875  0.10112  1.0000
  P   P27       1.0  0.32747  0.56565  0.08566  1.0000
  C   C679      1.0  0.33644  0.56973  0.06436  1.0000
  C   C680      1.0  0.31657  0.53921  0.09093  1.0000
  C   C681      1.0  0.32640  0.52099  0.08387  1.0000
  C   C682      1.0  0.31750  0.50074  0.08725  1.0000
  C   C683      1.0  0.29904  0.49833  0.09805  1.0000
  C   C684      1.0  0.28940  0.51624  0.10545  1.0000
  C   C685      1.0  0.29807  0.53661  0.10189  1.0000
  C   C686      1.0  0.35145  0.58538  0.05882  1.0000
  C   C687      1.0  0.35762  0.58943  0.04230  1.0000
  C   C688      1.0  0.34907  0.57779  0.03117  1.0000
  C   C689      1.0  0.33409  0.56222  0.03655  1.0000
  C   C690      1.0  0.32758  0.55838  0.05305  1.0000
  C   C691      1.0  0.30673  0.58639  0.09047  1.0000
  C   C692      1.0  0.29484  0.59714  0.07834  1.0000
  C   C693      1.0  0.27892  0.61328  0.08212  1.0000
  C   C694      1.0  0.27470  0.61874  0.09801  1.0000
  C   C695      1.0  0.28635  0.60800  0.11017  1.0000
  C   C696      1.0  0.30227  0.59185  0.10644  1.0000
  H   H541      1.0  0.37709  0.60686  0.11226  1.0000
  H   H542      1.0  0.40095  0.57466  0.11941  1.0000
  H   H543      1.0  0.39291  0.53852  0.11211  1.0000
  H   H544      1.0  0.36123  0.53433  0.09754  1.0000
  H   H545      1.0  0.34547  0.60321  0.09745  1.0000
  H   H546      1.0  0.34081  0.52251  0.07558  1.0000
  H   H547      1.0  0.32486  0.48685  0.08145  1.0000
  H   H548      1.0  0.29228  0.48254  0.10065  1.0000
  H   H549      1.0  0.27506  0.51436  0.11380  1.0000
  H   H550      1.0  0.29012  0.55021  0.10764  1.0000
  H   H551      1.0  0.35847  0.59454  0.06717  1.0000
  H   H552      1.0  0.36926  0.60148  0.03815  1.0000
  H   H553      1.0  0.35413  0.58083  0.01840  1.0000
  H   H554      1.0  0.32755  0.55309  0.02793  1.0000
  H   H555      1.0  0.31563  0.54657  0.05688  1.0000
  H   H556      1.0  0.29787  0.59320  0.06595  1.0000
  H   H557      1.0  0.33356  0.45490  0.99850  1.0000
  H   H558      1.0  0.26245  0.63133  0.10089  1.0000
  H   H559      1.0  0.28313  0.61228  0.12248  1.0000
  H   H560      1.0  0.31116  0.58367  0.11600  1.0000
  C   C697      1.0  0.24613  0.46849  0.14033  1.0000
  H   H561      1.0  0.44810  0.59076  0.02352  1.0000
  C   C698      1.0  0.43705  0.60045  0.13407  1.0000
  C   C699      1.0  0.33180  0.49562  0.14517  1.0000
  H   H562      1.0  0.31372  0.35448  0.21306  1.0000
  C   C700      1.0  0.33840  0.43668  0.19481  1.0000
  H   H563      1.0  0.23314  0.34748  0.16208  1.0000
  C   C701      1.0  0.33971  0.44464  0.98914  1.0000
  H   H564      1.0  0.45479  0.48016  0.99908  1.0000
  C   C702      1.0  0.41518  0.35789  0.04775  1.0000
  H   H565      1.0  0.23295  0.40095  0.12538  1.0000
  C   C703      1.0  0.49151  0.49695  0.06774  1.0000
  S   S97       1.0  0.22626  0.44864  0.21155  1.0000
  C   C704      1.0  0.44994  0.61807  0.13415  1.0000
  H   H566      1.0  0.44348  0.41812  0.10702  1.0000
  C   C705      1.0  0.42316  0.51620  0.02906  1.0000
  C   C706      1.0  0.44069  0.52724  0.03258  1.0000
  C   C707      1.0  0.45709  0.51619  0.04090  1.0000
  H   H567      1.0  0.42026  0.44976  0.09767  1.0000
  C   C708      1.0  0.14898  0.36879  0.16585  1.0000
  C   C709      1.0  0.46936  0.64513  0.16125  1.0000
  H   H568      1.0  0.30965  0.45011  0.13582  1.0000
  C   C710      1.0  0.39499  0.46744  0.99723  1.0000
  H   H569      1.0  0.48700  0.34759  0.17985  1.0000
  P   P28       1.0  0.29950  0.47315  0.16456  1.0000
  H   H570      1.0  0.30437  0.50348  0.98692  1.0000
  C   C711      1.0  0.23822  0.45228  0.16763  1.0000
  H   H571      1.0  0.41014  0.52486  0.02300  1.0000
  H   H572      1.0  0.44128  0.54449  0.02925  1.0000
  C   C712      1.0  0.41250  0.35944  0.01880  1.0000
  C   C713      1.0  0.31251  0.45063  0.17587  1.0000
  H   H573      1.0  0.33110  0.47059  0.18858  1.0000
  C   C714      1.0  0.48690  0.33671  0.00485  1.0000
  C   C715      1.0  0.19209  0.38458  0.15340  1.0000
  C   C716      1.0  0.20314  0.36675  0.16117  1.0000
  C   C717      1.0  0.22456  0.36104  0.15587  1.0000
  C   C718      1.0  0.23517  0.37324  0.14285  1.0000
  C   C719      1.0  0.22444  0.39129  0.13524  1.0000
  C   C720      1.0  0.20303  0.39710  0.14057  1.0000
  C   C721      1.0  0.47246  0.61571  0.13049  1.0000
  C   C722      1.0  0.43635  0.63167  0.00577  1.0000
  H   H574      1.0  0.44215  0.63363  0.13677  1.0000
  Fe  Fe50      1.0  0.26276  0.37081  0.21796  1.0000
  C   C723      1.0  0.28885  0.49241  0.19332  1.0000
  H   H575      1.0  0.37705  0.54548  0.99809  1.0000
  H   H576      1.0  0.19526  0.41150  0.13483  1.0000
  H   H577      1.0  0.38309  0.62772  0.00179  1.0000
  H   H578      1.0  0.16198  0.38978  0.12665  1.0000
  P   P29       1.0  0.16486  0.39233  0.16103  1.0000
  H   H579      1.0  0.49381  0.64929  0.02750  1.0000
  C   C724      1.0  0.30905  0.42931  0.17297  1.0000
  C   C725      1.0  0.46882  0.57772  0.12675  1.0000
  H   H580      1.0  0.46431  0.51967  0.07300  1.0000
  C   C726      1.0  0.44909  0.33819  0.99962  1.0000
  C   C727      1.0  0.33890  0.50576  0.98374  1.0000
  C   C728      1.0  0.12323  0.33285  0.17245  1.0000
  C   C729      1.0  0.28579  0.53461  0.17821  1.0000
  H   H581      1.0  0.10385  0.35204  0.18913  1.0000
  H   H582      1.0  0.47176  0.62774  0.16387  1.0000
  S   S98       1.0  0.43751  0.65066  0.06551  1.0000
  H   H583      1.0  0.35697  0.51228  0.13017  1.0000
  H   H584      1.0  0.11646  0.45426  0.14256  1.0000
  C   C730      1.0  0.23186  0.45816  0.15216  1.0000
  H   H585      1.0  0.38884  0.64987  0.14653  1.0000
  C   C731      1.0  0.16576  0.39516  0.19413  1.0000
  C   C732      1.0  0.48930  0.44510  0.03878  1.0000
  C   C733      1.0  0.17574  0.42717  0.17668  1.0000
  C   C734      1.0  0.31757  0.50496  0.00961  1.0000
  C   C735      1.0  0.26680  0.47280  0.14394  1.0000
  H   H586      1.0  0.35864  0.48740  0.10847  1.0000
  C   C736      1.0  0.48526  0.56761  0.98838  1.0000
  H   H587      1.0  0.38705  0.36986  0.06205  1.0000
  H   H588      1.0  0.34291  0.40179  0.19837  1.0000
  C   C737      1.0  0.15393  0.35013  0.15763  1.0000
  C   C738      1.0  0.49380  0.46596  0.04227  1.0000
  C   C739      1.0  0.41503  0.39701  0.98727  1.0000
  C   C740      1.0  0.11778  0.35160  0.18028  1.0000
  C   C741      1.0  0.48767  0.65478  0.11112  1.0000
  H   H589      1.0  0.18624  0.45340  0.18871  1.0000
  C   C742      1.0  0.34631  0.49897  0.13135  1.0000
  C   C743      1.0  0.16829  0.40608  0.17860  1.0000
  C   C744      1.0  0.44414  0.63237  0.98931  1.0000
  C   C745      1.0  0.31854  0.34308  0.22288  1.0000
  H   H590      1.0  0.28428  0.55097  0.17240  1.0000
  H   H591      1.0  0.33184  0.50616  0.15474  1.0000
  C   C746      1.0  0.39093  0.36746  0.02132  1.0000
  H   H592      1.0  0.24124  0.47305  0.12832  1.0000
  H   H593      1.0  0.29345  0.52007  0.15591  1.0000
  C   C747      1.0  0.44648  0.58028  0.13033  1.0000
  C   C748      1.0  0.43072  0.45660  0.00523  1.0000
  C   C749      1.0  0.14111  0.33223  0.16097  1.0000
  H   H594      1.0  0.47068  0.52504  0.04325  1.0000
  C   C750      1.0  0.43819  0.47649  0.99829  1.0000
  C   C751      1.0  0.31886  0.50478  0.99286  1.0000
  H   H595      1.0  0.16772  0.34925  0.14872  1.0000
  C   C752      1.0  0.47932  0.44243  0.07855  1.0000
  H   H596      1.0  0.19532  0.35762  0.17161  1.0000
  H   H597      1.0  0.36928  0.39762  0.98362  1.0000
  H   H598      1.0  0.16105  0.37856  0.19592  1.0000
  C   C753      1.0  0.40021  0.62887  0.99836  1.0000
  C   C754      1.0  0.38180  0.37112  0.03684  1.0000
  Fe  Fe51      1.0  0.23739  0.41306  0.20725  1.0000
  S   S99       1.0  0.48751  0.37327  0.03615  1.0000
  P   P30       1.0  0.48886  0.63885  0.13039  1.0000
  C   C755      1.0  0.39666  0.56969  0.98491  1.0000
  C   C756      1.0  0.32735  0.64759  0.21981  1.0000
  C   C757      1.0  0.35647  0.50702  0.00820  1.0000
  H   H599      1.0  0.13572  0.43148  0.16305  1.0000
  H   H600      1.0  0.45277  0.65564  0.11215  1.0000
  C   C758      1.0  0.13037  0.36966  0.17679  1.0000
  C   C759      1.0  0.32760  0.45424  0.18661  1.0000
  C   C760      1.0  0.40914  0.45210  0.00468  1.0000
  H   H601      1.0  0.44152  0.44478  0.01130  1.0000
  S   S100      1.0  0.19082  0.34620  0.20721  1.0000
  C   C761      1.0  0.23492  0.46933  0.22269  1.0000
  C   C762      1.0  0.38853  0.54898  0.98771  1.0000
  C   C763      1.0  0.46602  0.46014  0.07291  1.0000
  C   C764      1.0  0.43816  0.48302  0.04245  1.0000
  C   C765      1.0  0.42756  0.37771  0.98503  1.0000
  C   C766      1.0  0.35794  0.50686  0.99134  1.0000
  H   H602      1.0  0.48134  0.41337  0.09482  1.0000
  C   C767      1.0  0.48178  0.59529  0.12686  1.0000
  C   C768      1.0  0.12850  0.43514  0.12307  1.0000
  H   H603      1.0  0.37087  0.50748  0.01441  1.0000
  C   C769      1.0  0.14131  0.41694  0.11864  1.0000
  H   H604      1.0  0.26349  0.45180  0.18336  1.0000
  H   H605      1.0  0.28007  0.50717  0.21553  1.0000
  C   C770      1.0  0.33460  0.41545  0.19204  1.0000
  H   H606      1.0  0.40321  0.43676  0.01019  1.0000
  H   H607      1.0  0.42468  0.35455  0.05799  1.0000
  C   C771      1.0  0.40316  0.33838  0.99153  1.0000
  H   H608      1.0  0.25191  0.36902  0.13892  1.0000
  Fe  Fe52      1.0  0.42266  0.63526  0.08955  1.0000
  C   C772      1.0  0.41430  0.62989  0.01042  1.0000
  C   C773      1.0  0.39395  0.36649  0.05005  1.0000
  H   H609      1.0  0.12573  0.38417  0.18279  1.0000
  H   H610      1.0  0.21270  0.49380  0.21254  1.0000
  C   C774      1.0  0.12666  0.44035  0.13907  1.0000
  S   S101      1.0  0.40361  0.62917  0.03104  1.0000
  H   H611      1.0  0.44738  0.63261  0.01486  1.0000
  C   C775      1.0  0.18005  0.43731  0.19017  1.0000
  C   C776      1.0  0.48093  0.58583  0.01307  1.0000
  C   C777      1.0  0.27346  0.46646  0.15937  1.0000
  C   C778      1.0  0.42409  0.49185  0.99072  1.0000
  H   H612      1.0  0.18134  0.43395  0.21598  1.0000
  C   C779      1.0  0.15240  0.40405  0.13018  1.0000
  H   H613      1.0  0.17872  0.43554  0.16476  1.0000
  C   C780      1.0  0.46274  0.56624  0.98926  1.0000
  C   C781      1.0  0.42451  0.35448  0.03221  1.0000
  H   H614      1.0  0.26993  0.62164  0.07267  1.0000
  C   C782      1.0  0.15104  0.40949  0.14618  1.0000
  H   H615      1.0  0.14252  0.41272  0.10629  1.0000
  C   C783      1.0  0.33633  0.50619  0.01725  1.0000
  H   H616      1.0  0.33522  0.50611  0.03026  1.0000
  C   C784      1.0  0.28345  0.50994  0.20253  1.0000
  C   C785      1.0  0.45003  0.43013  0.09784  1.0000
  C   C786      1.0  0.34737  0.48490  0.11916  1.0000
  C   C787      1.0  0.33407  0.46736  0.12087  1.0000
  C   C788      1.0  0.25894  0.45634  0.17124  1.0000
  H   H617      1.0  0.40389  0.39852  0.99793  1.0000
  C   C789      1.0  0.31949  0.46408  0.13459  1.0000
  H   H618      1.0  0.43650  0.56674  0.12983  1.0000
  C   C790      1.0  0.32011  0.41180  0.18099  1.0000
  C   C791      1.0  0.28204  0.53104  0.19502  1.0000
  H   H619      1.0  0.33502  0.45617  0.11160  1.0000
  C   C792      1.0  0.43689  0.44798  0.09254  1.0000
  C   C793      1.0  0.44489  0.46305  0.08020  1.0000
  H   H620      1.0  0.38107  0.37101  0.01130  1.0000
  H   H621      1.0  0.47592  0.43668  0.04532  1.0000
  S   S102      1.0  0.22849  0.38347  0.22383  1.0000
  H   H622      1.0  0.29792  0.42615  0.16444  1.0000
  C   C794      1.0  0.29344  0.49592  0.17648  1.0000
  H   H623      1.0  0.39147  0.58200  0.99305  1.0000
  C   C795      1.0  0.29122  0.51710  0.16894  1.0000
  H   H624      1.0  0.28906  0.47613  0.19937  1.0000
  C   C796      1.0  0.31775  0.47856  0.14662  1.0000
  C   C797      1.0  0.40804  0.62974  0.98185  1.0000
  H   H625      1.0  0.21589  0.45474  0.14939  1.0000
  H   H626      1.0  0.46118  0.63351  0.98579  1.0000
  C   C798      1.0  0.44953  0.57443  0.00201  1.0000
  H   H627      1.0  0.27747  0.48105  0.13466  1.0000
  C   C799      1.0  0.22493  0.49039  0.22090  1.0000
  C   C800      1.0  0.46725  0.34853  0.00312  1.0000
  H   H628      1.0  0.34982  0.43950  0.20324  1.0000
  H   H629      1.0  0.48472  0.54290  0.08749  1.0000
  H   H630      1.0  0.16891  0.39639  0.21944  1.0000
  C   C801      1.0  0.47128  0.42741  0.09091  1.0000
  C   C802      1.0  0.40240  0.48734  0.99001  1.0000
  C   C803      1.0  0.48125  0.51541  0.07426  1.0000
  H   H631      1.0  0.37826  0.46368  0.99705  1.0000
  C   C804      1.0  0.35994  0.41253  0.98071  1.0000
  P   P31       1.0  0.38415  0.50664  0.97979  1.0000
  H   H632      1.0  0.43008  0.50726  0.98564  1.0000
  H   H633      1.0  0.48116  0.51806  0.97920  1.0000
  H   H634      1.0  0.49419  0.59523  0.08682  1.0000
  H   H635      1.0  0.48779  0.59390  0.02215  1.0000
  H   H636      1.0  0.45520  0.55953  0.97990  1.0000
  H   H637      1.0  0.48176  0.65477  0.99993  1.0000
  C   C805      1.0  0.49176  0.33447  0.13398  1.0000
  H   H638      1.0  0.35030  0.33576  0.21117  1.0000
  C   C806      1.0  0.46752  0.66095  0.10544  1.0000
  C   C807      1.0  0.49272  0.52847  0.08274  1.0000
  C   C808      1.0  0.47650  0.65517  0.14601  1.0000
  C   C809      1.0  0.45840  0.65740  0.17302  1.0000
  H   H639      1.0  0.46612  0.33644  0.11830  1.0000
  C   C810      1.0  0.33927  0.33251  0.22186  1.0000
  C   C811      1.0  0.49422  0.57781  0.00024  1.0000
  S   S103      1.0  0.29686  0.61730  0.22823  1.0000
  H   H640      1.0  0.22269  0.52315  0.22821  1.0000
  H   H641      1.0  0.42840  0.45470  0.40897  1.0000
  H   H642      1.0  0.46325  0.43658  0.40113  1.0000
  C   C812      1.0  0.37273  0.37612  0.45382  1.0000
  Fe  Fe53      1.0  0.25169  0.55935  0.25890  1.0000
  S   S104      1.0  0.24064  0.57050  0.28368  1.0000
  S   S105      1.0  0.25382  0.52345  0.25274  1.0000
  Fe  Fe54      1.0  0.27470  0.60188  0.24879  1.0000
  S   S106      1.0  0.26566  0.61536  0.27252  1.0000
  C   C813      1.0  0.17225  0.65903  0.28491  1.0000
  Fe  Fe55      1.0  0.27410  0.58201  0.28419  1.0000
  S   S107      1.0  0.29997  0.57413  0.30207  1.0000
  Fe  Fe56      1.0  0.23254  0.60359  0.27056  1.0000
  S   S108      1.0  0.20457  0.62667  0.28049  1.0000
  S   S109      1.0  0.28538  0.56946  0.26028  1.0000
  S   S110      1.0  0.24136  0.59166  0.24576  1.0000
  S   S111      1.0  0.43788  0.36976  0.37302  1.0000
  S   S112      1.0  0.43849  0.39411  0.40610  1.0000
  Fe  Fe57      1.0  0.41374  0.38548  0.39061  1.0000
  S   S113      1.0  0.38584  0.40850  0.38419  1.0000
  Fe  Fe58      1.0  0.46216  0.37527  0.39027  1.0000
  H   H643      1.0  0.36298  0.38992  0.41468  1.0000
  H   H644      1.0  0.28763  0.48232  0.44607  1.0000
  Fe  Fe59      1.0  0.33889  0.55814  0.39099  1.0000
  S   S114      1.0  0.37172  0.56288  0.37796  1.0000
  S   S115      1.0  0.30798  0.56623  0.37833  1.0000
  Fe  Fe60      1.0  0.35751  0.54166  0.42341  1.0000
  S   S116      1.0  0.39141  0.54504  0.41219  1.0000
  S   S117      1.0  0.35637  0.52458  0.44902  1.0000
  Fe  Fe61      1.0  0.37936  0.57679  0.40035  1.0000
  S   S118      1.0  0.39844  0.60673  0.39915  1.0000
  Fe  Fe62      1.0  0.38108  0.53072  0.39092  1.0000
  S   S119      1.0  0.40570  0.50772  0.37893  1.0000
  S   S120      1.0  0.34575  0.57468  0.41286  1.0000
  S   S121      1.0  0.34778  0.52473  0.40269  1.0000
  S   S122      1.0  0.42905  0.37057  0.44691  1.0000
  C   C814      1.0  0.46776  0.59017  0.41151  1.0000
  C   C815      1.0  0.45573  0.57444  0.40620  1.0000
  C   C816      1.0  0.43481  0.57975  0.40178  1.0000
  C   C817      1.0  0.42554  0.60069  0.40304  1.0000
  C   C818      1.0  0.43784  0.61670  0.40785  1.0000
  C   C819      1.0  0.45898  0.61145  0.41210  1.0000
  H   H645      1.0  0.46254  0.55803  0.40569  1.0000
  H   H646      1.0  0.42590  0.56763  0.39734  1.0000
  H   H647      1.0  0.43085  0.63303  0.40864  1.0000
  C   C820      1.0  0.48480  0.34508  0.44725  1.0000
  C   C821      1.0  0.35319  0.53637  0.46772  1.0000
  H   H648      1.0  0.34182  0.56798  0.45803  1.0000
  C   C822      1.0  0.15464  0.51367  0.30400  1.0000
  C   C823      1.0  0.39174  0.43587  0.38371  1.0000
  C   C824      1.0  0.37520  0.45137  0.38766  1.0000
  C   C825      1.0  0.37951  0.47341  0.38672  1.0000
  C   C826      1.0  0.40017  0.48011  0.38122  1.0000
  C   C827      1.0  0.41670  0.46460  0.37719  1.0000
  C   C828      1.0  0.41260  0.44246  0.37873  1.0000
  H   H649      1.0  0.35905  0.44631  0.39150  1.0000
  H   H650      1.0  0.36675  0.48524  0.38993  1.0000
  H   H651      1.0  0.43272  0.46972  0.37294  1.0000
  H   H652      1.0  0.42541  0.43055  0.37559  1.0000
  H   H653      1.0  0.26825  0.47855  0.25113  1.0000
  H   H654      1.0  0.12093  0.51275  0.31269  1.0000
  H   H655      1.0  0.27719  0.38020  0.34443  1.0000
  C   C829      1.0  0.30170  0.57294  0.32331  1.0000
  C   C830      1.0  0.32191  0.56763  0.32929  1.0000
  C   C831      1.0  0.32407  0.56539  0.34602  1.0000
  C   C832      1.0  0.30611  0.56899  0.35706  1.0000
  C   C833      1.0  0.28592  0.57466  0.35108  1.0000
  C   C834      1.0  0.28368  0.57654  0.33432  1.0000
  H   H656      1.0  0.33607  0.56519  0.32094  1.0000
  H   H657      1.0  0.33967  0.56092  0.35038  1.0000
  H   H658      1.0  0.27191  0.57747  0.35950  1.0000
  H   H659      1.0  0.26804  0.58071  0.32995  1.0000
  C   C835      1.0  0.18406  0.64622  0.27365  1.0000
  C   C836      1.0  0.35877  0.34059  0.27343  1.0000
  H   H660      1.0  0.37589  0.65916  0.47091  1.0000
  C   C837      1.0  0.13735  0.50800  0.31531  1.0000
  H   H661      1.0  0.18771  0.63948  0.24873  1.0000
  H   H662      1.0  0.40982  0.50869  0.43677  1.0000
  H   H663      1.0  0.48284  0.64195  0.47650  1.0000
  C   C838      1.0  0.42103  0.48310  0.42178  1.0000
  P   P32       1.0  0.37134  0.44242  0.45403  1.0000
  C   C839      1.0  0.25077  0.46534  0.23356  1.0000
  C   C840      1.0  0.44184  0.33564  0.25802  1.0000
  C   C841      1.0  0.25616  0.48201  0.24266  1.0000
  C   C842      1.0  0.24610  0.50304  0.24092  1.0000
  C   C843      1.0  0.43972  0.57048  0.44599  1.0000
  H   H664      1.0  0.38492  0.48613  0.45484  1.0000
  H   H665      1.0  0.48352  0.46545  0.38527  1.0000
  C   C844      1.0  0.34013  0.34270  0.30029  1.0000
  C   C845      1.0  0.19062  0.49172  0.26689  1.0000
  C   C846      1.0  0.46708  0.54096  0.36827  1.0000
  H   H666      1.0  0.46551  0.47340  0.45782  1.0000
  H   H667      1.0  0.48857  0.53622  0.44182  1.0000
  C   C847      1.0  0.39760  0.58656  0.45440  1.0000
  H   H668      1.0  0.43128  0.49328  0.41339  1.0000
  H   H669      1.0  0.37492  0.36220  0.30943  1.0000
  C   C848      1.0  0.49242  0.45080  0.43040  1.0000
  H   H670      1.0  0.20036  0.56627  0.24348  1.0000
  H   H671      1.0  0.45602  0.56462  0.44226  1.0000
  C   C849      1.0  0.47724  0.44022  0.42321  1.0000
  H   H672      1.0  0.49370  0.54950  0.35085  1.0000
  H   H673      1.0  0.46921  0.34360  0.44284  1.0000
  C   C850      1.0  0.32662  0.44600  0.45963  1.0000
  C   C851      1.0  0.30353  0.47452  0.44731  1.0000
  C   C852      1.0  0.32161  0.48338  0.43846  1.0000
  C   C853      1.0  0.20261  0.49233  0.28020  1.0000
  H   H674      1.0  0.23531  0.54579  0.33404  1.0000
  H   H675      1.0  0.41017  0.33502  0.32261  1.0000
  H   H676      1.0  0.22506  0.47390  0.29522  1.0000
  H   H677      1.0  0.38755  0.55752  0.44598  1.0000
  C   C854      1.0  0.38545  0.37491  0.33010  1.0000
  H   H678      1.0  0.42492  0.54351  0.43809  1.0000
  H   H679      1.0  0.25996  0.64795  0.23288  1.0000
  C   C855      1.0  0.37335  0.39687  0.45888  1.0000
  H   H680      1.0  0.36708  0.65224  0.27926  1.0000
  C   C856      1.0  0.39471  0.47896  0.44506  1.0000
  H   H681      1.0  0.23080  0.44348  0.27803  1.0000
  C   C857      1.0  0.43511  0.63960  0.45997  1.0000
  C   C858      1.0  0.40498  0.44855  0.42930  1.0000
  C   C859      1.0  0.21954  0.45695  0.27497  1.0000
  H   H682      1.0  0.49054  0.39039  0.41531  1.0000
  P   P33       1.0  0.19823  0.51470  0.29272  1.0000
  C   C860      1.0  0.17596  0.50775  0.30738  1.0000
  C   C861      1.0  0.22165  0.51961  0.30270  1.0000
  C   C862      1.0  0.21915  0.53090  0.31663  1.0000
  C   C863      1.0  0.23729  0.53662  0.32355  1.0000
  C   C864      1.0  0.25802  0.53128  0.31656  1.0000
  C   C865      1.0  0.26063  0.52004  0.30276  1.0000
  C   C866      1.0  0.24255  0.51435  0.29579  1.0000
  C   C867      1.0  0.17974  0.49550  0.32197  1.0000
  C   C868      1.0  0.16243  0.48985  0.33326  1.0000
  C   C869      1.0  0.19204  0.54023  0.28129  1.0000
  C   C870      1.0  0.18154  0.55751  0.28919  1.0000
  C   C871      1.0  0.17764  0.57767  0.28062  1.0000
  C   C872      1.0  0.18420  0.58077  0.26412  1.0000
  C   C873      1.0  0.19482  0.56374  0.25620  1.0000
  C   C874      1.0  0.19904  0.54366  0.26478  1.0000
  C   C875      1.0  0.45097  0.63521  0.47085  1.0000
  Fe  Fe63      1.0  0.43183  0.33917  0.38900  1.0000
  C   C876      1.0  0.39205  0.45749  0.44202  1.0000
  C   C877      1.0  0.48858  0.53934  0.36167  1.0000
  H   H683      1.0  0.17902  0.50481  0.26372  1.0000
  H   H684      1.0  0.20322  0.53588  0.32185  1.0000
  C   C878      1.0  0.47439  0.44536  0.40690  1.0000
  H   H685      1.0  0.27205  0.53645  0.32153  1.0000
  H   H686      1.0  0.27664  0.51646  0.29706  1.0000
  H   H687      1.0  0.24499  0.50654  0.28469  1.0000
  H   H688      1.0  0.19605  0.49028  0.32461  1.0000
  H   H689      1.0  0.31978  0.49812  0.43048  1.0000
  H   H690      1.0  0.17676  0.55559  0.30204  1.0000
  H   H691      1.0  0.17006  0.59118  0.28681  1.0000
  H   H692      1.0  0.18155  0.59658  0.25762  1.0000
  H   H693      1.0  0.31251  0.37252  0.27156  1.0000
  H   H694      1.0  0.20815  0.53105  0.25856  1.0000
  H   H695      1.0  0.38111  0.59280  0.45707  1.0000
  H   H696      1.0  0.30736  0.64722  0.33399  1.0000
  H   H697      1.0  0.42301  0.38790  0.47731  1.0000
  C   C879      1.0  0.48623  0.46147  0.39787  1.0000
  H   H698      1.0  0.46793  0.33463  0.23908  1.0000
  C   C880      1.0  0.36501  0.63124  0.26067  1.0000
  C   C881      1.0  0.35280  0.61627  0.25465  1.0000
  C   C882      1.0  0.33313  0.61047  0.26293  1.0000
  C   C883      1.0  0.32528  0.62017  0.27692  1.0000
  C   C884      1.0  0.33697  0.63592  0.28267  1.0000
  C   C885      1.0  0.35733  0.64074  0.27479  1.0000
  C   C886      1.0  0.26189  0.63632  0.30820  1.0000
  P   P34       1.0  0.32602  0.64938  0.30019  1.0000
  C   C887      1.0  0.33385  0.63394  0.31842  1.0000
  C   C888      1.0  0.32169  0.63638  0.33330  1.0000
  C   C889      1.0  0.32785  0.62468  0.34744  1.0000
  C   C890      1.0  0.34634  0.61071  0.34689  1.0000
  C   C891      1.0  0.35852  0.60815  0.33216  1.0000
  C   C892      1.0  0.35231  0.61967  0.31795  1.0000
  H   H699      1.0  0.48277  0.34338  0.30417  1.0000
  H   H700      1.0  0.35585  0.48084  0.43310  1.0000
  H   H701      1.0  0.49516  0.44631  0.44288  1.0000
  H   H702      1.0  0.37567  0.36194  0.46214  1.0000
  C   C893      1.0  0.37219  0.36261  0.32239  1.0000
  H   H703      1.0  0.34094  0.34223  0.35558  1.0000
  H   H704      1.0  0.46976  0.50379  0.43683  1.0000
  Fe  Fe64      1.0  0.43238  0.36217  0.42062  1.0000
  C   C894      1.0  0.43624  0.59044  0.45250  1.0000
  S   S123      1.0  0.40587  0.35468  0.40577  1.0000
  H   H705      1.0  0.29143  0.64725  0.25321  1.0000
  H   H706      1.0  0.38023  0.63580  0.25419  1.0000
  C   C895      1.0  0.30440  0.33936  0.23682  1.0000
  H   H707      1.0  0.32362  0.59893  0.25824  1.0000
  H   H708      1.0  0.36469  0.36381  0.36900  1.0000
  C   C896      1.0  0.48664  0.52286  0.45120  1.0000
  C   C897      1.0  0.47378  0.48727  0.46040  1.0000
  H   H709      1.0  0.31815  0.62612  0.35884  1.0000
  H   H710      1.0  0.35089  0.60148  0.35786  1.0000
  H   H711      1.0  0.37257  0.59692  0.33177  1.0000
  C   C898      1.0  0.31047  0.64054  0.23116  1.0000
  H   H712      1.0  0.46817  0.62365  0.41628  1.0000
  C   C899      1.0  0.28436  0.63502  0.30847  1.0000
  S   S124      1.0  0.45797  0.34363  0.40541  1.0000
  C   C900      1.0  0.34222  0.47359  0.44016  1.0000
  H   H713      1.0  0.29193  0.62085  0.31475  1.0000
  C   C901      1.0  0.23053  0.50713  0.22984  1.0000
  C   C902      1.0  0.17892  0.64910  0.25760  1.0000
  H   H714      1.0  0.25241  0.62338  0.31434  1.0000
  C   C903      1.0  0.35602  0.35065  0.33145  1.0000
  C   C904      1.0  0.14124  0.49617  0.32996  1.0000
  H   H715      1.0  0.15134  0.52262  0.29262  1.0000
  C   C905      1.0  0.46050  0.52815  0.38236  1.0000
  H   H716      1.0  0.39976  0.62376  0.43020  1.0000
  H   H717      1.0  0.35840  0.60932  0.24348  1.0000
  C   C906      1.0  0.25177  0.65366  0.29934  1.0000
  H   H718      1.0  0.47761  0.39278  0.45416  1.0000
  P   P35       1.0  0.41027  0.62561  0.46338  1.0000
  H   H719      1.0  0.43888  0.53681  0.47213  1.0000
  C   C907      1.0  0.40895  0.49178  0.43487  1.0000
  H   H720      1.0  0.16543  0.48053  0.34456  1.0000
  H   H721      1.0  0.31020  0.36270  0.30098  1.0000
  H   H722      1.0  0.44428  0.41458  0.46127  1.0000
  C   C908      1.0  0.42221  0.55861  0.44362  1.0000
  C   C909      1.0  0.20834  0.45700  0.26129  1.0000
  H   H723      1.0  0.36384  0.42661  0.42345  1.0000
  C   C910      1.0  0.40118  0.56655  0.44798  1.0000
  H   H724      1.0  0.30993  0.61555  0.28305  1.0000
  H   H725      1.0  0.41905  0.33375  0.27925  1.0000
  C   C911      1.0  0.34492  0.45508  0.45105  1.0000
  C   C912      1.0  0.47541  0.51383  0.38994  1.0000
  C   C913      1.0  0.47609  0.50458  0.44839  1.0000
  C   C914      1.0  0.30601  0.45574  0.45780  1.0000
  H   H726      1.0  0.41854  0.33941  0.35053  1.0000
  C   C915      1.0  0.26876  0.34707  0.34433  1.0000
  C   C916      1.0  0.41511  0.59870  0.45674  1.0000
  C   C917      1.0  0.38977  0.63975  0.45183  1.0000
  C   C918      1.0  0.21646  0.47438  0.28454  1.0000
  C   C919      1.0  0.30448  0.65233  0.24447  1.0000
  H   H727      1.0  0.12783  0.49179  0.33871  1.0000
  H   H728      1.0  0.32836  0.43152  0.46789  1.0000
  H   H729      1.0  0.45014  0.59959  0.45356  1.0000
  C   C920      1.0  0.47053  0.64544  0.46814  1.0000
  H   H730      1.0  0.22965  0.65039  0.25421  1.0000
  H   H731      1.0  0.39816  0.38379  0.32310  1.0000
  H   H732      1.0  0.39325  0.38439  0.35294  1.0000
  C   C921      1.0  0.36631  0.41264  0.43207  1.0000
  C   C922      1.0  0.29688  0.65145  0.30026  1.0000
  H   H733      1.0  0.17589  0.65700  0.29738  1.0000
  H   H734      1.0  0.47135  0.35227  0.47099  1.0000
  C   C923      1.0  0.47805  0.40569  0.46196  1.0000
  C   C924      1.0  0.34550  0.55789  0.46884  1.0000
  H   H735      1.0  0.44382  0.52951  0.38748  1.0000
  H   H736      1.0  0.46814  0.42753  0.43008  1.0000
  S   S125      1.0  0.27899  0.35363  0.23925  1.0000
  C   C925      1.0  0.45966  0.43541  0.47544  1.0000
  H   H737      1.0  0.21114  0.44376  0.25362  1.0000
  H   H738      1.0  0.47001  0.50453  0.40108  1.0000
  C   C926      1.0  0.45917  0.41815  0.46593  1.0000
  H   H739      1.0  0.25862  0.44931  0.23517  1.0000
  C   C927      1.0  0.36568  0.39186  0.42707  1.0000
  H   H740      1.0  0.45549  0.55226  0.36258  1.0000
  C   C928      1.0  0.36852  0.43868  0.34528  1.0000
  C   C929      1.0  0.39105  0.43798  0.34293  1.0000
  C   C930      1.0  0.40159  0.45607  0.33553  1.0000
  C   C931      1.0  0.38963  0.47500  0.33061  1.0000
  C   C932      1.0  0.36697  0.47603  0.33327  1.0000
  C   C933      1.0  0.35648  0.45758  0.34037  1.0000
  P   P36       1.0  0.35142  0.50102  0.32824  1.0000
  C   C934      1.0  0.36932  0.52311  0.32715  1.0000
  C   C935      1.0  0.33920  0.50028  0.30950  1.0000
  C   C936      1.0  0.32997  0.51937  0.30186  1.0000
  C   C937      1.0  0.32050  0.51897  0.28744  1.0000
  C   C938      1.0  0.31986  0.49943  0.28055  1.0000
  C   C939      1.0  0.32893  0.48031  0.28804  1.0000
  C   C940      1.0  0.33861  0.48070  0.30244  1.0000
  C   C941      1.0  0.37808  0.52794  0.34116  1.0000
  C   C942      1.0  0.39310  0.54389  0.34033  1.0000
  C   C943      1.0  0.39924  0.55549  0.32559  1.0000
  C   C944      1.0  0.39073  0.55078  0.31156  1.0000
  C   C945      1.0  0.37614  0.53441  0.31227  1.0000
  C   C946      1.0  0.33086  0.50463  0.34482  1.0000
  C   C947      1.0  0.31044  0.51448  0.34209  1.0000
  C   C948      1.0  0.29489  0.51756  0.35505  1.0000
  C   C949      1.0  0.29953  0.51079  0.37083  1.0000
  C   C950      1.0  0.31962  0.50060  0.37365  1.0000
  C   C951      1.0  0.33526  0.49765  0.36074  1.0000
  H   H741      1.0  0.36049  0.42476  0.35141  1.0000
  H   H742      1.0  0.40038  0.42362  0.34728  1.0000
  H   H743      1.0  0.41909  0.45561  0.33403  1.0000
  H   H744      1.0  0.39819  0.48892  0.32516  1.0000
  H   H745      1.0  0.33903  0.45801  0.34257  1.0000
  H   H746      1.0  0.33007  0.53466  0.30704  1.0000
  H   H747      1.0  0.31340  0.53386  0.28172  1.0000
  H   H748      1.0  0.31225  0.49916  0.26944  1.0000
  H   H749      1.0  0.32845  0.46516  0.28267  1.0000
  H   H750      1.0  0.34557  0.46572  0.30798  1.0000
  H   H751      1.0  0.37381  0.51905  0.35273  1.0000
  H   H752      1.0  0.40020  0.54701  0.35115  1.0000
  H   H753      1.0  0.41080  0.56793  0.32504  1.0000
  H   H754      1.0  0.39567  0.55958  0.30008  1.0000
  H   H755      1.0  0.37057  0.53050  0.30112  1.0000
  H   H756      1.0  0.30655  0.52037  0.33010  1.0000
  H   H757      1.0  0.27949  0.52593  0.35293  1.0000
  H   H758      1.0  0.28776  0.51394  0.38089  1.0000
  H   H759      1.0  0.32323  0.49537  0.38588  1.0000
  H   H760      1.0  0.35086  0.49007  0.36324  1.0000
  C   C952      1.0  0.38861  0.63556  0.43575  1.0000
  H   H761      1.0  0.40385  0.43189  0.42682  1.0000
  C   C953      1.0  0.19376  0.47429  0.25732  1.0000
  C   C954      1.0  0.41929  0.46140  0.41919  1.0000
  C   C955      1.0  0.37283  0.64639  0.42670  1.0000
  H   H762      1.0  0.40656  0.42281  0.47182  1.0000
  H   H763      1.0  0.18520  0.47431  0.24665  1.0000
  C   C956      1.0  0.37525  0.65541  0.45860  1.0000
  H   H764      1.0  0.36898  0.35750  0.43394  1.0000
  H   H765      1.0  0.36184  0.61731  0.30665  1.0000
  C   C957      1.0  0.48216  0.48799  0.47536  1.0000
  C   C958      1.0  0.47447  0.65996  0.45445  1.0000
  C   C959      1.0  0.32525  0.36231  0.27685  1.0000
  C   C960      1.0  0.34273  0.35449  0.26683  1.0000
  H   H766      1.0  0.34349  0.35861  0.25387  1.0000
  C   C961      1.0  0.35323  0.35138  0.34831  1.0000
  H   H767      1.0  0.29199  0.44885  0.46464  1.0000
  C   C962      1.0  0.30393  0.36022  0.33463  1.0000
  C   C963      1.0  0.36659  0.36358  0.35597  1.0000
  C   C964      1.0  0.28275  0.36405  0.34142  1.0000
  H   H768      1.0  0.37193  0.64272  0.41435  1.0000
  C   C965      1.0  0.47515  0.33740  0.32980  1.0000
  H   H769      1.0  0.25236  0.35004  0.34960  1.0000
  C   C966      1.0  0.37698  0.44265  0.47483  1.0000
  S   S126      1.0  0.49288  0.58192  0.41854  1.0000
  C   C967      1.0  0.37063  0.41533  0.44793  1.0000
  H   H770      1.0  0.31456  0.37357  0.33237  1.0000
  C   C968      1.0  0.38272  0.37529  0.34688  1.0000
  C   C969      1.0  0.35821  0.66169  0.43357  1.0000
  C   C970      1.0  0.36901  0.37360  0.43791  1.0000
  C   C971      1.0  0.42807  0.35747  0.46681  1.0000
  C   C972      1.0  0.32395  0.35653  0.29353  1.0000
  C   C973      1.0  0.48599  0.34995  0.46309  1.0000
  H   H771      1.0  0.47275  0.35443  0.33174  1.0000
  C   C974      1.0  0.43932  0.65396  0.44610  1.0000
  H   H772      1.0  0.42768  0.65714  0.43725  1.0000
  C   C975      1.0  0.49464  0.52393  0.46612  1.0000
  H   H773      1.0  0.37603  0.39822  0.47130  1.0000
  H   H774      1.0  0.43005  0.34289  0.25010  1.0000
  H   H775      1.0  0.23444  0.65411  0.29862  1.0000
  C   C976      1.0  0.43094  0.33496  0.47019  1.0000
  C   C977      1.0  0.48085  0.33106  0.31425  1.0000
  H   H776      1.0  0.37192  0.33388  0.26556  1.0000
  H   H777      1.0  0.44491  0.44518  0.47810  1.0000
  C   C978      1.0  0.31130  0.33933  0.33072  1.0000
  C   C979      1.0  0.46312  0.33091  0.25182  1.0000
  C   C980      1.0  0.16196  0.66411  0.25305  1.0000
  C   C981      1.0  0.49230  0.50667  0.47819  1.0000
  H   H778      1.0  0.47973  0.66248  0.28565  1.0000
  H   H779      1.0  0.23854  0.33241  0.23966  1.0000
  C   C982      1.0  0.35749  0.33476  0.29007  1.0000
  S   S127      1.0  0.49479  0.38718  0.38043  1.0000
  C   C983      1.0  0.25359  0.66371  0.23626  1.0000
  P   P37       1.0  0.33862  0.33466  0.32179  1.0000
  Fe  Fe65      1.0  0.22401  0.62221  0.70081  1.0000
  H   H780      1.0  0.42685  0.50879  0.55772  1.0000
  Fe  Fe66      1.0  0.26587  0.59573  0.68864  1.0000
  S   S128      1.0  0.26819  0.57730  0.71317  1.0000
  S   S129      1.0  0.29460  0.58660  0.67067  1.0000
  H   H781      1.0  0.46082  0.34045  0.63421  1.0000
  C   C984      1.0  0.48087  0.44628  0.57571  1.0000
  S   S130      1.0  0.23035  0.59100  0.68839  1.0000
  S   S131      1.0  0.25973  0.62809  0.69891  1.0000
  C   C985      1.0  0.38015  0.55559  0.65478  1.0000
  S   S132      1.0  0.43794  0.38704  0.57403  1.0000
  Fe  Fe67      1.0  0.43224  0.34960  0.53965  1.0000
  S   S133      1.0  0.43550  0.38537  0.53488  1.0000
  P   P38       1.0  0.46407  0.56418  0.52037  1.0000
  Fe  Fe68      1.0  0.46090  0.38143  0.55223  1.0000
  Fe  Fe69      1.0  0.41220  0.38803  0.55685  1.0000
  S   S134      1.0  0.38511  0.41347  0.55326  1.0000
  S   S135      1.0  0.40690  0.35212  0.56077  1.0000
  Fe  Fe70      1.0  0.33736  0.56895  0.57776  1.0000
  S   S136      1.0  0.37143  0.56239  0.58425  1.0000
  S   S137      1.0  0.30875  0.58239  0.59403  1.0000
  Fe  Fe71      1.0  0.34952  0.55716  0.54236  1.0000
  S   S138      1.0  0.38416  0.54915  0.54675  1.0000
  S   S139      1.0  0.33757  0.56352  0.51723  1.0000
  Fe  Fe72      1.0  0.37114  0.53294  0.57061  1.0000
  S   S140      1.0  0.38924  0.50363  0.58194  1.0000
  Fe  Fe73      1.0  0.38175  0.57908  0.55988  1.0000
  S   S141      1.0  0.40798  0.60246  0.55243  1.0000
  S   S142      1.0  0.33621  0.53823  0.56544  1.0000
  S   S143      1.0  0.34783  0.58826  0.55430  1.0000
  S   S144      1.0  0.47295  0.61450  0.60398  1.0000
  C   C986      1.0  0.42590  0.60559  0.56689  1.0000
  C   C987      1.0  0.44465  0.61676  0.56225  1.0000
  C   C988      1.0  0.45948  0.61904  0.57348  1.0000
  C   C989      1.0  0.45508  0.61094  0.58960  1.0000
  C   C990      1.0  0.43609  0.60011  0.59434  1.0000
  C   C991      1.0  0.42172  0.59712  0.58291  1.0000
  H   H782      1.0  0.44769  0.62357  0.54993  1.0000
  H   H783      1.0  0.47405  0.62753  0.56975  1.0000
  H   H784      1.0  0.40730  0.58851  0.58641  1.0000
  C   C992      1.0  0.34550  0.55304  0.49834  1.0000
  C   C993      1.0  0.49009  0.55186  0.51363  1.0000
  Fe  Fe74      1.0  0.43448  0.35075  0.57653  1.0000
  P   P39       1.0  0.48031  0.46513  0.49071  1.0000
  C   C994      1.0  0.35418  0.53181  0.49717  1.0000
  H   H785      1.0  0.12728  0.66071  0.71879  1.0000
  H   H786      1.0  0.35717  0.52153  0.50804  1.0000
  C   C995      1.0  0.38707  0.43882  0.56064  1.0000
  C   C996      1.0  0.37174  0.45572  0.55700  1.0000
  C   C997      1.0  0.37263  0.47596  0.56308  1.0000
  C   C998      1.0  0.38866  0.47918  0.57306  1.0000
  C   C999      1.0  0.40422  0.46243  0.57643  1.0000
  C   C1000     1.0  0.40354  0.44235  0.57013  1.0000
  H   H787      1.0  0.35901  0.45309  0.54961  1.0000
  H   H788      1.0  0.36058  0.48883  0.56043  1.0000
  H   H789      1.0  0.41667  0.46489  0.58412  1.0000
  H   H790      1.0  0.41541  0.42947  0.57297  1.0000
  H   H791      1.0  0.18609  0.58950  0.71053  1.0000
  H   H792      1.0  0.45121  0.55854  0.61946  1.0000
  H   H793      1.0  0.34337  0.61425  0.58216  1.0000
  C   C1001     1.0  0.39552  0.43127  0.48020  1.0000
  C   C1002     1.0  0.29795  0.58531  0.64937  1.0000
  C   C1003     1.0  0.28191  0.59313  0.63939  1.0000
  C   C1004     1.0  0.28551  0.59214  0.62252  1.0000
  C   C1005     1.0  0.30502  0.58297  0.61543  1.0000
  C   C1006     1.0  0.32092  0.57486  0.62547  1.0000
  C   C1007     1.0  0.31747  0.57622  0.64230  1.0000
  H   H794      1.0  0.26684  0.60006  0.64471  1.0000
  H   H795      1.0  0.27310  0.59854  0.61490  1.0000
  H   H796      1.0  0.33600  0.56777  0.62023  1.0000
  H   H797      1.0  0.32996  0.57009  0.64991  1.0000
  H   H798      1.0  0.44217  0.64232  0.50975  1.0000
  H   H799      1.0  0.48641  0.36908  0.51851  1.0000
  H   H800      1.0  0.37788  0.62366  0.52978  1.0000
  C   C1008     1.0  0.41231  0.54723  0.48856  1.0000
  H   H801      1.0  0.12797  0.56237  0.70014  1.0000
  C   C1009     1.0  0.40624  0.55642  0.50304  1.0000
  C   C1010     1.0  0.43875  0.53318  0.57060  1.0000
  H   H802      1.0  0.41703  0.56979  0.52343  1.0000
  H   H803      1.0  0.30522  0.33479  0.70549  1.0000
  C   C1011     1.0  0.16040  0.65725  0.70837  1.0000
  C   C1012     1.0  0.45484  0.55192  0.54019  1.0000
  C   C1013     1.0  0.12602  0.64484  0.67574  1.0000
  H   H804      1.0  0.46650  0.57624  0.55369  1.0000
  Fe  Fe75      1.0  0.25945  0.60939  0.72323  1.0000
  C   C1014     1.0  0.45001  0.55018  0.49248  1.0000
  H   H805      1.0  0.43942  0.52251  0.61426  1.0000
  H   H806      1.0  0.38926  0.55871  0.50720  1.0000
  C   C1015     1.0  0.31600  0.63917  0.66702  1.0000
  C   C1016     1.0  0.37327  0.62532  0.61209  1.0000
  H   H807      1.0  0.38420  0.59441  0.48516  1.0000
  C   C1017     1.0  0.44410  0.53248  0.54160  1.0000
  S   S145      1.0  0.49059  0.39977  0.54317  1.0000
  H   H808      1.0  0.42520  0.43940  0.53395  1.0000
  C   C1018     1.0  0.45128  0.60831  0.51448  1.0000
  C   C1019     1.0  0.46658  0.59302  0.52085  1.0000
  C   C1020     1.0  0.44402  0.55922  0.50713  1.0000
  H   H809      1.0  0.29822  0.64044  0.64614  1.0000
  C   C1021     1.0  0.38831  0.57682  0.62394  1.0000
  H   H810      1.0  0.39971  0.65145  0.57868  1.0000
  H   H811      1.0  0.46679  0.54751  0.48822  1.0000
  H   H812      1.0  0.47438  0.34131  0.50252  1.0000
  H   H813      1.0  0.12351  0.63102  0.68452  1.0000
  S   S146      1.0  0.21622  0.54122  0.71998  1.0000
  C   C1022     1.0  0.46872  0.34177  0.64507  1.0000
  H   H814      1.0  0.49161  0.64070  0.69107  1.0000
  C   C1023     1.0  0.45024  0.55197  0.56939  1.0000
  C   C1024     1.0  0.45826  0.56135  0.55426  1.0000
  C   C1025     1.0  0.49203  0.64874  0.67896  1.0000
  H   H815      1.0  0.45327  0.34578  0.69734  1.0000
  C   C1026     1.0  0.35727  0.61651  0.60442  1.0000
  H   H816      1.0  0.44151  0.52471  0.53099  1.0000
  H   H817      1.0  0.24561  0.63557  0.64003  1.0000
  C   C1027     1.0  0.41945  0.61921  0.63772  1.0000
  H   H818      1.0  0.18427  0.65432  0.66401  1.0000
  C   C1028     1.0  0.33193  0.63169  0.64034  1.0000
  C   C1029     1.0  0.46991  0.51295  0.60163  1.0000
  C   C1030     1.0  0.14063  0.57358  0.69679  1.0000
  H   H819      1.0  0.45757  0.43484  0.51470  1.0000
  C   C1031     1.0  0.21562  0.64708  0.65224  1.0000
  H   H820      1.0  0.48625  0.45640  0.52580  1.0000
  C   C1032     1.0  0.44412  0.48831  0.50442  1.0000
  H   H821      1.0  0.48409  0.34839  0.59097  1.0000
  H   H822      1.0  0.41629  0.50605  0.51522  1.0000
  H   H823      1.0  0.36370  0.50678  0.48121  1.0000
  C   C1033     1.0  0.47921  0.65973  0.72202  1.0000
  H   H824      1.0  0.42394  0.37198  0.50545  1.0000
  H   H825      1.0  0.34595  0.60584  0.61118  1.0000
  C   C1034     1.0  0.38797  0.60747  0.49186  1.0000
  H   H826      1.0  0.48298  0.50653  0.55864  1.0000
  C   C1035     1.0  0.37989  0.60728  0.50811  1.0000
  C   C1036     1.0  0.47924  0.44063  0.48078  1.0000
  C   C1037     1.0  0.19392  0.64310  0.65673  1.0000
  S   S147      1.0  0.45951  0.34524  0.55559  1.0000
  C   C1038     1.0  0.33612  0.63496  0.67303  1.0000
  S   S148      1.0  0.22368  0.60457  0.72571  1.0000
  H   H827      1.0  0.38191  0.66097  0.64331  1.0000
  H   H828      1.0  0.42204  0.35300  0.71701  1.0000
  H   H829      1.0  0.36899  0.58671  0.66229  1.0000
  H   H830      1.0  0.43168  0.52640  0.58223  1.0000
  H   H831      1.0  0.39893  0.54533  0.61645  1.0000
  H   H832      1.0  0.15763  0.56342  0.71781  1.0000
  C   C1039     1.0  0.45590  0.46825  0.50414  1.0000
  H   H833      1.0  0.46449  0.49733  0.59949  1.0000
  H   H834      1.0  0.34942  0.46413  0.48180  1.0000
  C   C1040     1.0  0.41894  0.47309  0.52592  1.0000
  C   C1041     1.0  0.49321  0.46020  0.58275  1.0000
  C   C1042     1.0  0.48322  0.55334  0.60776  1.0000
  H   H835      1.0  0.28346  0.43365  0.62865  1.0000
  C   C1043     1.0  0.44878  0.45053  0.51470  1.0000
  H   H836      1.0  0.23045  0.60255  0.63225  1.0000
  C   C1044     1.0  0.48832  0.34555  0.67330  1.0000
  Fe  Fe76      1.0  0.23258  0.57372  0.71351  1.0000
  H   H837      1.0  0.19679  0.49983  0.72472  1.0000
  C   C1045     1.0  0.37987  0.58885  0.63674  1.0000
  C   C1046     1.0  0.22873  0.63255  0.64333  1.0000
  H   H838      1.0  0.15619  0.66173  0.64097  1.0000
  H   H839      1.0  0.40469  0.47497  0.53434  1.0000
  C   C1047     1.0  0.46961  0.45395  0.56247  1.0000
  H   H840      1.0  0.46136  0.48170  0.54628  1.0000
  C   C1048     1.0  0.49454  0.48199  0.57646  1.0000
  C   C1049     1.0  0.42558  0.49063  0.51518  1.0000
  H   H841      1.0  0.44911  0.50215  0.49636  1.0000
  C   C1050     1.0  0.37572  0.57801  0.65220  1.0000
  C   C1051     1.0  0.44567  0.33226  0.70434  1.0000
  C   C1052     1.0  0.39267  0.55443  0.62651  1.0000
  C   C1053     1.0  0.49090  0.51897  0.59607  1.0000
  C   C1054     1.0  0.35600  0.62099  0.58783  1.0000
  C   C1055     1.0  0.42609  0.36156  0.49576  1.0000
  C   C1056     1.0  0.31394  0.63765  0.65069  1.0000
  C   C1057     1.0  0.17336  0.58892  0.70266  1.0000
  C   C1058     1.0  0.39906  0.63032  0.63885  1.0000
  C   C1059     1.0  0.36326  0.45430  0.48573  1.0000
  C   C1060     1.0  0.42798  0.33644  0.71554  1.0000
  C   C1061     1.0  0.43052  0.45305  0.52568  1.0000
  C   C1062     1.0  0.45389  0.63054  0.51465  1.0000
  H   H842      1.0  0.39159  0.58473  0.61194  1.0000
  H   H843      1.0  0.47988  0.42950  0.58060  1.0000
  C   C1063     1.0  0.45566  0.52715  0.61010  1.0000
  C   C1064     1.0  0.48414  0.60039  0.52769  1.0000
  C   C1065     1.0  0.39936  0.43005  0.49650  1.0000
  C   C1066     1.0  0.38505  0.44079  0.50743  1.0000
  C   C1067     1.0  0.36727  0.45327  0.50198  1.0000
  H   H844      1.0  0.48792  0.52330  0.53076  1.0000
  C   C1068     1.0  0.43591  0.52329  0.55673  1.0000
  C   C1069     1.0  0.38852  0.63815  0.60266  1.0000
  H   H845      1.0  0.29696  0.64156  0.71535  1.0000
  H   H846      1.0  0.32962  0.63044  0.62786  1.0000
  H   H847      1.0  0.46004  0.44304  0.55712  1.0000
  H   H848      1.0  0.36025  0.33622  0.58166  1.0000
  H   H849      1.0  0.41317  0.42043  0.50075  1.0000
  H   H850      1.0  0.38762  0.43937  0.52015  1.0000
  H   H851      1.0  0.35642  0.46193  0.51042  1.0000
  C   C1070     1.0  0.42200  0.56261  0.51222  1.0000
  H   H852      1.0  0.37018  0.59423  0.51372  1.0000
  C   C1071     1.0  0.30239  0.64795  0.72574  1.0000
  C   C1072     1.0  0.35222  0.62705  0.64629  1.0000
  C   C1073     1.0  0.38878  0.54384  0.64197  1.0000
  H   H853      1.0  0.29417  0.46886  0.63574  1.0000
  C   C1074     1.0  0.39617  0.64114  0.50995  1.0000
  H   H854      1.0  0.45239  0.55974  0.58013  1.0000
  H   H855      1.0  0.37674  0.54734  0.66672  1.0000
  H   H856      1.0  0.39211  0.52646  0.64396  1.0000
  C   C1075     1.0  0.35416  0.62896  0.66273  1.0000
  C   C1076     1.0  0.48618  0.62258  0.52836  1.0000
  S   S149      1.0  0.20314  0.65347  0.69393  1.0000
  H   H857      1.0  0.30189  0.64315  0.67510  1.0000
  C   C1077     1.0  0.47050  0.47568  0.55632  1.0000
  H   H858      1.0  0.33758  0.63592  0.68576  1.0000
  P   P40       1.0  0.15734  0.61878  0.65915  1.0000
  C   C1078     1.0  0.15705  0.60166  0.67798  1.0000
  C   C1079     1.0  0.14620  0.60463  0.64423  1.0000
  C   C1080     1.0  0.15084  0.58223  0.64359  1.0000
  C   C1081     1.0  0.14235  0.57119  0.63206  1.0000
  C   C1082     1.0  0.12918  0.58241  0.62105  1.0000
  C   C1083     1.0  0.12450  0.60468  0.62158  1.0000
  C   C1084     1.0  0.13296  0.61578  0.63312  1.0000
  C   C1085     1.0  0.17325  0.60267  0.68836  1.0000
  H   H859      1.0  0.44836  0.62354  0.48125  1.0000
  C   C1086     1.0  0.47136  0.63767  0.52153  1.0000
  H   H860      1.0  0.47316  0.65487  0.52193  1.0000
  C   C1087     1.0  0.14045  0.58732  0.68247  1.0000
  C   C1088     1.0  0.18510  0.62448  0.65242  1.0000
  H   H861      1.0  0.46304  0.65616  0.71980  1.0000
  C   C1089     1.0  0.48288  0.48965  0.56329  1.0000
  H   H862      1.0  0.39291  0.33122  0.60527  1.0000
  C   C1090     1.0  0.22014  0.61395  0.63896  1.0000
  C   C1091     1.0  0.19843  0.60986  0.64353  1.0000
  H   H863      1.0  0.43727  0.60329  0.50947  1.0000
  C   C1092     1.0  0.38409  0.62400  0.51716  1.0000
  C   C1093     1.0  0.42935  0.33916  0.49922  1.0000
  H   H864      1.0  0.16293  0.64079  0.71370  1.0000
  H   H865      1.0  0.42135  0.60286  0.63414  1.0000
  H   H866      1.0  0.16103  0.57329  0.65204  1.0000
  H   H867      1.0  0.14593  0.55391  0.63167  1.0000
  H   H868      1.0  0.12258  0.57385  0.61212  1.0000
  C   C1094     1.0  0.40420  0.64148  0.49369  1.0000
  H   H869      1.0  0.43265  0.59377  0.60676  1.0000
  H   H870      1.0  0.18584  0.61403  0.68546  1.0000
  C   C1095     1.0  0.15722  0.57424  0.70681  1.0000
  C   C1096     1.0  0.46227  0.54740  0.61307  1.0000
  C   C1097     1.0  0.47952  0.36038  0.64665  1.0000
  H   H871      1.0  0.12738  0.58673  0.67493  1.0000
  H   H872      1.0  0.37073  0.63640  0.56559  1.0000
  C   C1098     1.0  0.37123  0.63365  0.57856  1.0000
  H   H873      1.0  0.45360  0.62104  0.63923  1.0000
  P   P41       1.0  0.37561  0.61803  0.63343  1.0000
  H   H874      1.0  0.19228  0.59518  0.64031  1.0000
  C   C1099     1.0  0.33817  0.52223  0.63267  1.0000
  C   C1100     1.0  0.34667  0.51553  0.61773  1.0000
  C   C1101     1.0  0.33305  0.50783  0.60754  1.0000
  C   C1102     1.0  0.31091  0.50694  0.61224  1.0000
  C   C1103     1.0  0.30223  0.51372  0.62724  1.0000
  C   C1104     1.0  0.31605  0.52143  0.63740  1.0000
  P   P42       1.0  0.27356  0.51254  0.63311  1.0000
  C   C1105     1.0  0.26778  0.51449  0.65459  1.0000
  C   C1106     1.0  0.25864  0.53468  0.62270  1.0000
  C   C1107     1.0  0.23770  0.54110  0.62901  1.0000
  C   C1108     1.0  0.22585  0.55799  0.62094  1.0000
  C   C1109     1.0  0.23485  0.56866  0.60656  1.0000
  C   C1110     1.0  0.25564  0.56236  0.60022  1.0000
  C   C1111     1.0  0.26752  0.54546  0.60823  1.0000
  C   C1112     1.0  0.26791  0.53476  0.66072  1.0000
  C   C1113     1.0  0.26306  0.53671  0.67722  1.0000
  C   C1114     1.0  0.25782  0.51852  0.68775  1.0000
  C   C1115     1.0  0.25758  0.49828  0.68179  1.0000
  C   C1116     1.0  0.26258  0.49621  0.66527  1.0000
  C   C1117     1.0  0.26542  0.48683  0.62802  1.0000
  C   C1118     1.0  0.24576  0.48529  0.62144  1.0000
  C   C1119     1.0  0.23977  0.46526  0.61748  1.0000
  C   C1120     1.0  0.25333  0.44666  0.62008  1.0000
  C   C1121     1.0  0.27291  0.44806  0.62665  1.0000
  C   C1122     1.0  0.27895  0.46805  0.63062  1.0000
  H   H875      1.0  0.34855  0.52849  0.64051  1.0000
  H   H876      1.0  0.36378  0.51641  0.61393  1.0000
  H   H877      1.0  0.33971  0.50267  0.59594  1.0000
  H   H878      1.0  0.30056  0.50112  0.60411  1.0000
  H   H879      1.0  0.30989  0.52708  0.64891  1.0000
  H   H880      1.0  0.23052  0.53304  0.64018  1.0000
  H   H881      1.0  0.20975  0.56286  0.62589  1.0000
  H   H882      1.0  0.22583  0.58191  0.60036  1.0000
  H   H883      1.0  0.26290  0.57087  0.58923  1.0000
  H   H884      1.0  0.28374  0.54128  0.60317  1.0000
  H   H885      1.0  0.27185  0.54908  0.65275  1.0000
  H   H886      1.0  0.26338  0.55238  0.68187  1.0000
  H   H887      1.0  0.25389  0.52016  0.70053  1.0000
  H   H888      1.0  0.25341  0.48424  0.69003  1.0000
  H   H889      1.0  0.26219  0.48038  0.66098  1.0000
  H   H890      1.0  0.23505  0.49948  0.61927  1.0000
  H   H891      1.0  0.22461  0.46417  0.61236  1.0000
  H   H892      1.0  0.24870  0.43116  0.61697  1.0000
  C   C1123     1.0  0.14158  0.64376  0.66243  1.0000
  H   H893      1.0  0.12906  0.63300  0.63329  1.0000
  C   C1124     1.0  0.49492  0.33469  0.58791  1.0000
  H   H894      1.0  0.40001  0.54259  0.48143  1.0000
  H   H895      1.0  0.22235  0.66119  0.65611  1.0000
  H   H896      1.0  0.11427  0.61339  0.61306  1.0000
  H   H897      1.0  0.49293  0.38771  0.57763  1.0000
  H   H898      1.0  0.36954  0.62543  0.66769  1.0000
  H   H899      1.0  0.33465  0.58247  0.48485  1.0000
  H   H900      1.0  0.48014  0.37339  0.63698  1.0000
  C   C1125     1.0  0.49333  0.35258  0.51986  1.0000
  C   C1126     1.0  0.42545  0.37058  0.47972  1.0000
  C   C1127     1.0  0.43781  0.62947  0.64066  1.0000
  C   C1128     1.0  0.38750  0.64220  0.58597  1.0000
  C   C1129     1.0  0.34147  0.56607  0.48407  1.0000
  C   C1130     1.0  0.48928  0.36229  0.66078  1.0000
  H   H901      1.0  0.39927  0.65414  0.51703  1.0000
  C   C1131     1.0  0.48661  0.33697  0.51081  1.0000
  C   C1132     1.0  0.35777  0.52346  0.48194  1.0000
  C   C1133     1.0  0.40044  0.62447  0.48455  1.0000
  H   H902      1.0  0.41319  0.65514  0.48823  1.0000
  C   C1134     1.0  0.43419  0.54411  0.48329  1.0000
  C   C1135     1.0  0.41574  0.66200  0.64598  1.0000
  H   H903      1.0  0.32823  0.38024  0.72633  1.0000
  H   H904      1.0  0.45025  0.65879  0.64688  1.0000
  H   H905      1.0  0.40164  0.64457  0.60793  1.0000
  H   H906      1.0  0.48844  0.56897  0.61014  1.0000
  C   C1136     1.0  0.43596  0.65081  0.64485  1.0000
  C   C1137     1.0  0.39736  0.65186  0.64289  1.0000
  H   H907      1.0  0.35172  0.34690  0.72288  1.0000
  C   C1138     1.0  0.31810  0.66357  0.72361  1.0000
  H   H908      1.0  0.49567  0.34745  0.68427  1.0000
  C   C1139     1.0  0.14441  0.66221  0.65140  1.0000
  H   H909      1.0  0.21544  0.33203  0.68839  1.0000
  Fe  Fe77      1.0  0.34781  0.43601  0.91528  1.0000
  S   S150      1.0  0.38248  0.44116  0.90603  1.0000
  S   S151      1.0  0.33383  0.44356  0.94084  1.0000
  Fe  Fe78      1.0  0.33553  0.42728  0.88101  1.0000
  S   S152      1.0  0.36945  0.43178  0.86985  1.0000
  S   S153      1.0  0.30619  0.42336  0.86692  1.0000
  Fe  Fe79      1.0  0.37967  0.41232  0.89230  1.0000
  S   S154      1.0  0.40627  0.38591  0.88996  1.0000
  Fe  Fe80      1.0  0.36939  0.46030  0.88453  1.0000
  S   S155      1.0  0.38079  0.49252  0.87236  1.0000
  S   S156      1.0  0.34564  0.40566  0.90273  1.0000
  S   S157      1.0  0.33483  0.45725  0.89444  1.0000
  Fe  Fe81      1.0  0.42747  0.58857  0.91108  1.0000
  S   S158      1.0  0.40607  0.61732  0.91872  1.0000
  S   S159      1.0  0.42062  0.55310  0.91730  1.0000
  Fe  Fe82      1.0  0.46689  0.61550  0.90266  1.0000
  C   C1140     1.0  0.37970  0.37859  0.80317  1.0000
  Fe  Fe83      1.0  0.43425  0.62572  0.93161  1.0000
  C   C1141     1.0  0.29365  0.65348  0.80200  1.0000
  S   S160      1.0  0.45441  0.59616  0.92512  1.0000
  S   S161      1.0  0.44195  0.60544  0.88768  1.0000
  C   C1142     1.0  0.32280  0.53906  0.77050  1.0000
  C   C1143     1.0  0.37522  0.37229  0.81963  1.0000
  C   C1144     1.0  0.46199  0.51928  0.94238  1.0000
  H   H910      1.0  0.37936  0.38248  0.82858  1.0000
  Fe  Fe84      1.0  0.22070  0.36714  0.77532  1.0000
  S   S162      1.0  0.22699  0.38593  0.75075  1.0000
  C   C1145     1.0  0.29390  0.64055  0.74129  1.0000
  Fe  Fe85      1.0  0.26410  0.38072  0.78653  1.0000
  S   S163      1.0  0.27285  0.39838  0.76230  1.0000
  S   S164      1.0  0.29146  0.37769  0.80336  1.0000
  Fe  Fe86      1.0  0.23879  0.41299  0.76374  1.0000
  S   S165      1.0  0.24260  0.45024  0.75940  1.0000
  Fe  Fe87      1.0  0.26068  0.37058  0.75141  1.0000
  C   C1146     1.0  0.36279  0.59240  0.81515  1.0000
  S   S166      1.0  0.23003  0.39537  0.78858  1.0000
  S   S167      1.0  0.25449  0.35157  0.77533  1.0000
  C   C1147     1.0  0.34887  0.34612  0.76394  1.0000
  C   C1148     1.0  0.37401  0.36560  0.79164  1.0000
  H   H911      1.0  0.38744  0.39363  0.79936  1.0000
  H   H912      1.0  0.35682  0.48784  0.84309  1.0000
  H   H913      1.0  0.40813  0.62487  0.74478  1.0000
  C   C1149     1.0  0.21149  0.49788  0.73073  1.0000
  C   C1150     1.0  0.33251  0.55353  0.77903  1.0000
  C   C1151     1.0  0.36364  0.34626  0.79652  1.0000
  H   H914      1.0  0.36056  0.51996  0.92487  1.0000
  C   C1152     1.0  0.34213  0.43676  0.96068  1.0000
  C   C1153     1.0  0.34778  0.35233  0.73481  1.0000
  C   C1154     1.0  0.23569  0.47479  0.74729  1.0000
  C   C1155     1.0  0.44176  0.37651  0.97094  1.0000
  C   C1156     1.0  0.32519  0.57549  0.77844  1.0000
  S   S168      1.0  0.19568  0.34076  0.78365  1.0000
  C   C1157     1.0  0.41604  0.41443  0.97528  1.0000
  C   C1158     1.0  0.43601  0.47974  0.86034  1.0000
  C   C1159     1.0  0.35924  0.34004  0.81309  1.0000
  S   S169      1.0  0.44130  0.63391  0.95671  1.0000
  C   C1160     1.0  0.48706  0.54313  0.95964  1.0000
  H   H915      1.0  0.41530  0.52654  0.95515  1.0000
  H   H916      1.0  0.47719  0.59837  0.96099  1.0000
  S   S170      1.0  0.44854  0.64572  0.90961  1.0000
  C   C1161     1.0  0.30277  0.41116  0.84886  1.0000
  C   C1162     1.0  0.28215  0.41253  0.84311  1.0000
  C   C1163     1.0  0.27843  0.40284  0.82907  1.0000
  C   C1164     1.0  0.29529  0.39145  0.82061  1.0000
  C   C1165     1.0  0.31596  0.39036  0.82620  1.0000
  C   C1166     1.0  0.31975  0.40019  0.84017  1.0000
  H   H917      1.0  0.26887  0.42094  0.84968  1.0000
  H   H918      1.0  0.26243  0.40376  0.82502  1.0000
  H   H919      1.0  0.32910  0.38178  0.81967  1.0000
  H   H920      1.0  0.33572  0.39903  0.84433  1.0000
  C   C1167     1.0  0.43159  0.39132  0.89593  1.0000
  C   C1168     1.0  0.45039  0.38117  0.88876  1.0000
  C   C1169     1.0  0.47080  0.38539  0.89310  1.0000
  C   C1170     1.0  0.47250  0.39987  0.90465  1.0000
  C   C1171     1.0  0.45375  0.40994  0.91194  1.0000
  C   C1172     1.0  0.43334  0.40570  0.90758  1.0000
  H   H921      1.0  0.44923  0.37048  0.87949  1.0000
  C   C1173     1.0  0.29849  0.61533  0.79766  1.0000
  H   H922      1.0  0.45505  0.42130  0.92077  1.0000
  H   H923      1.0  0.41901  0.41347  0.91328  1.0000
  C   C1174     1.0  0.39343  0.50917  0.88417  1.0000
  C   C1175     1.0  0.39546  0.53128  0.87908  1.0000
  C   C1176     1.0  0.40422  0.54503  0.88892  1.0000
  C   C1177     1.0  0.41102  0.53662  0.90385  1.0000
  C   C1178     1.0  0.40989  0.51438  0.90854  1.0000
  C   C1179     1.0  0.40126  0.50069  0.89870  1.0000
  H   H924      1.0  0.38974  0.53788  0.86772  1.0000
  H   H925      1.0  0.40520  0.56216  0.88515  1.0000
  H   H926      1.0  0.41521  0.50779  0.92004  1.0000
  H   H927      1.0  0.40041  0.48361  0.90247  1.0000
  C   C1180     1.0  0.35484  0.33980  0.74833  1.0000
  Fe  Fe88      1.0  0.42234  0.63491  0.89587  1.0000
  C   C1181     1.0  0.44345  0.44270  0.87107  1.0000
  C   C1182     1.0  0.43102  0.45796  0.86203  1.0000
  C   C1183     1.0  0.46569  0.47111  0.87720  1.0000
  C   C1184     1.0  0.46057  0.44928  0.87872  1.0000
  P   P43       1.0  0.48559  0.47972  0.88932  1.0000
  C   C1185     1.0  0.49017  0.46511  0.92183  1.0000
  C   C1186     1.0  0.45352  0.47320  0.91488  1.0000
  C   C1187     1.0  0.43012  0.63159  0.97723  1.0000
  H   H928      1.0  0.31997  0.43024  0.75449  1.0000
  H   H929      1.0  0.49089  0.65087  0.86817  1.0000
  H   H930      1.0  0.16901  0.34635  0.75575  1.0000
  H   H931      1.0  0.32428  0.46431  0.97024  1.0000
  C   C1188     1.0  0.32941  0.63767  0.79473  1.0000
  H   H932      1.0  0.05615  0.34910  0.75647  1.0000
  C   C1189     1.0  0.37824  0.47089  0.94201  1.0000
  C   C1190     1.0  0.48657  0.50885  0.88545  1.0000
  H   H933      1.0  0.41724  0.45301  0.85660  1.0000
  C   C1191     1.0  0.41010  0.53832  0.96369  1.0000
  H   H934      1.0  0.44210  0.47824  0.90609  1.0000
  H   H935      1.0  0.36101  0.40773  0.95530  1.0000
  H   H936      1.0  0.45134  0.36170  0.96882  1.0000
  C   C1192     1.0  0.36892  0.58387  0.83027  1.0000
  C   C1193     1.0  0.48476  0.35651  0.93934  1.0000
  H   H937      1.0  0.33928  0.50513  0.97084  1.0000
  H   H938      1.0  0.45395  0.39310  0.94824  1.0000
  C   C1194     1.0  0.38180  0.59463  0.77609  1.0000
  H   H939      1.0  0.33094  0.37047  0.77763  1.0000
  H   H940      1.0  0.37768  0.37066  0.77894  1.0000
  H   H941      1.0  0.34065  0.62649  0.76086  1.0000
  H   H942      1.0  0.45410  0.45567  0.95476  1.0000
  C   C1195     1.0  0.30908  0.46207  0.76103  1.0000
  C   C1196     1.0  0.31408  0.43989  0.76428  1.0000
  C   C1197     1.0  0.31114  0.43016  0.78010  1.0000
  C   C1198     1.0  0.30291  0.44256  0.79264  1.0000
  C   C1199     1.0  0.29735  0.46473  0.78941  1.0000
  C   C1200     1.0  0.30099  0.47454  0.77357  1.0000
  P   P44       1.0  0.28623  0.48022  0.80575  1.0000
  C   C1201     1.0  0.27428  0.50598  0.79796  1.0000
  C   C1202     1.0  0.26394  0.46637  0.81678  1.0000
  C   C1203     1.0  0.25211  0.45255  0.80908  1.0000
  C   C1204     1.0  0.23446  0.44235  0.81751  1.0000
  C   C1205     1.0  0.22842  0.44589  0.83363  1.0000
  C   C1206     1.0  0.23978  0.46002  0.84126  1.0000
  C   C1207     1.0  0.25729  0.47045  0.83281  1.0000
  C   C1208     1.0  0.25916  0.50635  0.78652  1.0000
  C   C1209     1.0  0.24997  0.52608  0.78008  1.0000
  C   C1210     1.0  0.25554  0.54557  0.78521  1.0000
  C   C1211     1.0  0.26997  0.54532  0.79702  1.0000
  C   C1212     1.0  0.27914  0.52559  0.80353  1.0000
  C   C1213     1.0  0.30839  0.48281  0.81777  1.0000
  C   C1214     1.0  0.31067  0.46930  0.83209  1.0000
  C   C1215     1.0  0.32797  0.47132  0.84120  1.0000
  C   C1216     1.0  0.34344  0.48641  0.83593  1.0000
  C   C1217     1.0  0.34183  0.49928  0.82135  1.0000
  C   C1218     1.0  0.32449  0.49734  0.81222  1.0000
  C   C1219     1.0  0.16387  0.33225  0.76350  1.0000
  H   H943      1.0  0.26358  0.49060  0.75266  1.0000
  H   H944      1.0  0.31473  0.41290  0.78267  1.0000
  H   H945      1.0  0.30049  0.43475  0.80483  1.0000
  H   H946      1.0  0.29724  0.49166  0.77075  1.0000
  H   H947      1.0  0.25635  0.44964  0.79653  1.0000
  H   H948      1.0  0.22555  0.43157  0.81151  1.0000
  H   H949      1.0  0.21494  0.43769  0.84020  1.0000
  H   H950      1.0  0.23510  0.46276  0.85377  1.0000
  H   H951      1.0  0.26574  0.48155  0.83885  1.0000
  H   H952      1.0  0.25451  0.49134  0.78249  1.0000
  H   H953      1.0  0.23845  0.52620  0.77114  1.0000
  H   H954      1.0  0.24849  0.56085  0.78010  1.0000
  H   H955      1.0  0.27396  0.56043  0.80117  1.0000
  H   H956      1.0  0.28973  0.52574  0.81300  1.0000
  H   H957      1.0  0.29933  0.45698  0.83623  1.0000
  H   H958      1.0  0.32946  0.46100  0.85235  1.0000
  H   H959      1.0  0.32366  0.50708  0.80081  1.0000
  H   H960      1.0  0.48590  0.63038  0.94228  1.0000
  H   H961      1.0  0.31837  0.39202  0.75366  1.0000
  C   C1220     1.0  0.33641  0.56505  0.81647  1.0000
  C   C1221     1.0  0.33450  0.44996  0.97308  1.0000
  C   C1222     1.0  0.39494  0.61881  0.75309  1.0000
  C   C1223     1.0  0.35524  0.41819  0.96458  1.0000
  C   C1224     1.0  0.38043  0.49880  0.96007  1.0000
  H   H962      1.0  0.33463  0.54283  0.83810  1.0000
  H   H963      1.0  0.42596  0.49163  0.85368  1.0000
  C   C1225     1.0  0.37392  0.62757  0.75163  1.0000
  H   H964      1.0  0.29857  0.53537  0.75434  1.0000
  H   H965      1.0  0.36995  0.53125  0.95063  1.0000
  H   H966      1.0  0.35983  0.38307  0.93345  1.0000
  H   H967      1.0  0.37024  0.60678  0.80922  1.0000
  C   C1226     1.0  0.46011  0.46030  0.94236  1.0000
  H   H968      1.0  0.42841  0.46793  0.93425  1.0000
  H   H969      1.0  0.46203  0.36068  0.92153  1.0000
  H   H970      1.0  0.29153  0.59983  0.79750  1.0000
  H   H971      1.0  0.39697  0.62940  0.97270  1.0000
  C   C1227     1.0  0.46690  0.35094  0.93213  1.0000
  C   C1228     1.0  0.34686  0.58271  0.80795  1.0000
  C   C1229     1.0  0.37254  0.51434  0.94835  1.0000
  H   H972      1.0  0.39479  0.62982  0.85928  1.0000
  C   C1230     1.0  0.31589  0.65559  0.79871  1.0000
  H   H973      1.0  0.47820  0.63947  0.74453  1.0000
  H   H974      1.0  0.45764  0.51601  0.90114  1.0000
  C   C1231     1.0  0.34264  0.55651  0.83155  1.0000
  C   C1232     1.0  0.46931  0.54480  0.88779  1.0000
  H   H975      1.0  0.41416  0.63896  0.80603  1.0000
  C   C1233     1.0  0.29644  0.33370  0.73116  1.0000
  C   C1234     1.0  0.36073  0.60370  0.77487  1.0000
  C   C1235     1.0  0.48326  0.55024  0.94366  1.0000
  H   H976      1.0  0.35413  0.51060  0.81712  1.0000
  C   C1236     1.0  0.39039  0.33681  0.92652  1.0000
  C   C1237     1.0  0.30127  0.64891  0.75466  1.0000
  C   C1238     1.0  0.44569  0.46722  0.93087  1.0000
  H   H977      1.0  0.32322  0.55806  0.81166  1.0000
  C   C1239     1.0  0.46607  0.51179  0.95818  1.0000
  C   C1240     1.0  0.47584  0.47243  0.91022  1.0000
  C   C1241     1.0  0.32075  0.61751  0.79382  1.0000
  H   H978      1.0  0.45643  0.55523  0.89304  1.0000
  C   C1242     1.0  0.28497  0.63334  0.80158  1.0000
  H   H979      1.0  0.45625  0.50340  0.86662  1.0000
  H   H980      1.0  0.41514  0.59532  0.76630  1.0000
  C   C1243     1.0  0.48491  0.55369  0.87632  1.0000
  H   H981      1.0  0.29471  0.64335  0.76669  1.0000
  C   C1244     1.0  0.39493  0.53325  0.97693  1.0000
  H   H982      1.0  0.37988  0.45397  0.93968  1.0000
  S   S171      1.0  0.27432  0.62076  0.74453  1.0000
  C   C1245     1.0  0.37394  0.37191  0.93254  1.0000
  H   H983      1.0  0.34663  0.63967  0.79238  1.0000
  S   S172      1.0  0.27745  0.35602  0.72923  1.0000
  H   H984      1.0  0.43013  0.42614  0.95169  1.0000
  H   H985      1.0  0.30411  0.60003  0.76676  1.0000
  C   C1246     1.0  0.38604  0.64741  0.83690  1.0000
  C   C1247     1.0  0.47020  0.52252  0.89248  1.0000
  C   C1248     1.0  0.45327  0.48633  0.86783  1.0000
  C   C1249     1.0  0.30612  0.54650  0.76100  1.0000
  C   C1250     1.0  0.30909  0.58296  0.76830  1.0000
  C   C1251     1.0  0.39400  0.37845  0.93571  1.0000
  C   C1252     1.0  0.33605  0.36536  0.76573  1.0000
  C   C1253     1.0  0.32891  0.37771  0.75217  1.0000
  H   H986      1.0  0.46959  0.43745  0.88612  1.0000
  C   C1254     1.0  0.37215  0.35115  0.92785  1.0000
  H   H987      1.0  0.26774  0.63168  0.80417  1.0000
  H   H988      1.0  0.46726  0.54438  0.92299  1.0000
  H   H989      1.0  0.45188  0.51054  0.93573  1.0000
  C   C1255     1.0  0.41817  0.55896  0.96096  1.0000
  H   H990      1.0  0.38118  0.59142  0.83580  1.0000
  H   H991      1.0  0.42764  0.36997  0.93626  1.0000
  H   H992      1.0  0.43946  0.42584  0.87244  1.0000
  H   H993      1.0  0.48903  0.57429  0.90499  1.0000
  H   H994      1.0  0.39861  0.36013  0.96995  1.0000
  H   H995      1.0  0.25395  0.52613  0.73778  1.0000
  H   H996      1.0  0.38884  0.46460  0.96562  1.0000
  C   C1256     1.0  0.41230  0.36424  0.93421  1.0000
  C   C1257     1.0  0.47065  0.53842  0.93515  1.0000
  C   C1258     1.0  0.47846  0.52374  0.96684  1.0000
  H   H997      1.0  0.48522  0.37766  0.88734  1.0000
  H   H998      1.0  0.38014  0.63336  0.83242  1.0000
  H   H999      1.0  0.45940  0.49687  0.96372  1.0000
  C   C1259     1.0  0.36505  0.35300  0.82458  1.0000
  C   C1260     1.0  0.21703  0.47758  0.73907  1.0000
  C   C1261     1.0  0.48780  0.65012  0.73602  1.0000
  C   C1262     1.0  0.33460  0.37113  0.73674  1.0000
  C   C1263     1.0  0.48231  0.45912  0.93782  1.0000
  C   C1264     1.0  0.44033  0.66003  0.80596  1.0000
  H   H1000     1.0  0.39546  0.39477  0.93890  1.0000
  P   P45       1.0  0.33843  0.59445  0.78876  1.0000
  C   C1265     1.0  0.39437  0.64534  0.85214  1.0000
  C   C1266     1.0  0.42588  0.65062  0.78186  1.0000
  C   C1267     1.0  0.36695  0.50802  0.93380  1.0000
  H   H1001     1.0  0.38508  0.58169  0.78535  1.0000
  C   C1268     1.0  0.41064  0.34322  0.92973  1.0000
  C   C1269     1.0  0.35896  0.56584  0.83841  1.0000
  H   H1002     1.0  0.36361  0.55932  0.85018  1.0000
  C   C1270     1.0  0.48761  0.65821  0.85626  1.0000
  C   C1271     1.0  0.38342  0.47703  0.95673  1.0000
  H   H1003     1.0  0.42938  0.56294  0.95045  1.0000
  H   H1004     1.0  0.36439  0.48133  0.91969  1.0000
  C   C1272     1.0  0.29943  0.56848  0.75979  1.0000
  C   C1273     1.0  0.36946  0.48626  0.93075  1.0000
  H   H1005     1.0  0.48973  0.56502  0.93774  1.0000
  H   H1006     1.0  0.28691  0.57442  0.75205  1.0000
  C   C1274     1.0  0.39886  0.60224  0.76525  1.0000
  C   C1275     1.0  0.39349  0.34574  0.97734  1.0000
  H   H1007     1.0  0.32840  0.52212  0.77103  1.0000
  C   C1276     1.0  0.24359  0.51274  0.73807  1.0000
  H   H1008     1.0  0.41393  0.64269  0.77632  1.0000
  C   C1277     1.0  0.37633  0.33494  0.97281  1.0000
  C   C1278     1.0  0.44313  0.39418  0.95917  1.0000
  H   H1009     1.0  0.31107  0.46950  0.74873  1.0000
  H   H1010     1.0  0.40556  0.42885  0.97679  1.0000
  C   C1279     1.0  0.35687  0.61982  0.76233  1.0000
  H   H1011     1.0  0.48425  0.57102  0.87294  1.0000
  C   C1280     1.0  0.45584  0.33246  0.93815  1.0000
  C   C1281     1.0  0.24898  0.49252  0.74656  1.0000
  H   H1012     1.0  0.35666  0.34635  0.92497  1.0000
  H   H1013     1.0  0.34584  0.54763  0.78595  1.0000
  H   H1014     1.0  0.49352  0.45321  0.94658  1.0000
  C   C1282     1.0  0.42990  0.41293  0.96118  1.0000
  H   H1015     1.0  0.30933  0.33867  0.78428  1.0000
  H   H1016     1.0  0.41756  0.59072  0.96913  1.0000
  H   H1017     1.0  0.01764  0.34277  0.76368  1.0000
  C   C1283     1.0  0.49201  0.34349  0.95250  1.0000
  C   C1284     1.0  0.41138  0.57468  0.97149  1.0000
  C   C1285     1.0  0.22458  0.51570  0.73025  1.0000
  C   C1286     1.0  0.42595  0.64862  0.79863  1.0000
  H   H1018     1.0  0.48767  0.38070  0.97532  1.0000
  H   H1019     1.0  0.20654  0.46426  0.73949  1.0000
  H   H1020     1.0  0.42756  0.33285  0.86848  1.0000
  H   H1021     1.0  0.36125  0.34835  0.83735  1.0000
  H   H1022     1.0  0.49362  0.37036  0.93419  1.0000
  C   C1287     1.0  0.05019  0.33330  0.75546  1.0000
  H   H1023     1.0  0.41351  0.33407  0.89691  1.0000
  H   H1024     1.0  0.37074  0.64044  0.74223  1.0000
  H   H1025     1.0  0.36858  0.34103  0.96210  1.0000
  S   S173      1.0  0.40970  0.66257  0.87827  1.0000
  H   H1026     1.0  0.43938  0.65864  0.81898  1.0000
  C   C1288     1.0  0.44052  0.66372  0.77232  1.0000
  H   H1027     1.0  0.49487  0.61064  0.83221  1.0000
  C   C1289     1.0  0.49373  0.59995  0.95577  1.0000
  C   C1290     1.0  0.40120  0.66358  0.85842  1.0000
  C   C1291     1.0  0.24558  0.88489  0.14635  1.0000
  Fe  Fe89      1.0  0.09335  0.92939  0.07740  1.0000
  S   S174      1.0  0.11659  0.90027  0.07629  1.0000
  S   S175      1.0  0.05705  0.93066  0.08359  1.0000
  Fe  Fe90      1.0  0.12870  0.96049  0.06859  1.0000
  S   S176      1.0  0.15505  0.93407  0.06695  1.0000
  Fe  Fe91      1.0  0.13180  0.91807  0.05350  1.0000
  S   S177      1.0  0.14471  0.89937  0.03221  1.0000
  Fe  Fe92      1.0  0.13803  0.91863  0.08989  1.0000
  S   S178      1.0  0.15457  0.89891  0.11046  1.0000
  S   S179      1.0  0.10678  0.94561  0.05357  1.0000
  S   S180      1.0  0.11345  0.94654  0.09255  1.0000
  C   C1292     1.0  0.15375  0.88097  0.00403  1.0000
  C   C1293     1.0  0.39707  0.66458  0.14267  1.0000
  H   H1028     1.0  0.03762  0.81430  0.10635  1.0000
  H   H1029     1.0  0.05438  0.80906  0.98901  1.0000
  S   S181      1.0  0.41161  0.75535  0.19740  1.0000
  H   H1030     1.0  0.01183  0.78042  0.12778  1.0000
  H   H1031     1.0  0.38945  0.67804  0.16573  1.0000
  S   S182      1.0  0.36278  0.73779  0.19867  1.0000
  H   H1032     1.0  0.29457  0.85714  0.14737  1.0000
  Fe  Fe93      1.0  0.39649  0.72715  0.18831  1.0000
  S   S183      1.0  0.40794  0.72131  0.16181  1.0000
  Fe  Fe94      1.0  0.37821  0.76419  0.20932  1.0000
  S   S184      1.0  0.36293  0.79853  0.21341  1.0000
  S   S185      1.0  0.40368  0.70454  0.21020  1.0000
  H   H1033     1.0  0.16474  0.85370  0.05100  1.0000
  Fe  Fe95      1.0  0.25312  0.88486  0.20519  1.0000
  C   C1294     1.0  0.31073  0.82192  0.09968  1.0000
  S   S186      1.0  0.27565  0.85541  0.19760  1.0000
  Fe  Fe96      1.0  0.21607  0.91502  0.19122  1.0000
  S   S187      1.0  0.20502  0.92724  0.21544  1.0000
  S   S188      1.0  0.19846  0.93084  0.16970  1.0000
  Fe  Fe97      1.0  0.24003  0.93017  0.21856  1.0000
  H   H1034     1.0  0.47846  0.68602  0.13134  1.0000
  H   H1035     1.0  0.31772  0.70738  0.16583  1.0000
  C   C1295     1.0  0.25212  0.81017  0.18151  1.0000
  S   S189      1.0  0.25130  0.91965  0.19365  1.0000
  S   S190      1.0  0.21839  0.88000  0.20105  1.0000
  H   H1036     1.0  0.29689  0.82014  0.14011  1.0000
  H   H1037     1.0  0.23746  0.87692  0.11331  1.0000
  H   H1038     1.0  0.01410  0.81156  0.18301  1.0000
  H   H1039     1.0  0.25591  0.79591  0.13712  1.0000
  C   C1296     1.0  0.22491  0.73859  0.21203  1.0000
  H   H1040     1.0  0.21567  0.81763  0.13968  1.0000
  H   H1041     1.0  0.25652  0.76663  0.15939  1.0000
  C   C1297     1.0  0.16704  0.82562  0.22615  1.0000
  C   C1298     1.0  0.25102  0.90414  0.15196  1.0000
  C   C1299     1.0  0.33794  0.81337  0.20946  1.0000
  C   C1300     1.0  0.32415  0.80714  0.19868  1.0000
  C   C1301     1.0  0.30529  0.82014  0.19528  1.0000
  C   C1302     1.0  0.29951  0.83937  0.20282  1.0000
  C   C1303     1.0  0.31302  0.84528  0.21391  1.0000
  C   C1304     1.0  0.33212  0.83252  0.21706  1.0000
  H   H1042     1.0  0.32832  0.79260  0.19262  1.0000
  H   H1043     1.0  0.29529  0.81537  0.18655  1.0000
  C   C1305     1.0  0.99808  0.97883  0.07581  1.0000
  H   H1044     1.0  0.18757  0.85195  0.21819  1.0000
  H   H1045     1.0  0.18183  0.82256  0.12658  1.0000
  H   H1046     1.0  0.20315  0.88161  0.10055  1.0000
  C   C1306     1.0  0.25183  0.82683  0.16897  1.0000
  C   C1307     1.0  0.25467  0.80005  0.14949  1.0000
  H   H1047     1.0  0.42563  0.71768  0.12899  1.0000
  C   C1308     1.0  0.46619  0.67443  0.09111  1.0000
  C   C1309     1.0  0.22532  0.78253  0.21670  1.0000
  H   H1048     1.0  0.22902  0.88339  0.14397  1.0000
  H   H1049     1.0  0.25170  0.81424  0.19388  1.0000
  H   H1050     1.0  0.23920  0.99411  0.19765  1.0000
  C   C1310     1.0  0.40756  0.69996  0.14881  1.0000
  C   C1311     1.0  0.28632  0.71951  0.17555  1.0000
  H   H1051     1.0  0.06184  0.81980  0.01543  1.0000
  C   C1312     1.0  0.25499  0.78344  0.16206  1.0000
  C   C1313     1.0  0.28232  0.87021  0.14828  1.0000
  C   C1314     1.0  0.25392  0.78850  0.17805  1.0000
  H   H1052     1.0  0.02080  0.95544  0.04249  1.0000
  P   P46       1.0  0.99719  0.82639  0.12592  1.0000
  H   H1053     1.0  0.17557  0.85444  0.10686  1.0000
  C   C1315     1.0  0.26135  0.86795  0.14405  1.0000
  H   H1054     1.0  0.25483  0.77563  0.18771  1.0000
  H   H1055     1.0  0.32666  0.80885  0.12053  1.0000
  C   C1316     1.0  0.16595  0.90799  0.12727  1.0000
  C   C1317     1.0  0.17440  0.89264  0.13895  1.0000
  C   C1318     1.0  0.18441  0.89921  0.15200  1.0000
  C   C1319     1.0  0.18585  0.92129  0.15367  1.0000
  C   C1320     1.0  0.17693  0.93658  0.14223  1.0000
  C   C1321     1.0  0.16708  0.93002  0.12912  1.0000
  H   H1056     1.0  0.17327  0.87556  0.13791  1.0000
  H   H1057     1.0  0.19108  0.88724  0.16070  1.0000
  H   H1058     1.0  0.17782  0.95367  0.14347  1.0000
  H   H1059     1.0  0.16049  0.94196  0.12036  1.0000
  C   C1322     1.0  0.14323  0.89877  0.01109  1.0000
  C   C1323     1.0  0.13246  0.91482  0.00122  1.0000
  H   H1060     1.0  0.16236  0.86864  0.01136  1.0000
  H   H1061     1.0  0.12430  0.92869  0.00652  1.0000
  C   C1324     1.0  0.01934  0.87342  0.07355  1.0000
  P   P47       1.0  0.26539  0.72764  0.22295  1.0000
  C   C1325     1.0  0.02089  0.91148  0.07733  1.0000
  C   C1326     1.0  0.04283  0.90839  0.07980  1.0000
  C   C1327     1.0  0.05296  0.88767  0.07938  1.0000
  C   C1328     1.0  0.04118  0.87021  0.07634  1.0000
  H   H1062     1.0  0.25092  0.84350  0.17194  1.0000
  H   H1063     1.0  0.01300  0.92740  0.07778  1.0000
  H   H1064     1.0  0.06981  0.88507  0.08149  1.0000
  H   H1065     1.0  0.04904  0.85419  0.07615  1.0000
  H   H1066     1.0  0.27613  0.92126  0.16031  1.0000
  C   C1329     1.0  0.15363  0.91225  0.20218  1.0000
  C   C1330     1.0  0.48119  0.83961  0.18582  1.0000
  C   C1331     1.0  0.00436  0.78435  0.11661  1.0000
  C   C1332     1.0  0.27519  0.83940  0.10520  1.0000
  C   C1333     1.0  0.16247  0.81664  0.02386  1.0000
  C   C1334     1.0  0.17120  0.82879  0.03460  1.0000
  C   C1335     1.0  0.15799  0.84391  0.04288  1.0000
  C   C1336     1.0  0.13616  0.84716  0.04024  1.0000
  C   C1337     1.0  0.12743  0.83569  0.02900  1.0000
  C   C1338     1.0  0.14062  0.81986  0.02121  1.0000
  P   P48       1.0  0.09895  0.83944  0.02622  1.0000
  C   C1339     1.0  0.09044  0.86792  0.02659  1.0000
  C   C1340     1.0  0.09351  0.83127  0.00692  1.0000
  C   C1341     1.0  0.10833  0.83499  0.99326  1.0000
  H   H1067     1.0  0.00214  0.98951  0.08442  1.0000
  H   H1068     1.0  0.16202  0.86502  0.98241  1.0000
  C   C1342     1.0  0.03804  0.96588  0.97875  1.0000
  C   C1343     1.0  0.07391  0.82208  0.00525  1.0000
  C   C1344     1.0  0.08939  0.88137  0.01207  1.0000
  C   C1345     1.0  0.08337  0.90345  0.01231  1.0000
  C   C1346     1.0  0.07863  0.91242  0.02701  1.0000
  C   C1347     1.0  0.07970  0.89926  0.04148  1.0000
  C   C1348     1.0  0.08552  0.87709  0.04132  1.0000
  C   C1349     1.0  0.08494  0.82224  0.04211  1.0000
  C   C1350     1.0  0.09459  0.80207  0.04750  1.0000
  C   C1351     1.0  0.08358  0.78823  0.05932  1.0000
  C   C1352     1.0  0.06275  0.79428  0.06572  1.0000
  C   C1353     1.0  0.05297  0.81419  0.06033  1.0000
  C   C1354     1.0  0.06401  0.82818  0.04862  1.0000
  H   H1069     1.0  0.17269  0.80484  0.01749  1.0000
  H   H1070     1.0  0.18821  0.82664  0.03643  1.0000
  H   H1071     1.0  0.12636  0.85912  0.04670  1.0000
  H   H1072     1.0  0.13413  0.80996  0.01309  1.0000
  H   H1073     1.0  0.12305  0.84309  0.99403  1.0000
  C   C1355     1.0  0.15110  0.98777  0.10433  1.0000
  H   H1074     1.0  0.45777  0.76311  0.19866  1.0000
  H   H1075     1.0  0.00377  0.94687  0.10040  1.0000
  C   C1356     1.0  0.47647  0.78953  0.20367  1.0000
  H   H1076     1.0  0.09376  0.87515  0.00049  1.0000
  H   H1077     1.0  0.08316  0.91375  0.00106  1.0000
  H   H1078     1.0  0.07467  0.92966  0.02721  1.0000
  H   H1079     1.0  0.07655  0.90645  0.05282  1.0000
  H   H1080     1.0  0.08663  0.86728  0.05269  1.0000
  H   H1081     1.0  0.11057  0.79687  0.04252  1.0000
  H   H1082     1.0  0.09115  0.77270  0.06340  1.0000
  H   H1083     1.0  0.46026  0.78896  0.17258  1.0000
  H   H1084     1.0  0.03673  0.81870  0.06520  1.0000
  H   H1085     1.0  0.05613  0.84350  0.04461  1.0000
  C   C1357     1.0  0.12022  0.87247  0.13816  1.0000
  C   C1358     1.0  0.10982  0.89313  0.13773  1.0000
  C   C1359     1.0  0.10529  0.90334  0.15194  1.0000
  C   C1360     1.0  0.11134  0.89298  0.16658  1.0000
  C   C1361     1.0  0.12244  0.87250  0.16702  1.0000
  C   C1362     1.0  0.12652  0.86216  0.15273  1.0000
  P   P49       1.0  0.13009  0.85905  0.18595  1.0000
  C   C1363     1.0  0.15404  0.84144  0.18214  1.0000
  C   C1364     1.0  0.13663  0.87895  0.19886  1.0000
  C   C1365     1.0  0.13237  0.87544  0.21571  1.0000
  H   H1086     1.0  0.01654  0.84244  0.03812  1.0000
  H   H1087     1.0  0.42507  0.68955  0.10987  1.0000
  H   H1088     1.0  0.15111  0.97238  0.03341  1.0000
  C   C1366     1.0  0.14730  0.89752  0.19217  1.0000
  C   C1367     1.0  0.15220  0.82015  0.17824  1.0000
  C   C1368     1.0  0.17070  0.80653  0.17533  1.0000
  C   C1369     1.0  0.19118  0.81410  0.17616  1.0000
  C   C1370     1.0  0.19316  0.83527  0.17994  1.0000
  C   C1371     1.0  0.17472  0.84889  0.18290  1.0000
  C   C1372     1.0  0.10796  0.84355  0.19565  1.0000
  C   C1373     1.0  0.08655  0.84927  0.19232  1.0000
  C   C1374     1.0  0.06957  0.83720  0.20001  1.0000
  H   H1089     1.0  0.00918  0.85133  0.98753  1.0000
  C   C1375     1.0  0.06448  0.97188  0.11141  1.0000
  C   C1376     1.0  0.11201  0.82575  0.20685  1.0000
  H   H1090     1.0  0.12422  0.86488  0.12702  1.0000
  H   H1091     1.0  0.10588  0.90144  0.12626  1.0000
  H   H1092     1.0  0.09751  0.91948  0.15155  1.0000
  H   H1093     1.0  0.10763  0.90110  0.17750  1.0000
  H   H1094     1.0  0.13492  0.84637  0.15270  1.0000
  H   H1095     1.0  0.06076  0.81000  0.21716  1.0000
  C   C1377     1.0  0.14762  0.96920  0.99334  1.0000
  H   H1096     1.0  0.31002  0.71086  0.21703  1.0000
  H   H1097     1.0  0.99636  0.86881  0.10659  1.0000
  H   H1098     1.0  0.15137  0.90034  0.17926  1.0000
  H   H1099     1.0  0.13646  0.81402  0.17755  1.0000
  H   H1100     1.0  0.16910  0.79005  0.17254  1.0000
  H   H1101     1.0  0.20551  0.80355  0.17399  1.0000
  H   H1102     1.0  0.20895  0.84121  0.18074  1.0000
  H   H1103     1.0  0.17680  0.86512  0.18591  1.0000
  H   H1104     1.0  0.08289  0.86305  0.18388  1.0000
  H   H1105     1.0  0.05308  0.84166  0.19747  1.0000
  C   C1378     1.0  0.43612  0.80561  0.18820  1.0000
  C   C1379     1.0  0.47812  0.87825  0.18856  1.0000
  H   H1106     1.0  0.12831  0.82123  0.20975  1.0000
  C   C1380     1.0  0.20630  0.86739  0.10881  1.0000
  C   C1381     1.0  0.19067  0.85205  0.11242  1.0000
  C   C1382     1.0  0.19418  0.83419  0.12358  1.0000
  C   C1383     1.0  0.21345  0.83150  0.13101  1.0000
  C   C1384     1.0  0.22940  0.84673  0.12732  1.0000
  C   C1385     1.0  0.22560  0.86475  0.11619  1.0000
  P   P50       1.0  0.25476  0.84312  0.13643  1.0000
  C   C1386     1.0  0.25330  0.82188  0.15285  1.0000
  C   C1387     1.0  0.27658  0.83492  0.12190  1.0000
  C   C1388     1.0  0.29531  0.82382  0.12731  1.0000
  C   C1389     1.0  0.31227  0.81736  0.11625  1.0000
  H   H1107     1.0  0.16980  0.81840  0.21482  1.0000
  H   H1108     1.0  0.16239  0.92620  0.19695  1.0000
  C   C1390     1.0  0.20767  0.77477  0.21042  1.0000
  H   H1109     1.0  0.25688  0.73063  0.18839  1.0000
  H   H1110     1.0  0.32391  0.81694  0.09111  1.0000
  C   C1391     1.0  0.47317  0.67777  0.14294  1.0000
  H   H1111     1.0  0.03389  0.87768  0.03644  1.0000
  C   C1392     1.0  0.01491  0.85719  0.99806  1.0000
  C   C1393     1.0  0.03992  0.82887  0.11195  1.0000
  C   C1394     1.0  0.39735  0.68059  0.15363  1.0000
  H   H1112     1.0  0.40872  0.82342  0.19980  1.0000
  C   C1395     1.0  0.09505  0.81372  0.21450  1.0000
  H   H1113     1.0  0.27616  0.68089  0.21959  1.0000
  C   C1396     1.0  0.00874  0.95986  0.05201  1.0000
  H   H1114     1.0  0.17055  0.99687  0.13952  1.0000
  H   H1115     1.0  0.45882  0.70725  0.15213  1.0000
  C   C1397     1.0  0.44119  0.80764  0.22347  1.0000
  C   C1398     1.0  0.03636  0.99378  0.01922  1.0000
  H   H1116     1.0  0.48912  0.82599  0.18000  1.0000
  C   C1399     1.0  0.28172  0.72157  0.20463  1.0000
  H   H1117     1.0  0.27984  0.72174  0.16391  1.0000
  C   C1400     1.0  0.13089  0.99364  0.01855  1.0000
  H   H1118     1.0  0.45054  0.67940  0.08699  1.0000
  C   C1401     1.0  0.02421  0.87738  0.99699  1.0000
  H   H1119     1.0  0.02066  0.98819  0.02387  1.0000
  C   C1402     1.0  0.49030  0.75211  0.20241  1.0000
  C   C1403     1.0  0.27335  0.72455  0.18950  1.0000
  C   C1404     1.0  0.45464  0.67977  0.16971  1.0000
  C   C1405     1.0  0.40788  0.79955  0.16502  1.0000
  C   C1406     1.0  0.02877  0.87193  0.02565  1.0000
  H   H1120     1.0  0.00994  0.75186  0.10945  1.0000
  C   C1407     1.0  0.42943  0.79173  0.16302  1.0000
  P   P51       1.0  0.45421  0.80968  0.20312  1.0000
  C   C1408     1.0  0.14597  0.97633  0.02139  1.0000
  C   C1409     1.0  0.30764  0.71138  0.17660  1.0000
  Fe  Fe98      1.0  0.37122  0.71701  0.22109  1.0000
  H   H1121     1.0  0.15406  0.95960  0.98360  1.0000
  C   C1410     1.0  0.33846  0.66602  0.22194  1.0000
  H   H1122     1.0  0.29543  0.76243  0.21638  1.0000
  H   H1123     1.0  0.38387  0.81711  0.17988  1.0000
  C   C1411     1.0  0.42187  0.79701  0.22740  1.0000
  H   H1124     1.0  0.25635  0.77486  0.22534  1.0000
  H   H1125     1.0  0.07252  0.83129  0.10082  1.0000
  H   H1126     1.0  0.39678  0.79650  0.15641  1.0000
  H   H1127     1.0  0.19387  0.78566  0.20780  1.0000
  H   H1128     1.0  0.08891  0.98775  0.02696  1.0000
  C   C1412     1.0  0.99913  0.92337  0.12071  1.0000
  C   C1413     1.0  0.30318  0.71341  0.20552  1.0000
  C   C1414     1.0  0.31602  0.70827  0.19159  1.0000
  C   C1415     1.0  0.24288  0.74631  0.21817  1.0000
  H   H1129     1.0  0.01903  0.82995  0.15551  1.0000
  H   H1130     1.0  0.16555  0.95028  0.01112  1.0000
  C   C1416     1.0  0.07496  0.99372  0.02078  1.0000
  C   C1417     1.0  0.40061  0.81112  0.17823  1.0000
  C   C1418     1.0  0.00919  0.89413  0.07399  1.0000
  H   H1131     1.0  0.09057  0.98504  0.06800  1.0000
  C   C1419     1.0  0.41474  0.81445  0.18964  1.0000
  H   H1132     1.0  0.18152  0.97960  0.11421  1.0000
  C   C1420     1.0  0.01906  0.85206  0.02665  1.0000
  H   H1133     1.0  0.34257  0.83765  0.22539  1.0000
  C   C1421     1.0  0.00637  0.81871  0.15833  1.0000
  H   H1134     1.0  0.26110  0.84786  0.10056  1.0000
  C   C1422     1.0  0.16555  0.98749  0.11611  1.0000
  H   H1135     1.0  0.23886  0.91724  0.15357  1.0000
  H   H1136     1.0  0.02878  0.98160  0.06165  1.0000
  C   C1423     1.0  0.48842  0.86044  0.18137  1.0000
  H   H1137     1.0  0.43930  0.85247  0.21337  1.0000
  C   C1424     1.0  0.45323  0.85445  0.20461  1.0000
  C   C1425     1.0  0.44361  0.79503  0.17442  1.0000
  H   H1138     1.0  0.19357  0.74667  0.20352  1.0000
  C   C1426     1.0  0.01323  0.97440  0.06286  1.0000
  C   C1427     1.0  0.02666  0.85764  0.12860  1.0000
  C   C1428     1.0  0.15360  0.87893  0.98753  1.0000
  H   H1139     1.0  0.00401  0.82963  0.01374  1.0000
  C   C1429     1.0  0.20750  0.75280  0.20804  1.0000
  C   C1430     1.0  0.03259  0.92125  0.97877  1.0000
  H   H1140     1.0  0.43502  0.78270  0.15279  1.0000
  H   H1141     1.0  0.09395  0.97520  0.12196  1.0000
  C   C1431     1.0  0.03152  0.88450  0.01082  1.0000
  H   H1142     1.0  0.05409  0.78352  0.07477  1.0000
  C   C1432     1.0  0.41773  0.70280  0.13295  1.0000
  H   H1143     1.0  0.41408  0.78999  0.21832  1.0000
  C   C1433     1.0  0.05484  0.98600  0.02665  1.0000
  H   H1144     1.0  0.33251  0.70182  0.19247  1.0000
  H   H1145     1.0  0.48755  0.73538  0.20091  1.0000
  C   C1434     1.0  0.02332  0.95555  0.99027  1.0000
  C   C1435     1.0  0.46217  0.68995  0.15474  1.0000
  H   H1146     1.0  0.04900  0.88238  0.13018  1.0000
  C   C1436     1.0  0.29221  0.83292  0.09417  1.0000
  C   C1437     1.0  0.04638  0.98254  0.10501  1.0000
  C   C1438     1.0  0.07383  0.81941  0.21110  1.0000
  H   H1147     1.0  0.06673  0.95439  0.11161  1.0000
  H   H1148     1.0  0.22531  0.79955  0.21863  1.0000
  C   C1439     1.0  0.46380  0.83645  0.19768  1.0000
  C   C1440     1.0  0.05980  0.83848  0.10876  1.0000
  H   H1149     1.0  0.29104  0.83649  0.08131  1.0000
  H   H1150     1.0  0.05377  0.97421  0.03710  1.0000
  C   C1441     1.0  0.41761  0.68672  0.12205  1.0000
  C   C1442     1.0  0.24288  0.76840  0.22058  1.0000
  C   C1443     1.0  0.28759  0.88935  0.15414  1.0000
  H   H1151     1.0  0.07833  0.86538  0.11259  1.0000
  H   H1152     1.0  0.01571  0.91681  0.11925  1.0000
  H   H1153     1.0  0.00530  0.79216  0.22434  1.0000
  C   C1444     1.0  0.06958  0.81600  0.99027  1.0000
  H   H1154     1.0  0.03911  0.89976  0.01024  1.0000
  S   S191      1.0  0.13516  0.99586  0.06332  1.0000
  C   C1445     1.0  0.47340  0.76795  0.20110  1.0000
  H   H1155     1.0  0.15593  0.98033  0.09321  1.0000
  C   C1446     1.0  0.15933  0.99721  0.13037  1.0000
  C   C1447     1.0  0.04650  0.86731  0.12527  1.0000
  C   C1448     1.0  0.02320  0.83833  0.12197  1.0000
  C   C1449     1.0  0.13237  0.91280  0.98440  1.0000
  H   H1156     1.0  0.35169  0.67112  0.21331  1.0000
  H   H1157     1.0  0.15493  0.91960  0.22674  1.0000
  C   C1450     1.0  0.48495  0.68130  0.08205  1.0000
  C   C1451     1.0  0.13252  0.98651  0.99044  1.0000
  H   H1158     1.0  0.22434  0.72153  0.21036  1.0000
  H   H1159     1.0  0.12488  0.86095  0.22129  1.0000
  C   C1452     1.0  0.46048  0.87526  0.20012  1.0000
  H   H1160     1.0  0.07348  0.99510  0.14929  1.0000
  C   C1453     1.0  0.15420  0.96400  0.00883  1.0000
  C   C1454     1.0  0.27204  0.90642  0.15576  1.0000
  H   H1161     1.0  0.04014  0.98310  0.97864  1.0000
  C   C1455     1.0  0.01214  0.84471  0.01287  1.0000
  C   C1456     1.0  0.06307  0.85771  0.11537  1.0000
  H   H1162     1.0  0.30366  0.89083  0.15767  1.0000
  H   H1163     1.0  0.03480  0.97325  0.10018  1.0000
  H   H1164     1.0  0.00876  0.92564  0.99901  1.0000
  Fe  Fe99      1.0  0.41758  0.73311  0.21975  1.0000
  C   C1457     1.0  0.13861  0.89030  0.22566  1.0000
  C   C1458     1.0  0.40716  0.66747  0.12678  1.0000
  H   H1165     1.0  0.01390  0.86532  0.13620  1.0000
  Fe  Fe100     1.0  0.20998  0.89242  0.22537  1.0000
  H   H1166     1.0  0.44556  0.68925  0.17862  1.0000
  H   H1167     1.0  0.30903  0.85998  0.21982  1.0000
  C   C1459     1.0  0.14936  0.90860  0.21893  1.0000
  H   H1168     1.0  0.45232  0.88909  0.20555  1.0000
  C   C1460     1.0  0.00345  0.76815  0.10621  1.0000
  S   S192      1.0  0.00504  0.85120  0.06996  1.0000
  C   C1461     1.0  0.08000  0.98378  0.11709  1.0000
  H   H1169     1.0  0.01383  0.96481  0.99906  1.0000
  H   H1170     1.0  0.09835  0.80001  0.22319  1.0000
  H   H1171     1.0  0.48388  0.69111  0.07066  1.0000
  C   C1462     1.0  0.00368  0.80827  0.17399  1.0000
  C   C1463     1.0  0.02056  0.93334  0.99026  1.0000
  H   H1172     1.0  0.48369  0.89439  0.18509  1.0000
  C   C1464     1.0  0.17714  0.84464  0.22803  1.0000
  C   C1465     1.0  0.00019  0.77603  0.22836  1.0000
  H   H1173     1.0  0.21163  0.98541  0.22815  1.0000
  Fe  Fe101     1.0  0.02150  0.85945  0.40036  1.0000
  S   S193      1.0  0.04998  0.83508  0.40044  1.0000
  Fe  Fe102     1.0  0.04983  0.89796  0.39682  1.0000
  S   S194      1.0  0.08038  0.87684  0.39627  1.0000
  S   S195      1.0  0.04640  0.93446  0.39603  1.0000
  Fe  Fe103     1.0  0.06460  0.85720  0.37968  1.0000
  S   S196      1.0  0.08225  0.85038  0.35505  1.0000
  Fe  Fe104     1.0  0.06296  0.85686  0.41701  1.0000
  S   S197      1.0  0.07931  0.84566  0.43988  1.0000
  S   S198      1.0  0.03513  0.88025  0.37882  1.0000
  S   S199      1.0  0.03341  0.87922  0.41829  1.0000
  S   S200      1.0  0.12722  0.98636  0.40735  1.0000
  Fe  Fe105     1.0  0.10978  0.72716  0.26442  1.0000
  S   S201      1.0  0.10194  0.74890  0.24216  1.0000
  S   S202      1.0  0.12806  0.69482  0.25788  1.0000
  Fe  Fe106     1.0  0.09198  0.76319  0.28614  1.0000
  S   S203      1.0  0.08447  0.78701  0.26506  1.0000
  S   S204      1.0  0.08263  0.76933  0.31273  1.0000
  Fe  Fe107     1.0  0.06996  0.75915  0.25511  1.0000
  H   H1174     1.0  0.35003  0.71380  0.32287  1.0000
  Fe  Fe108     1.0  0.11662  0.77497  0.25354  1.0000
  H   H1175     1.0  0.04261  0.80687  0.44399  1.0000
  S   S205      1.0  0.07631  0.73543  0.27675  1.0000
  S   S206      1.0  0.12554  0.75322  0.27528  1.0000
  C   C1466     1.0  0.02781  0.89750  0.32647  1.0000
  P   P52       1.0  0.14968  0.96493  0.34731  1.0000
  H   H1176     1.0  0.32572  0.75980  0.26040  1.0000
  H   H1177     1.0  0.11013  0.89809  0.36221  1.0000
  C   C1467     1.0  0.21723  0.81446  0.25190  1.0000
  H   H1178     1.0  0.03600  0.94141  0.34667  1.0000
  H   H1179     1.0  0.13890  0.99546  0.44068  1.0000
  C   C1468     1.0  0.15006  0.67686  0.26432  1.0000
  H   H1180     1.0  0.04020  0.87006  0.45199  1.0000
  C   C1469     1.0  0.00754  0.81392  0.35056  1.0000
  H   H1181     1.0  0.25629  0.68287  0.28356  1.0000
  H   H1182     1.0  0.16686  0.76940  0.28767  1.0000
  C   C1470     1.0  0.15312  0.79803  0.29785  1.0000
  C   C1471     1.0  0.14958  0.82555  0.25335  1.0000
  H   H1183     1.0  0.24099  0.76526  0.32803  1.0000
  H   H1184     1.0  0.21484  0.68617  0.26200  1.0000
  C   C1472     1.0  0.08135  0.82797  0.34326  1.0000
  C   C1473     1.0  0.07231  0.80853  0.34963  1.0000
  C   C1474     1.0  0.07296  0.79086  0.34009  1.0000
  C   C1475     1.0  0.08221  0.79243  0.32397  1.0000
  C   C1476     1.0  0.09078  0.81207  0.31744  1.0000
  C   C1477     1.0  0.09049  0.82963  0.32708  1.0000
  H   H1185     1.0  0.06527  0.80690  0.36203  1.0000
  H   H1186     1.0  0.06642  0.77574  0.34529  1.0000
  H   H1187     1.0  0.09789  0.81363  0.30506  1.0000
  H   H1188     1.0  0.09750  0.84458  0.32198  1.0000
  C   C1478     1.0  0.06879  0.94830  0.40013  1.0000
  C   C1479     1.0  0.06680  0.97091  0.40017  1.0000
  C   C1480     1.0  0.08449  0.98254  0.40285  1.0000
  C   C1481     1.0  0.10449  0.97170  0.40512  1.0000
  C   C1482     1.0  0.10644  0.94903  0.40533  1.0000
  C   C1483     1.0  0.08860  0.93733  0.40294  1.0000
  H   H1189     1.0  0.05160  0.97956  0.39793  1.0000
  C   C1484     1.0  0.10882  0.91567  0.36026  1.0000
  H   H1190     1.0  0.12176  0.94047  0.40716  1.0000
  H   H1191     1.0  0.09031  0.91990  0.40304  1.0000
  C   C1485     1.0  0.06833  0.85145  0.45958  1.0000
  C   C1486     1.0  0.22729  0.79625  0.26004  1.0000
  C   C1487     1.0  0.04881  0.86362  0.46214  1.0000
  C   C1488     1.0  0.14774  0.98496  0.46466  1.0000
  C   C1489     1.0  0.17630  0.82813  0.29635  1.0000
  P   P53       1.0  0.21152  0.77878  0.27481  1.0000
  H   H1192     1.0  0.15703  0.85190  0.26657  1.0000
  H   H1193     1.0  0.99704  0.94235  0.46937  1.0000
  C   C1490     1.0  0.00551  0.82166  0.36591  1.0000
  H   H1194     1.0  0.08453  0.96396  0.46287  1.0000
  C   C1491     1.0  0.35115  0.71842  0.29691  1.0000
  H   H1195     1.0  0.17421  0.99055  0.41447  1.0000
  C   C1492     1.0  0.03732  0.88049  0.33604  1.0000
  C   C1493     1.0  0.33964  0.68851  0.28393  1.0000
  C   C1494     1.0  0.23705  0.70429  0.24503  1.0000
  C   C1495     1.0  0.02868  0.81374  0.31135  1.0000
  H   H1196     1.0  0.03507  0.97787  0.35672  1.0000
  C   C1496     1.0  0.00909  0.89432  0.31926  1.0000
  C   C1497     1.0  0.33571  0.67650  0.29898  1.0000
  H   H1197     1.0  0.13898  0.81820  0.26314  1.0000
  H   H1198     1.0  0.17872  0.84464  0.29869  1.0000
  C   C1498     1.0  0.25429  0.70303  0.23288  1.0000
  S   S207      1.0  0.25327  0.95934  0.22928  1.0000
  C   C1499     1.0  0.25576  0.73614  0.29587  1.0000
  C   C1500     1.0  0.24151  0.76026  0.31592  1.0000
  C   C1501     1.0  0.02293  0.96659  0.36145  1.0000
  C   C1502     1.0  0.48441  0.69790  0.33871  1.0000
  H   H1199     1.0  0.23028  0.71989  0.24842  1.0000
  C   C1503     1.0  0.48769  0.69024  0.35465  1.0000
  C   C1504     1.0  0.14630  0.96864  0.47743  1.0000
  C   C1505     1.0  0.17272  0.94866  0.39129  1.0000
  C   C1506     1.0  0.34711  0.70674  0.31198  1.0000
  H   H1200     1.0  0.47239  0.70659  0.27410  1.0000
  C   C1507     1.0  0.18441  0.72339  0.26570  1.0000
  H   H1201     1.0  0.33650  0.67714  0.32483  1.0000
  H   H1202     1.0  0.13584  0.99735  0.32196  1.0000
  C   C1508     1.0  0.15320  0.81605  0.23876  1.0000
  C   C1509     1.0  0.02337  0.94611  0.35573  1.0000
  H   H1203     1.0  0.14325  0.93267  0.32430  1.0000
  C   C1510     1.0  0.31516  0.67101  0.24636  1.0000
  H   H1204     1.0  0.19061  0.78143  0.24463  1.0000
  H   H1205     1.0  0.18166  0.70754  0.27191  1.0000
  C   C1511     1.0  0.25517  0.74264  0.31146  1.0000
  P   P54       1.0  0.49011  0.69676  0.30529  1.0000
  H   H1206     1.0  0.26628  0.72242  0.29245  1.0000
  H   H1207     1.0  0.01409  0.96852  0.40734  1.0000
  C   C1512     1.0  0.42394  0.69738  0.30644  1.0000
  C   C1513     1.0  0.07923  0.84323  0.47305  1.0000
  C   C1514     1.0  0.45895  0.66412  0.44339  1.0000
  C   C1515     1.0  0.46270  0.69921  0.29959  1.0000
  H   H1208     1.0  0.16640  0.71813  0.24586  1.0000
  C   C1516     1.0  0.16983  0.78576  0.28996  1.0000
  C   C1517     1.0  0.18987  0.79469  0.28500  1.0000
  C   C1518     1.0  0.13002  0.87151  0.43396  1.0000
  C   C1519     1.0  0.14496  0.87993  0.42177  1.0000
  C   C1520     1.0  0.15034  0.90152  0.42127  1.0000
  C   C1521     1.0  0.14063  0.91479  0.43289  1.0000
  C   C1522     1.0  0.12547  0.90648  0.44515  1.0000
  C   C1523     1.0  0.12034  0.88467  0.44560  1.0000
  P   P55       1.0  0.11154  0.92349  0.45973  1.0000
  C   C1524     1.0  0.08533  0.93261  0.45323  1.0000
  C   C1525     1.0  0.16591  0.93948  0.30377  1.0000
  C   C1526     1.0  0.44188  0.81339  0.25180  1.0000
  H   H1209     1.0  0.13761  0.79109  0.30147  1.0000
  C   C1527     1.0  0.20358  0.94762  0.37132  1.0000
  C   C1528     1.0  0.16766  0.95687  0.36280  1.0000
  C   C1529     1.0  0.42239  0.80324  0.25552  1.0000
  C   C1530     1.0  0.07633  0.95339  0.45620  1.0000
  C   C1531     1.0  0.05676  0.96098  0.45026  1.0000
  C   C1532     1.0  0.05428  0.92689  0.43904  1.0000
  H   H1210     1.0  0.02717  0.79447  0.27471  1.0000
  C   C1533     1.0  0.12641  0.94715  0.46168  1.0000
  C   C1534     1.0  0.12753  0.96389  0.44908  1.0000
  C   C1535     1.0  0.13823  0.98265  0.45052  1.0000
  H   H1211     1.0  0.01698  0.72953  0.24957  1.0000
  H   H1212     1.0  0.20099  0.97993  0.29898  1.0000
  H   H1213     1.0  0.99872  0.83789  0.36764  1.0000
  H   H1214     1.0  0.12555  0.85484  0.43427  1.0000
  H   H1215     1.0  0.15220  0.86972  0.41265  1.0000
  H   H1216     1.0  0.16186  0.90797  0.41174  1.0000
  H   H1217     1.0  0.14487  0.93149  0.43209  1.0000
  H   H1218     1.0  0.10847  0.87783  0.45477  1.0000
  H   H1219     1.0  0.07453  0.91768  0.36709  1.0000
  C   C1536     1.0  0.49045  0.72194  0.24289  1.0000
  C   C1537     1.0  0.44500  0.69576  0.31115  1.0000
  H   H1220     1.0  0.04024  0.81595  0.31986  1.0000
  C   C1538     1.0  0.12556  0.95010  0.35285  1.0000
  C   C1539     1.0  0.13567  0.94981  0.47599  1.0000
  H   H1221     1.0  0.05034  0.97729  0.45204  1.0000
  C   C1540     1.0  0.31143  0.76332  0.23783  1.0000
  H   H1222     1.0  0.11983  0.96253  0.43818  1.0000
  C   C1541     1.0  0.24338  0.98512  0.23620  1.0000
  C   C1542     1.0  0.15914  0.95415  0.37901  1.0000
  C   C1543     1.0  0.25730  0.99721  0.24372  1.0000
  H   H1223     1.0  0.09441  0.83389  0.47123  1.0000
  H   H1224     1.0  0.30988  0.68035  0.25639  1.0000
  H   H1225     1.0  0.41512  0.80150  0.26787  1.0000
  C   C1544     1.0  0.24266  0.74723  0.28474  1.0000
  H   H1226     1.0  0.14280  0.91859  0.35381  1.0000
  C   C1545     1.0  0.03597  0.80469  0.29698  1.0000
  C   C1546     1.0  0.33942  0.68587  0.31303  1.0000
  C   C1547     1.0  0.18976  0.76504  0.25034  1.0000
  H   H1227     1.0  0.41035  0.69466  0.31540  1.0000
  H   H1228     1.0  0.40415  0.70369  0.28651  1.0000
  C   C1548     1.0  0.12723  0.92733  0.35543  1.0000
  C   C1549     1.0  0.02861  0.81514  0.44993  1.0000
  C   C1550     1.0  0.17861  0.97311  0.32004  1.0000
  H   H1229     1.0  0.22083  0.94501  0.36834  1.0000
  C   C1551     1.0  0.08696  0.94932  0.36071  1.0000
  C   C1552     1.0  0.42043  0.70243  0.29019  1.0000
  S   S208      1.0  0.03939  0.77057  0.24187  1.0000
  H   H1230     1.0  0.29584  0.68133  0.28451  1.0000
  P   P56       1.0  0.99777  0.83084  0.33366  1.0000
  C   C1553     1.0  0.26197  0.80694  0.24647  1.0000
  H   H1231     1.0  0.20549  0.94109  0.39699  1.0000
  H   H1232     1.0  0.44984  0.81938  0.26130  1.0000
  C   C1554     1.0  0.01341  0.82674  0.44077  1.0000
  H   H1233     1.0  0.18347  0.99291  0.38485  1.0000
  H   H1234     1.0  0.19994  0.81771  0.25389  1.0000
  C   C1555     1.0  0.49085  0.76564  0.24781  1.0000
  H   H1235     1.0  0.00791  0.91573  0.35747  1.0000
  C   C1556     1.0  0.18216  0.95273  0.29654  1.0000
  C   C1557     1.0  0.02077  0.78736  0.37740  1.0000
  H   H1236     1.0  0.35067  0.71815  0.27111  1.0000
  C   C1558     1.0  0.02609  0.81473  0.46674  1.0000
  C   C1559     1.0  0.47246  0.75754  0.24223  1.0000
  C   C1560     1.0  0.19309  0.81587  0.28852  1.0000
  C   C1561     1.0  0.01561  0.79248  0.34889  1.0000
  C   C1562     1.0  0.45899  0.70410  0.28327  1.0000
  C   C1563     1.0  0.14309  0.99382  0.34696  1.0000
  H   H1237     1.0  0.03100  0.95382  0.43651  1.0000
  C   C1564     1.0  0.25183  0.82522  0.23871  1.0000
  H   H1238     1.0  0.44734  0.69168  0.32377  1.0000
  C   C1565     1.0  0.19003  0.95342  0.35902  1.0000
  C   C1566     1.0  0.99597  0.83836  0.44836  1.0000
  H   H1239     1.0  0.27934  0.80413  0.24434  1.0000
  H   H1240     1.0  0.18366  0.98632  0.32613  1.0000
  C   C1567     1.0  0.43796  0.70580  0.27862  1.0000
  H   H1241     1.0  0.03605  0.84726  0.34572  1.0000
  H   H1242     1.0  0.34812  0.67810  0.45484  1.0000
  H   H1243     1.0  0.03516  0.91300  0.32447  1.0000
  H   H1244     1.0  0.16591  0.94746  0.40378  1.0000
  C   C1568     1.0  0.15597  0.94299  0.31915  1.0000
  H   H1245     1.0  0.35725  0.73451  0.29607  1.0000
  S   S209      1.0  0.24446  0.89562  0.23018  1.0000
  C   C1569     1.0  0.19891  0.75899  0.26490  1.0000
  C   C1570     1.0  0.15979  0.84460  0.25525  1.0000
  H   H1246     1.0  0.26522  0.73398  0.32012  1.0000
  C   C1571     1.0  0.16239  0.95973  0.32749  1.0000
  H   H1247     1.0  0.21781  0.78490  0.30856  1.0000
  C   C1572     1.0  0.10527  0.96104  0.35569  1.0000
  C   C1573     1.0  0.19580  0.73812  0.27269  1.0000
  C   C1574     1.0  0.08870  0.92667  0.36290  1.0000
  H   H1248     1.0  0.14644  0.68365  0.28922  1.0000
  H   H1249     1.0  0.08016  0.90308  0.44246  1.0000
  H   H1250     1.0  0.25820  0.77874  0.26312  1.0000
  C   C1575     1.0  0.22879  0.76490  0.28915  1.0000
  H   H1251     1.0  0.27623  0.71615  0.25652  1.0000
  C   C1576     1.0  0.99803  0.91265  0.45789  1.0000
  H   H1252     1.0  0.05293  0.79978  0.29460  1.0000
  H   H1253     1.0  0.02861  0.99562  0.42261  1.0000
  H   H1254     1.0  0.10354  0.97857  0.35448  1.0000
  H   H1255     1.0  0.30282  0.72995  0.27236  1.0000
  H   H1256     1.0  0.20845  0.82307  0.28504  1.0000
  C   C1577     1.0  0.07390  0.91925  0.44485  1.0000
  C   C1578     1.0  0.26266  0.68255  0.22868  1.0000
  C   C1579     1.0  0.02810  0.86033  0.33854  1.0000
  C   C1580     1.0  0.15631  0.81923  0.30099  1.0000
  H   H1257     1.0  0.20133  0.73339  0.28446  1.0000
  C   C1581     1.0  0.22949  0.82899  0.24146  1.0000
  S   S210      1.0  0.38544  0.74373  0.23221  1.0000
  C   C1582     1.0  0.18846  0.96959  0.30466  1.0000
  C   C1583     1.0  0.00682  0.74086  0.24259  1.0000
  H   H1258     1.0  0.05209  0.88278  0.34138  1.0000
  C   C1584     1.0  0.00336  0.98144  0.41190  1.0000
  H   H1259     1.0  0.01052  0.81444  0.39105  1.0000
  C   C1585     1.0  0.01389  0.76161  0.23741  1.0000
  H   H1260     1.0  0.33706  0.68174  0.27289  1.0000
  C   C1586     1.0  0.22836  0.77138  0.30482  1.0000
  C   C1587     1.0  0.49169  0.68529  0.32595  1.0000
  C   C1588     1.0  0.24981  0.79252  0.25712  1.0000
  C   C1589     1.0  0.17366  0.85417  0.24261  1.0000
  H   H1261     1.0  0.24322  0.74198  0.27271  1.0000
  H   H1262     1.0  0.01684  0.78573  0.33736  1.0000
  H   H1263     1.0  0.14788  0.99641  0.37211  1.0000
  C   C1590     1.0  0.31357  0.75421  0.25360  1.0000
  C   C1591     1.0  0.30060  0.73744  0.26033  1.0000
  C   C1592     1.0  0.28547  0.72971  0.25130  1.0000
  C   C1593     1.0  0.04582  0.94779  0.44157  1.0000
  H   H1264     1.0  0.14325  0.82872  0.30700  1.0000
  H   H1265     1.0  0.07148  0.95777  0.36347  1.0000
  C   C1594     1.0  0.29634  0.75564  0.22877  1.0000
  S   S211      1.0  0.18657  0.87779  0.24545  1.0000
  C   C1595     1.0  0.02239  0.77936  0.36225  1.0000
  C   C1596     1.0  0.19495  0.94532  0.38746  1.0000
  H   H1266     1.0  0.02615  0.77726  0.38773  1.0000
  H   H1267     1.0  0.18986  0.94997  0.28462  1.0000
  H   H1268     1.0  0.02908  0.76302  0.36080  1.0000
  C   C1597     1.0  0.01214  0.80841  0.37924  1.0000
  C   C1598     1.0  0.00917  0.85709  0.33149  1.0000
  H   H1269     1.0  0.32195  0.77590  0.23245  1.0000
  C   C1599     1.0  0.17829  0.75022  0.24346  1.0000
  H   H1270     1.0  0.16100  0.92647  0.29740  1.0000
  H   H1271     1.0  0.14197  0.95684  0.38217  1.0000
  H   H1272     1.0  0.01538  0.82708  0.42774  1.0000
  H   H1273     1.0  0.19712  0.95512  0.34665  1.0000
  H   H1274     1.0  0.13598  0.88715  0.23868  1.0000
  H   H1275     1.0  0.04602  0.91684  0.43203  1.0000
  C   C1600     1.0  0.17577  0.72937  0.25104  1.0000
  C   C1601     1.0  0.33245  0.67769  0.23533  1.0000
  C   C1602     1.0  0.34740  0.70929  0.28289  1.0000
  H   H1276     1.0  0.48271  0.70028  0.36441  1.0000
  H   H1277     1.0  0.27338  0.99043  0.24564  1.0000
  H   H1278     1.0  0.00704  0.91912  0.44690  1.0000
  C   C1603     1.0  0.22824  0.68533  0.25272  1.0000
  S   S212      1.0  0.34590  0.70071  0.23886  1.0000
  H   H1279     1.0  0.22171  0.84339  0.23562  1.0000
  C   C1604     1.0  0.00710  0.97239  0.37358  1.0000
  S   S213      1.0  0.14095  0.79228  0.23555  1.0000
  C   C1605     1.0  0.15548  0.67425  0.28031  1.0000
  H   H1280     1.0  0.45860  0.76826  0.23982  1.0000
  H   H1281     1.0  0.43534  0.70972  0.26597  1.0000
  H   H1282     1.0  0.49088  0.78269  0.24952  1.0000
  H   H1283     1.0  0.47693  0.71399  0.33627  1.0000
  C   C1606     1.0  0.28315  0.73884  0.23545  1.0000
  C   C1607     1.0  0.47219  0.73566  0.23944  1.0000
  H   H1284     1.0  0.00192  0.90741  0.31163  1.0000
  C   C1608     1.0  0.00665  0.81949  0.31484  1.0000
  C   C1609     1.0  0.99960  0.80812  0.28889  1.0000
  C   C1610     1.0  0.23650  0.66508  0.24832  1.0000
  C   C1611     1.0  0.02144  0.80172  0.28579  1.0000
  C   C1612     1.0  0.00763  0.93163  0.36184  1.0000
  H   H1285     1.0  0.00702  0.98831  0.37788  1.0000
  H   H1286     1.0  0.26129  0.83660  0.23067  1.0000
  C   C1613     1.0  0.99993  0.87411  0.32161  1.0000
  H   H1287     1.0  0.48144  0.73860  0.28573  1.0000
  H   H1288     1.0  0.46229  0.67503  0.43260  1.0000
  C   C1614     1.0  0.49386  0.74049  0.29352  1.0000
  C   C1615     1.0  0.41240  0.79507  0.24332  1.0000
  C   C1616     1.0  0.00851  0.82610  0.47440  1.0000
  C   C1617     1.0  0.26412  0.66985  0.29084  1.0000
  H   H1289     1.0  0.17056  0.75515  0.23253  1.0000
  H   H1290     1.0  0.48976  0.66771  0.45229  1.0000
  C   C1618     1.0  0.45128  0.81557  0.23584  1.0000
  S   S214      1.0  0.44984  0.72462  0.23148  1.0000
  C   C1619     1.0  0.22260  0.99428  0.23392  1.0000
  C   C1620     1.0  0.01157  0.99651  0.42078  1.0000
  C   C1621     1.0  0.28657  0.66883  0.29135  1.0000
  H   H1291     1.0  0.03819  0.80620  0.47383  1.0000
  H   H1292     1.0  0.49054  0.70496  0.24092  1.0000
  H   H1293     1.0  0.39734  0.78705  0.24614  1.0000
  H   H1294     1.0  0.15792  0.66577  0.24068  1.0000
  H   H1295     1.0  0.34590  0.66994  0.42655  1.0000
  C   C1622     1.0  0.35947  0.66625  0.44950  1.0000
  H   H1296     1.0  0.99693  0.88134  0.44952  1.0000
  H   H1297     1.0  0.14291  0.89661  0.47767  1.0000
  C   C1623     1.0  0.03989  0.86668  0.47796  1.0000
  H   H1298     1.0  0.46659  0.82312  0.23320  1.0000
  H   H1299     1.0  0.99615  0.92467  0.40671  1.0000
  Fe  Fe109     1.0  0.07331  0.88451  0.55708  1.0000
  S   S215      1.0  0.07851  0.85161  0.54788  1.0000
  S   S216      1.0  0.10047  0.90710  0.55483  1.0000
  Fe  Fe110     1.0  0.02548  0.87912  0.56611  1.0000
  S   S217      1.0  0.02691  0.84557  0.55811  1.0000
  Fe  Fe111     1.0  0.05768  0.84060  0.57062  1.0000
  S   S218      1.0  0.06997  0.81090  0.58621  1.0000
  Fe  Fe112     1.0  0.04754  0.85975  0.53625  1.0000
  S   S219      1.0  0.03667  0.86007  0.51093  1.0000
  S   S220      1.0  0.05443  0.87323  0.58027  1.0000
  S   S221      1.0  0.04416  0.89355  0.54393  1.0000
  C   C1624     1.0  0.45084  0.69028  0.69739  1.0000
  Fe  Fe113     1.0  0.07064  0.77445  0.68306  1.0000
  S   S222      1.0  0.06741  0.79655  0.70303  1.0000
  S   S223      1.0  0.05143  0.79044  0.66261  1.0000
  Fe  Fe114     1.0  0.09440  0.73827  0.70422  1.0000
  S   S224      1.0  0.10987  0.70334  0.70804  1.0000
  H   H1300     1.0  0.00114  0.88962  0.61210  1.0000
  C   C1625     1.0  0.21533  0.79810  0.72409  1.0000
  Fe  Fe115     1.0  0.10154  0.78579  0.70719  1.0000
  S   S225      1.0  0.12851  0.80882  0.70771  1.0000
  S   S226      1.0  0.05904  0.74553  0.69957  1.0000
  S   S227      1.0  0.10585  0.76546  0.68602  1.0000
  H   H1301     1.0  0.02069  0.95681  0.53456  1.0000
  H   H1302     1.0  0.20270  0.82325  0.68780  1.0000
  C   C1626     1.0  0.10893  0.90677  0.47868  1.0000
  C   C1627     1.0  0.12724  0.89544  0.48451  1.0000
  C   C1628     1.0  0.26385  0.73423  0.72044  1.0000
  C   C1629     1.0  0.14013  0.66866  0.71125  1.0000
  C   C1630     1.0  0.15528  0.73468  0.72577  1.0000
  H   H1303     1.0  0.07434  0.91226  0.48293  1.0000
  C   C1631     1.0  0.15058  0.96317  0.66876  1.0000
  H   H1304     1.0  0.07879  0.93368  0.51422  1.0000
  C   C1632     1.0  0.49389  0.66888  0.64742  1.0000
  H   H1305     1.0  0.10397  0.87091  0.51959  1.0000
  C   C1633     1.0  0.49146  0.75160  0.69340  1.0000
  H   H1306     1.0  0.00746  0.82588  0.48738  1.0000
  H   H1307     1.0  0.48430  0.76548  0.69931  1.0000
  H   H1308     1.0  0.26762  0.72340  0.71099  1.0000
  C   C1634     1.0  0.49130  0.67409  0.71115  1.0000
  H   H1309     1.0  0.48394  0.69833  0.65823  1.0000
  C   C1635     1.0  0.10620  0.95596  0.63609  1.0000
  H   H1310     1.0  0.24782  0.91849  0.71737  1.0000
  C   C1636     1.0  0.21015  0.98133  0.71662  1.0000
  H   H1311     1.0  0.00927  0.90214  0.50971  1.0000
  C   C1637     1.0  0.04660  0.98306  0.54520  1.0000
  H   H1312     1.0  0.46683  0.73080  0.70390  1.0000
  C   C1638     1.0  0.13624  0.69011  0.70440  1.0000
  H   H1313     1.0  0.10609  0.94248  0.66085  1.0000
  C   C1639     1.0  0.15876  0.95743  0.70130  1.0000
  C   C1640     1.0  0.06597  0.80691  0.60765  1.0000
  C   C1641     1.0  0.04844  0.81706  0.61628  1.0000
  C   C1642     1.0  0.04451  0.81203  0.63312  1.0000
  C   C1643     1.0  0.05838  0.79729  0.64163  1.0000
  C   C1644     1.0  0.07639  0.78771  0.63309  1.0000
  C   C1645     1.0  0.07998  0.79231  0.61616  1.0000
  H   H1314     1.0  0.03760  0.82827  0.60983  1.0000
  H   H1315     1.0  0.03053  0.81945  0.63962  1.0000
  H   H1316     1.0  0.08712  0.77623  0.63942  1.0000
  H   H1317     1.0  0.09355  0.78429  0.60959  1.0000
  C   C1646     1.0  0.09378  0.93106  0.56428  1.0000
  C   C1647     1.0  0.07416  0.93377  0.57377  1.0000
  C   C1648     1.0  0.06926  0.95292  0.58140  1.0000
  C   C1649     1.0  0.08362  0.96968  0.57912  1.0000
  C   C1650     1.0  0.10308  0.96708  0.56947  1.0000
  C   C1651     1.0  0.10831  0.94764  0.56232  1.0000
  H   H1318     1.0  0.06286  0.92105  0.57532  1.0000
  H   H1319     1.0  0.05420  0.95486  0.58888  1.0000
  C   C1652     1.0  0.11709  0.68258  0.66732  1.0000
  H   H1320     1.0  0.12362  0.94549  0.55521  1.0000
  C   C1653     1.0  0.07032  0.84640  0.48892  1.0000
  C   C1654     1.0  0.05035  0.85781  0.49143  1.0000
  C   C1655     1.0  0.15465  0.93958  0.69333  1.0000
  H   H1321     1.0  0.07854  0.83943  0.49918  1.0000
  H   H1322     1.0  0.13105  0.98629  0.52475  1.0000
  H   H1323     1.0  0.41235  0.70361  0.72739  1.0000
  C   C1656     1.0  0.15470  0.83192  0.72337  1.0000
  H   H1324     1.0  0.41439  0.67871  0.64888  1.0000
  H   H1325     1.0  0.44365  0.68046  0.67439  1.0000
  C   C1657     1.0  0.12545  0.88255  0.49923  1.0000
  C   C1658     1.0  0.02705  0.87118  0.62336  1.0000
  C   C1659     1.0  0.01770  0.88949  0.61506  1.0000
  C   C1660     1.0  0.02999  0.90738  0.61003  1.0000
  C   C1661     1.0  0.05156  0.90705  0.61340  1.0000
  C   C1662     1.0  0.06115  0.88873  0.62178  1.0000
  C   C1663     1.0  0.04875  0.87063  0.62644  1.0000
  P   P57       1.0  0.08954  0.88759  0.62513  1.0000
  C   C1664     1.0  0.09439  0.86770  0.64196  1.0000
  C   C1665     1.0  0.10473  0.87865  0.60717  1.0000
  C   C1666     1.0  0.09848  0.86041  0.60045  1.0000
  C   C1667     1.0  0.10987  0.85337  0.58647  1.0000
  C   C1668     1.0  0.12762  0.86439  0.57912  1.0000
  C   C1669     1.0  0.13441  0.88211  0.58601  1.0000
  C   C1670     1.0  0.12324  0.88904  0.60012  1.0000
  C   C1671     1.0  0.07983  0.86651  0.65596  1.0000
  C   C1672     1.0  0.08305  0.85051  0.66865  1.0000
  C   C1673     1.0  0.10093  0.83576  0.66757  1.0000
  C   C1674     1.0  0.11564  0.83700  0.65380  1.0000
  C   C1675     1.0  0.11244  0.85289  0.64104  1.0000
  C   C1676     1.0  0.09668  0.91422  0.62940  1.0000
  C   C1677     1.0  0.09897  0.93112  0.61692  1.0000
  C   C1678     1.0  0.10367  0.95186  0.62027  1.0000
  H   H1326     1.0  0.38829  0.69488  0.70733  1.0000
  C   C1679     1.0  0.48163  0.73175  0.69601  1.0000
  C   C1680     1.0  0.09945  0.91850  0.64526  1.0000
  H   H1327     1.0  0.01767  0.85717  0.62705  1.0000
  H   H1328     1.0  0.13492  0.69594  0.64564  1.0000
  S   S228      1.0  0.07723  0.99356  0.58872  1.0000
  H   H1329     1.0  0.06071  0.92094  0.60908  1.0000
  H   H1330     1.0  0.05588  0.85588  0.63223  1.0000
  H   H1331     1.0  0.08470  0.85164  0.60590  1.0000
  H   H1332     1.0  0.10472  0.83952  0.58119  1.0000
  H   H1333     1.0  0.13599  0.85929  0.56802  1.0000
  H   H1334     1.0  0.14814  0.89068  0.58025  1.0000
  H   H1335     1.0  0.12912  0.90249  0.60535  1.0000
  H   H1336     1.0  0.06578  0.87769  0.65693  1.0000
  H   H1337     1.0  0.07153  0.84924  0.67926  1.0000
  H   H1338     1.0  0.10335  0.82325  0.67737  1.0000
  H   H1339     1.0  0.12938  0.82539  0.65297  1.0000
  H   H1340     1.0  0.12394  0.85334  0.63043  1.0000
  H   H1341     1.0  0.09708  0.92834  0.60454  1.0000
  H   H1342     1.0  0.10516  0.96480  0.61055  1.0000
  C   C1681     1.0  0.41464  0.68714  0.68957  1.0000
  H   H1343     1.0  0.13839  0.76588  0.72229  1.0000
  H   H1344     1.0  0.09790  0.90591  0.65515  1.0000
  H   H1345     1.0  0.03505  0.91466  0.48679  1.0000
  C   C1682     1.0  0.15476  0.98123  0.67667  1.0000
  C   C1683     1.0  0.26043  0.91451  0.72540  1.0000
  H   H1346     1.0  0.00171  0.92353  0.53318  1.0000
  C   C1684     1.0  0.12614  0.95310  0.52137  1.0000
  H   H1347     1.0  0.02294  0.92126  0.60307  1.0000
  C   C1685     1.0  0.10535  0.88080  0.50815  1.0000
  C   C1686     1.0  0.22978  0.83387  0.71931  1.0000
  C   C1687     1.0  0.15865  0.97818  0.69306  1.0000
  C   C1688     1.0  0.03965  0.99500  0.55826  1.0000
  P   P58       1.0  0.05625  0.97739  0.51259  1.0000
  Fe  Fe116     1.0  0.05700  0.76748  0.71959  1.0000
  C   C1689     1.0  0.22084  0.83716  0.70452  1.0000
  H   H1348     1.0  0.49500  0.67671  0.63519  1.0000
  H   H1349     1.0  0.13959  0.87386  0.50374  1.0000
  H   H1350     1.0  0.19622  0.99347  0.68142  1.0000
  C   C1690     1.0  0.11127  0.93840  0.51846  1.0000
  H   H1351     1.0  0.07140  0.89009  0.50914  1.0000
  C   C1691     1.0  0.09013  0.94562  0.51570  1.0000
  C   C1692     1.0  0.00199  0.78424  0.69478  1.0000
  H   H1352     1.0  0.10966  0.97209  0.63866  1.0000
  H   H1353     1.0  0.14181  0.72582  0.72312  1.0000
  H   H1354     1.0  0.02077  0.99065  0.49291  1.0000
  C   C1693     1.0  0.13232  0.68159  0.65393  1.0000
  C   C1694     1.0  0.01720  0.91717  0.50992  1.0000
  C   C1695     1.0  0.09861  0.98234  0.51913  1.0000
  H   H1355     1.0  0.45185  0.70054  0.72134  1.0000
  C   C1696     1.0  0.17720  0.66709  0.69848  1.0000
  H   H1356     1.0  0.03882  0.98717  0.57046  1.0000
  C   C1697     1.0  0.15310  0.69997  0.69457  1.0000
  H   H1357     1.0  0.00693  0.76611  0.67399  1.0000
  C   C1698     1.0  0.08702  0.89173  0.50229  1.0000
  C   C1699     1.0  0.44167  0.69680  0.71233  1.0000
  C   C1700     1.0  0.24335  0.74480  0.72238  1.0000
  H   H1358     1.0  0.01889  0.78776  0.69438  1.0000
  C   C1701     1.0  0.03982  0.95456  0.51149  1.0000
  C   C1702     1.0  0.11380  0.66417  0.67811  1.0000
  C   C1703     1.0  0.49138  0.71344  0.68900  1.0000
  C   C1704     1.0  0.15331  0.75726  0.72534  1.0000
  C   C1705     1.0  0.41924  0.69847  0.71584  1.0000
  H   H1359     1.0  0.11587  0.92122  0.51909  1.0000
  C   C1706     1.0  0.40571  0.69360  0.70450  1.0000
  H   H1360     1.0  0.18605  0.69636  0.68388  1.0000
  H   H1361     1.0  0.22273  0.85235  0.69707  1.0000
  C   C1707     1.0  0.20694  0.80122  0.70899  1.0000
  H   H1362     1.0  0.10808  0.69771  0.66958  1.0000
  C   C1708     1.0  0.13512  0.82157  0.72448  1.0000
  C   C1709     1.0  0.10417  0.93928  0.64857  1.0000
  H   H1363     1.0  0.16537  0.83192  0.71234  1.0000
  H   H1364     1.0  0.15050  0.71634  0.68908  1.0000
  H   H1365     1.0  0.23875  0.84640  0.72336  1.0000
  H   H1366     1.0  0.15503  0.92347  0.69970  1.0000
  H   H1367     1.0  0.14756  0.92853  0.67089  1.0000
  H   H1368     1.0  0.23160  0.74238  0.71408  1.0000
  H   H1369     1.0  0.10228  0.66518  0.68867  1.0000
  H   H1370     1.0  0.14922  0.99532  0.60894  1.0000
  C   C1710     1.0  0.11976  0.97503  0.52183  1.0000
  H   H1371     1.0  0.40407  0.68340  0.68080  1.0000
  H   H1372     1.0  0.11428  0.97992  0.56769  1.0000
  H   H1373     1.0  0.13453  0.93765  0.48616  1.0000
  C   C1711     1.0  0.08875  0.90448  0.48751  1.0000
  C   C1712     1.0  0.20956  0.82077  0.69931  1.0000
  C   C1713     1.0  0.03194  0.92415  0.49709  1.0000
  H   H1374     1.0  0.16233  0.99175  0.69937  1.0000
  C   C1714     1.0  0.02413  0.94800  0.52400  1.0000
  H   H1375     1.0  0.05493  0.94771  0.48797  1.0000
  H   H1376     1.0  0.14232  0.94736  0.52399  1.0000
  H   H1377     1.0  0.05142  0.96599  0.54749  1.0000
  H   H1378     1.0  0.26159  0.88025  0.72277  1.0000
  P   P59       1.0  0.47996  0.68717  0.69333  1.0000
  H   H1379     1.0  0.14776  0.96489  0.65613  1.0000
  C   C1715     1.0  0.08371  0.96775  0.51567  1.0000
  C   C1716     1.0  0.04313  0.94281  0.49782  1.0000
  H   H1380     1.0  0.19837  0.78867  0.70463  1.0000
  H   H1381     1.0  0.20266  0.97384  0.70761  1.0000
  C   C1717     1.0  0.15047  0.94246  0.67710  1.0000
  H   H1382     1.0  0.16255  0.95508  0.71379  1.0000
  C   C1718     1.0  0.17331  0.68852  0.69161  1.0000
  H   H1383     1.0  0.99849  0.84773  0.59814  1.0000
  C   C1719     1.0  0.05503  0.99410  0.49365  1.0000
  H   H1384     1.0  0.32458  0.66919  0.71153  1.0000
  C   C1720     1.0  0.48776  0.68108  0.66052  1.0000
  H   H1385     1.0  0.02450  0.87552  0.47982  1.0000
  C   C1721     1.0  0.01297  0.92931  0.52319  1.0000
  S   S229      1.0  0.09137  0.75847  0.72556  1.0000
  H   H1386     1.0  0.15327  0.97067  0.48854  1.0000
  C   C1722     1.0  0.04753  0.99312  0.52936  1.0000
  H   H1387     1.0  0.16800  0.99216  0.63386  1.0000
  C   C1723     1.0  0.48707  0.67115  0.67641  1.0000
  H   H1388     1.0  0.00075  0.81704  0.61954  1.0000
  C   C1724     1.0  0.43711  0.68551  0.68599  1.0000
  H   H1389     1.0  0.16862  0.78630  0.72843  1.0000
  C   C1725     1.0  0.26821  0.89301  0.72841  1.0000
  Fe  Fe117     1.0  0.09138  0.92019  0.91734  1.0000
  S   S230      1.0  0.11416  0.89085  0.91837  1.0000
  S   S231      1.0  0.05512  0.92143  0.92034  1.0000
  Fe  Fe118     1.0  0.12731  0.95079  0.91260  1.0000
  S   S232      1.0  0.15352  0.92392  0.91317  1.0000
  H   H1390     1.0  0.43996  0.66604  0.75934  1.0000
  Fe  Fe119     1.0  0.13340  0.90804  0.89709  1.0000
  S   S233      1.0  0.14257  0.88818  0.87541  1.0000
  Fe  Fe120     1.0  0.13211  0.90916  0.93435  1.0000
  S   S234      1.0  0.14431  0.89025  0.95675  1.0000
  S   S235      1.0  0.10885  0.93616  0.89504  1.0000
  S   S236      1.0  0.10770  0.93718  0.93483  1.0000
  C   C1726     1.0  0.30801  0.75051  0.81752  1.0000
  H   H1391     1.0  0.23429  0.81213  0.74042  1.0000
  H   H1392     1.0  0.27084  0.68552  0.75635  1.0000
  H   H1393     1.0  0.07107  0.87815  0.91219  1.0000
  Fe  Fe121     1.0  0.35720  0.74339  0.77469  1.0000
  S   S237      1.0  0.37324  0.73809  0.74976  1.0000
  S   S238      1.0  0.33673  0.77375  0.78256  1.0000
  Fe  Fe122     1.0  0.37266  0.69775  0.78907  1.0000
  S   S239      1.0  0.38837  0.68958  0.76492  1.0000
  C   C1727     1.0  0.32548  0.67189  0.73698  1.0000
  Fe  Fe123     1.0  0.40188  0.72269  0.76221  1.0000
  H   H1394     1.0  0.33880  0.69450  0.82470  1.0000
  Fe  Fe124     1.0  0.35909  0.70528  0.75437  1.0000
  C   C1728     1.0  0.08908  0.99279  0.90861  1.0000
  S   S240      1.0  0.38712  0.73031  0.78709  1.0000
  S   S241      1.0  0.34193  0.71104  0.77857  1.0000
  Fe  Fe125     1.0  0.20986  0.89506  0.78917  1.0000
  S   S242      1.0  0.18435  0.90675  0.77267  1.0000
  S   S243      1.0  0.20976  0.90876  0.81357  1.0000
  Fe  Fe126     1.0  0.23467  0.86650  0.76464  1.0000
  S   S244      1.0  0.26050  0.83977  0.75703  1.0000
  Fe  Fe127     1.0  0.21172  0.91151  0.75313  1.0000
  Fe  Fe128     1.0  0.18516  0.87205  0.76683  1.0000
  C   C1729     1.0  0.33015  0.71012  0.82273  1.0000
  S   S245      1.0  0.23763  0.90139  0.76990  1.0000
  S   S246      1.0  0.20865  0.85989  0.78495  1.0000
  H   H1395     1.0  0.05159  0.84762  0.90423  1.0000
  C   C1730     1.0  0.04982  0.95405  0.96711  1.0000
  H   H1396     1.0  0.07135  0.75410  0.80542  1.0000
  C   C1731     1.0  0.31469  0.79089  0.77539  1.0000
  C   C1732     1.0  0.30906  0.79178  0.75951  1.0000
  C   C1733     1.0  0.29251  0.80676  0.75419  1.0000
  C   C1734     1.0  0.28125  0.82110  0.76461  1.0000
  C   C1735     1.0  0.28663  0.81987  0.78058  1.0000
  C   C1736     1.0  0.30318  0.80495  0.78588  1.0000
  H   H1397     1.0  0.27794  0.83024  0.78897  1.0000
  H   H1398     1.0  0.30728  0.80451  0.79819  1.0000
  C   C1737     1.0  0.02283  0.71903  0.83682  1.0000
  C   C1738     1.0  0.08671  0.88765  0.83717  1.0000
  C   C1739     1.0  0.14205  0.85909  0.81168  1.0000
  C   C1740     1.0  0.32556  0.87137  0.75967  1.0000
  C   C1741     1.0  0.09488  0.89132  0.80084  1.0000
  H   H1399     1.0  0.05959  0.89924  0.82366  1.0000
  H   H1400     1.0  0.31785  0.78135  0.75118  1.0000
  H   H1401     1.0  0.20652  0.72604  0.73637  1.0000
  H   H1402     1.0  0.14902  0.87271  0.80436  1.0000
  H   H1403     1.0  0.36942  0.93481  0.78191  1.0000
  C   C1742     1.0  0.15272  0.94306  0.81952  1.0000
  H   H1404     1.0  0.32920  0.92693  0.73461  1.0000
  C   C1743     1.0  0.09694  0.87505  0.79009  1.0000
  C   C1744     1.0  0.17062  0.76880  0.72865  1.0000
  C   C1745     1.0  0.39245  0.68564  0.83357  1.0000
  H   H1405     1.0  0.03065  0.97150  0.92054  1.0000
  C   C1746     1.0  0.44083  0.75799  0.81103  1.0000
  H   H1406     1.0  0.39181  0.70123  0.82654  1.0000
  C   C1747     1.0  0.01038  0.88621  0.90528  1.0000
  H   H1407     1.0  0.01761  0.77205  0.85815  1.0000
  H   H1408     1.0  0.02717  0.71029  0.79180  1.0000
  C   C1748     1.0  0.16177  0.89403  0.85855  1.0000
  C   C1749     1.0  0.17527  0.91138  0.85761  1.0000
  C   C1750     1.0  0.18998  0.91560  0.84383  1.0000
  C   C1751     1.0  0.19119  0.90271  0.83078  1.0000
  C   C1752     1.0  0.17789  0.88523  0.83181  1.0000
  C   C1753     1.0  0.16333  0.88087  0.84564  1.0000
  H   H1409     1.0  0.17436  0.92157  0.86748  1.0000
  H   H1410     1.0  0.20033  0.92906  0.84323  1.0000
  H   H1411     1.0  0.17908  0.87496  0.82203  1.0000
  H   H1412     1.0  0.15316  0.86728  0.84631  1.0000
  C   C1754     1.0  0.00173  0.89461  0.96894  1.0000
  P   P60       1.0  0.21221  0.77308  0.73685  1.0000
  H   H1413     1.0  0.09736  0.84418  0.83621  1.0000
  H   H1414     1.0  0.10967  0.87638  0.85448  1.0000
  H   H1415     1.0  0.09076  0.86644  0.76667  1.0000
  C   C1755     1.0  0.25438  0.76258  0.74453  1.0000
  C   C1756     1.0  0.02105  0.86597  0.90359  1.0000
  H   H1416     1.0  0.32586  0.86260  0.78544  1.0000
  C   C1757     1.0  0.02107  0.90301  0.91045  1.0000
  C   C1758     1.0  0.04289  0.90014  0.91307  1.0000
  C   C1759     1.0  0.05414  0.88039  0.91030  1.0000
  C   C1760     1.0  0.04312  0.86316  0.90579  1.0000
  C   C1761     1.0  0.14477  0.82085  0.82091  1.0000
  H   H1417     1.0  0.34872  0.83962  0.73081  1.0000
  C   C1762     1.0  0.19030  0.75785  0.73208  1.0000
  H   H1418     1.0  0.14959  0.77915  0.76752  1.0000
  C   C1763     1.0  0.46265  0.67671  0.83837  1.0000
  C   C1764     1.0  0.06979  0.88261  0.96661  1.0000
  H   H1419     1.0  0.32963  0.87545  0.73353  1.0000
  C   C1765     1.0  0.34814  0.83113  0.75643  1.0000
  C   C1766     1.0  0.02418  0.95645  0.88830  1.0000
  H   H1420     1.0  0.35818  0.95263  0.73229  1.0000
  C   C1767     1.0  0.47888  0.67707  0.82539  1.0000
  C   C1768     1.0  0.23821  0.75844  0.73484  1.0000
  S   S247      1.0  0.34529  0.69140  0.73370  1.0000
  C   C1769     1.0  0.04694  0.93190  0.96698  1.0000
  C   C1770     1.0  0.01690  0.83460  0.76211  1.0000
  C   C1771     1.0  0.27494  0.75221  0.74243  1.0000
  H   H1421     1.0  0.28858  0.80739  0.74182  1.0000
  C   C1772     1.0  0.08859  0.87883  0.77507  1.0000
  C   C1773     1.0  0.19195  0.73505  0.73300  1.0000
  H   H1422     1.0  0.02599  0.86013  0.95484  1.0000
  C   C1774     1.0  0.20482  0.77854  0.75754  1.0000
  C   C1775     1.0  0.20792  0.76218  0.77007  1.0000
  C   C1776     1.0  0.20130  0.76597  0.78610  1.0000
  C   C1777     1.0  0.19162  0.78611  0.78970  1.0000
  C   C1778     1.0  0.18821  0.80234  0.77725  1.0000
  C   C1779     1.0  0.19453  0.79851  0.76121  1.0000
  H   H1423     1.0  0.03392  0.94187  0.89156  1.0000
  H   H1424     1.0  0.05543  0.92343  0.95729  1.0000
  C   C1780     1.0  0.46373  0.72759  0.82102  1.0000
  S   S248      1.0  0.43783  0.71757  0.75287  1.0000
  H   H1425     1.0  0.44659  0.68388  0.83674  1.0000
  C   C1781     1.0  0.46697  0.66715  0.85366  1.0000
  S   S249      1.0  0.00665  0.84416  0.89919  1.0000
  C   C1782     1.0  0.08589  0.87232  0.95673  1.0000
  H   H1426     1.0  0.34527  0.82707  0.78239  1.0000
  C   C1783     1.0  0.46198  0.73070  0.74530  1.0000
  H   H1427     1.0  0.49230  0.72812  0.78729  1.0000
  C   C1784     1.0  0.03986  0.72502  0.84482  1.0000
  H   H1428     1.0  0.13678  0.90830  0.79464  1.0000
  S   S250      1.0  0.37313  0.66935  0.80884  1.0000
  C   C1785     1.0  0.29240  0.91655  0.78906  1.0000
  H   H1429     1.0  0.21536  0.74649  0.76742  1.0000
  H   H1430     1.0  0.20387  0.75337  0.79573  1.0000
  H   H1431     1.0  0.18684  0.78919  0.80212  1.0000
  H   H1432     1.0  0.18056  0.81794  0.77992  1.0000
  H   H1433     1.0  0.19118  0.81116  0.75175  1.0000
  C   C1786     1.0  0.25388  0.69165  0.77939  1.0000
  C   C1787     1.0  0.27040  0.69450  0.76691  1.0000
  C   C1788     1.0  0.28646  0.70882  0.76806  1.0000
  C   C1789     1.0  0.28586  0.72054  0.78157  1.0000
  C   C1790     1.0  0.26954  0.71754  0.79431  1.0000
  C   C1791     1.0  0.25343  0.70308  0.79308  1.0000
  P   P61       1.0  0.26963  0.73254  0.81179  1.0000
  C   C1792     1.0  0.25919  0.76015  0.80753  1.0000
  C   C1793     1.0  0.25232  0.72082  0.82868  1.0000
  C   C1794     1.0  0.26085  0.70989  0.84239  1.0000
  C   C1795     1.0  0.24706  0.70132  0.85537  1.0000
  C   C1796     1.0  0.22468  0.70376  0.85487  1.0000
  C   C1797     1.0  0.21604  0.71490  0.84141  1.0000
  C   C1798     1.0  0.22978  0.72349  0.82841  1.0000
  C   C1799     1.0  0.25565  0.76860  0.79173  1.0000
  C   C1800     1.0  0.24653  0.78966  0.78886  1.0000
  C   C1801     1.0  0.24117  0.80252  0.80164  1.0000
  C   C1802     1.0  0.24489  0.79434  0.81736  1.0000
  C   C1803     1.0  0.25382  0.77322  0.82032  1.0000
  C   C1804     1.0  0.29732  0.73147  0.81668  1.0000
  C   C1805     1.0  0.30868  0.71128  0.81906  1.0000
  C   C1806     1.0  0.33750  0.92884  0.74513  1.0000
  C   C1807     1.0  0.34372  0.84478  0.74269  1.0000
  H   H1434     1.0  0.29945  0.71077  0.75846  1.0000
  H   H1435     1.0  0.29822  0.73193  0.78213  1.0000
  H   H1436     1.0  0.24066  0.70031  0.80265  1.0000
  H   H1437     1.0  0.27805  0.70812  0.84335  1.0000
  C   C1808     1.0  0.00038  0.98992  0.92492  1.0000
  H   H1438     1.0  0.19868  0.71695  0.84109  1.0000
  H   H1439     1.0  0.22286  0.73225  0.81812  1.0000
  H   H1440     1.0  0.25991  0.75909  0.78161  1.0000
  H   H1441     1.0  0.24393  0.79630  0.77666  1.0000
  H   H1442     1.0  0.23455  0.81899  0.79925  1.0000
  H   H1443     1.0  0.24101  0.80446  0.82723  1.0000
  H   H1444     1.0  0.25664  0.76709  0.83257  1.0000
  H   H1445     1.0  0.30090  0.69640  0.81818  1.0000
  H   H1446     1.0  0.30007  0.76635  0.81504  1.0000
  H   H1447     1.0  0.02115  0.94183  0.94127  1.0000
  H   H1448     1.0  0.21405  0.69715  0.86498  1.0000
  H   H1449     1.0  0.42680  0.75416  0.78899  1.0000
  C   C1809     1.0  0.14680  0.84257  0.75066  1.0000
  C   C1810     1.0  0.27854  0.91697  0.80329  1.0000
  C   C1811     1.0  0.34184  0.83777  0.77177  1.0000
  C   C1812     1.0  0.15144  0.93282  0.80553  1.0000
  C   C1813     1.0  0.00982  0.95563  0.93949  1.0000
  C   C1814     1.0  0.36039  0.93328  0.77168  1.0000
  C   C1815     1.0  0.26834  0.93083  0.73321  1.0000
  C   C1816     1.0  0.22515  0.97858  0.74230  1.0000
  H   H1450     1.0  0.30065  0.93101  0.78441  1.0000
  H   H1451     1.0  0.27631  0.93151  0.80960  1.0000
  C   C1817     1.0  0.44593  0.72562  0.79675  1.0000
  H   H1452     1.0  0.05768  0.71733  0.80723  1.0000
  C   C1818     1.0  0.02181  0.99465  0.87893  1.0000
  H   H1453     1.0  0.44265  0.71721  0.78661  1.0000
  H   H1454     1.0  0.25939  0.86662  0.80497  1.0000
  C   C1819     1.0  0.45506  0.67500  0.77959  1.0000
  C   C1820     1.0  0.12589  0.91989  0.83382  1.0000
  C   C1821     1.0  0.13979  0.93675  0.83360  1.0000
  H   H1455     1.0  0.04483  0.88952  0.87496  1.0000
  H   H1456     1.0  0.40548  0.69792  0.85371  1.0000
  C   C1822     1.0  0.15343  0.83892  0.81185  1.0000
  H   H1457     1.0  0.11663  0.91513  0.84508  1.0000
  H   H1458     1.0  0.14114  0.94433  0.84459  1.0000
  H   H1459     1.0  0.05452  0.82707  0.73046  1.0000
  C   C1823     1.0  0.32961  0.74929  0.82098  1.0000
  H   H1460     1.0  0.16900  0.83745  0.80490  1.0000
  H   H1461     1.0  0.15371  0.80529  0.82115  1.0000
  H   H1462     1.0  0.46567  0.68571  0.77197  1.0000
  S   S251      1.0  0.20908  0.94048  0.73338  1.0000
  C   C1824     1.0  0.06500  0.89431  0.83541  1.0000
  C   C1825     1.0  0.07793  0.88207  0.86628  1.0000
  C   C1826     1.0  0.07607  0.91510  0.78123  1.0000
  H   H1463     1.0  0.10265  0.87568  0.95716  1.0000
  H   H1464     1.0  0.01617  0.90196  0.94455  1.0000
  H   H1465     1.0  0.10622  0.81407  0.73961  1.0000
  H   H1466     1.0  0.10546  0.85961  0.79296  1.0000
  H   H1467     1.0  0.08310  0.87775  0.87827  1.0000
  C   C1827     1.0  0.09297  0.88135  0.85274  1.0000
  H   H1468     1.0  0.45745  0.75729  0.83248  1.0000
  S   S252      1.0  0.21077  0.87709  0.74620  1.0000
  C   C1828     1.0  0.31700  0.66452  0.75254  1.0000
  H   H1469     1.0  0.35747  0.72819  0.82609  1.0000
  H   H1470     1.0  0.34033  0.90909  0.78447  1.0000
  C   C1829     1.0  0.00164  0.95614  0.88951  1.0000
  H   H1471     1.0  0.07441  0.89371  0.97471  1.0000
  C   C1830     1.0  0.00129  0.76590  0.74145  1.0000
  C   C1831     1.0  0.02686  0.83656  0.74633  1.0000
  C   C1832     1.0  0.04797  0.87903  0.96560  1.0000
  C   C1833     1.0  0.45425  0.74845  0.82250  1.0000
  C   C1834     1.0  0.03790  0.74428  0.85234  1.0000
  C   C1835     1.0  0.08041  0.85785  0.94620  1.0000
  C   C1836     1.0  0.05882  0.85328  0.94579  1.0000
  C   C1837     1.0  0.04263  0.86378  0.95548  1.0000
  S   S253      1.0  0.02816  0.77508  0.73812  1.0000
  H   H1472     1.0  0.01234  0.91820  0.91264  1.0000
  H   H1473     1.0  0.33798  0.76404  0.82110  1.0000
  C   C1838     1.0  0.36544  0.94560  0.75701  1.0000
  C   C1839     1.0  0.33062  0.85782  0.77343  1.0000
  C   C1840     1.0  0.40029  0.68369  0.84898  1.0000
  H   H1474     1.0  0.43363  0.77422  0.81207  1.0000
  C   C1841     1.0  0.28280  0.87992  0.78648  1.0000
  C   C1842     1.0  0.08476  0.81903  0.97687  1.0000
  C   C1843     1.0  0.07809  0.89880  0.77067  1.0000
  H   H1475     1.0  0.24158  0.68036  0.77847  1.0000
  C   C1844     1.0  0.33191  0.91691  0.75997  1.0000
  C   C1845     1.0  0.16064  0.84219  0.73644  1.0000
  C   C1846     1.0  0.43684  0.74664  0.79809  1.0000
  H   H1476     1.0  0.07188  0.90175  0.75894  1.0000
  C   C1847     1.0  0.08458  0.91145  0.79621  1.0000
  C   C1848     1.0  0.45946  0.71590  0.80821  1.0000
  C   C1849     1.0  0.01515  0.97238  0.92769  1.0000
  H   H1477     1.0  0.09294  0.85020  0.93836  1.0000
  H   H1478     1.0  0.05454  0.84203  0.93765  1.0000
  C   C1850     1.0  0.48080  0.71782  0.74110  1.0000
  H   H1479     1.0  0.28347  0.86600  0.77958  1.0000
  H   H1480     1.0  0.28921  0.87098  0.74172  1.0000
  H   H1481     1.0  0.11604  0.83319  0.76245  1.0000
  H   H1482     1.0  0.28954  0.93841  0.75034  1.0000
  H   H1483     1.0  0.16175  0.93757  0.79472  1.0000
  H   H1484     1.0  0.05445  0.71457  0.84539  1.0000
  H   H1485     1.0  0.13810  0.80490  0.78805  1.0000
  C   C1851     1.0  0.34382  0.91883  0.77312  1.0000
  P   P62       1.0  0.31137  0.89743  0.76172  1.0000
  H   H1486     1.0  0.37831  0.95676  0.75589  1.0000
  H   H1487     1.0  0.01874  0.84575  0.73676  1.0000
  C   C1852     1.0  0.12132  0.82189  0.73870  1.0000
  C   C1853     1.0  0.04706  0.82611  0.74278  1.0000
  C   C1854     1.0  0.05727  0.81355  0.75495  1.0000
  C   C1855     1.0  0.04751  0.81165  0.77086  1.0000
  C   C1856     1.0  0.02715  0.82218  0.77434  1.0000
  P   P63       1.0  0.05982  0.79458  0.78664  1.0000
  C   C1857     1.0  0.08844  0.78956  0.78106  1.0000
  C   C1858     1.0  0.05550  0.80890  0.80462  1.0000
  C   C1859     1.0  0.04694  0.79877  0.81945  1.0000
  C   C1860     1.0  0.04335  0.81049  0.83306  1.0000
  C   C1861     1.0  0.04812  0.83233  0.83195  1.0000
  C   C1862     1.0  0.05638  0.84254  0.81718  1.0000
  C   C1863     1.0  0.05997  0.83093  0.80357  1.0000
  C   C1864     1.0  0.09519  0.77476  0.76961  1.0000
  C   C1865     1.0  0.12612  0.79610  0.78321  1.0000
  C   C1866     1.0  0.10413  0.80003  0.78798  1.0000
  C   C1867     1.0  0.04809  0.76843  0.78934  1.0000
  C   C1868     1.0  0.03075  0.76430  0.78074  1.0000
  H   H1488     1.0  0.28318  0.66743  0.80490  1.0000
  C   C1869     1.0  0.03281  0.72654  0.79135  1.0000
  C   C1870     1.0  0.04997  0.73053  0.80003  1.0000
  C   C1871     1.0  0.05763  0.75138  0.79901  1.0000
  C   C1872     1.0  0.13741  0.91607  0.80563  1.0000
  C   C1873     1.0  0.01894  0.75761  0.85183  1.0000
  H   H1489     1.0  0.44870  0.76345  0.74636  1.0000
  H   H1490     1.0  0.07241  0.80492  0.75170  1.0000
  H   H1491     1.0  0.01901  0.82044  0.78643  1.0000
  H   H1492     1.0  0.04283  0.78198  0.82056  1.0000
  H   H1493     1.0  0.03668  0.80277  0.84450  1.0000
  H   H1494     1.0  0.04523  0.84136  0.84252  1.0000
  H   H1495     1.0  0.05991  0.85949  0.81624  1.0000
  H   H1496     1.0  0.06620  0.83912  0.79216  1.0000
  H   H1497     1.0  0.08342  0.76649  0.76408  1.0000
  H   H1498     1.0  0.03324  0.90008  0.84766  1.0000
  H   H1499     1.0  0.09963  0.81149  0.79682  1.0000
  C   C1874     1.0  0.05642  0.88877  0.86442  1.0000
  H   H1500     1.0  0.16417  0.95547  0.81959  1.0000
  C   C1875     1.0  0.13262  0.78168  0.77158  1.0000
  H   H1501     1.0  0.08137  0.81434  0.96526  1.0000
  C   C1876     1.0  0.11716  0.77094  0.76485  1.0000
  H   H1502     1.0  0.22922  0.96919  0.75330  1.0000
  H   H1503     1.0  0.48036  0.70034  0.74269  1.0000
  C   C1877     1.0  0.34066  0.72912  0.82361  1.0000
  C   C1878     1.0  0.12700  0.83263  0.75163  1.0000
  C   C1879     1.0  0.04993  0.89478  0.84899  1.0000
  H   H1504     1.0  0.00772  0.73700  0.72914  1.0000
  H   H1505     1.0  0.12420  0.92517  0.97679  1.0000
  C   C1880     1.0  0.29234  0.90416  0.74681  1.0000
  P   P64       1.0  0.10674  0.88735  0.81988  1.0000
  C   C1881     1.0  0.12472  0.90919  0.81987  1.0000
  C   C1882     1.0  0.12454  0.82290  0.82966  1.0000
  H   H1506     1.0  0.11777  0.80891  0.83667  1.0000
  S   S254      1.0  0.15370  0.85497  0.76753  1.0000
  C   C1883     1.0  0.12196  0.86146  0.82074  1.0000
  H   H1507     1.0  0.05167  0.97612  0.88282  1.0000
  H   H1508     1.0  0.12218  0.75993  0.75570  1.0000
  H   H1509     1.0  0.47452  0.72074  0.82981  1.0000
  C   C1884     1.0  0.11310  0.84307  0.82949  1.0000
  H   H1510     1.0  0.06827  0.93072  0.77770  1.0000
  H   H1511     1.0  0.25576  0.89939  0.81996  1.0000
  H   H1512     1.0  0.08852  0.97533  0.91034  1.0000
  C   C1885     1.0  0.26904  0.88033  0.80074  1.0000
  C   C1886     1.0  0.45499  0.67345  0.79649  1.0000
  H   H1513     1.0  0.02340  0.77690  0.77283  1.0000
  C   C1887     1.0  0.03422  0.97576  0.88325  1.0000
  H   H1514     1.0  0.28735  0.75543  0.74996  1.0000
  C   C1888     1.0  0.26694  0.89884  0.80916  1.0000
  C   C1889     1.0  0.29490  0.89783  0.78071  1.0000
  H   H1515     1.0  0.08342  0.92442  0.80411  1.0000
  H   H1516     1.0  0.06088  0.96207  0.95790  1.0000
  H   H1517     1.0  0.25129  0.77415  0.75347  1.0000
  C   C1890     1.0  0.28402  0.88782  0.73913  1.0000
  H   H1518     1.0  0.25377  0.69291  0.86591  1.0000
  C   C1891     1.0  0.46295  0.75328  0.74320  1.0000
  P   P65       1.0  0.47283  0.68955  0.80565  1.0000
  H   H1519     1.0  0.05094  0.74873  0.85882  1.0000
  H   H1520     1.0  0.17587  0.84987  0.73545  1.0000
  C   C1892     1.0  0.35406  0.94330  0.74373  1.0000
  S   S255      1.0  0.13296  0.98648  0.90989  1.0000
  C   C1893     1.0  0.14309  0.89474  0.97753  1.0000
  H   H1521     1.0  0.01053  0.74017  0.77442  1.0000
  H   H1522     1.0  0.32281  0.67107  0.79919  1.0000
  C   C1894     1.0  0.28413  0.92568  0.74398  1.0000
  C   C1895     1.0  0.33273  0.86496  0.74429  1.0000
  C   C1896     1.0  0.38487  0.66757  0.82757  1.0000
  H   H1523     1.0  0.35630  0.81529  0.75525  1.0000
  C   C1897     1.0  0.48244  0.76278  0.73693  1.0000
  H   H1524     1.0  0.48297  0.78026  0.73535  1.0000
  H   H1525     1.0  0.26173  0.94737  0.73124  1.0000
  C   C1898     1.0  0.17458  0.72356  0.72961  1.0000
  C   C1899     1.0  0.02328  0.74340  0.78166  1.0000
  C   C1900     1.0  0.00135  0.89910  0.95220  1.0000
  H   H1526     1.0  0.02418  0.70393  0.83118  1.0000
  C   C1901     1.0  0.99922  0.99422  0.87942  1.0000
  H   H1527     1.0  0.32261  0.67079  0.76292  1.0000
  H   H1528     1.0  0.45426  0.66677  0.86357  1.0000
  C   C1902     1.0  0.21522  0.96863  0.73085  1.0000
  H   H1529     1.0  0.11561  0.83160  0.96787  1.0000
  H   H1530     1.0  0.17603  0.70600  0.72985  1.0000
  C   C1903     1.0  0.27963  0.73787  0.73049  1.0000
  C   C1904     1.0  0.00393  0.73240  0.83618  1.0000
  C   C1905     1.0  0.22716  0.81439  0.72902  1.0000
  P   P66       1.0  0.02709  0.89320  0.97771  1.0000
  C   C1906     1.0  0.00188  0.75194  0.84356  1.0000
  H   H1531     1.0  0.00105  0.84237  0.76478  1.0000
  C   C1907     1.0  0.10407  0.82862  0.97835  1.0000
  H   H1532     1.0  0.12782  0.99009  0.97834  1.0000
  H   H1533     1.0  0.29559  0.72981  0.72886  1.0000
  S   S256      1.0  0.97476  0.12864  0.07281  1.0000
  Fe  Fe129     1.0  0.85571  0.02148  0.05169  1.0000
  S   S257      1.0  0.83097  0.04924  0.04763  1.0000
  S   S258      1.0  0.82227  0.11271  0.21780  1.0000
  Fe  Fe130     1.0  0.89220  0.05059  0.05348  1.0000
  S   S259      1.0  0.87090  0.08070  0.04939  1.0000
  S   S260      1.0  0.92801  0.04686  0.05640  1.0000
  Fe  Fe131     1.0  0.84624  0.06390  0.06725  1.0000
  S   S261      1.0  0.82915  0.08510  0.08624  1.0000
  Fe  Fe132     1.0  0.85732  0.06384  0.03022  1.0000
  S   S262      1.0  0.85587  0.08227  0.00533  1.0000
  S   S263      1.0  0.86880  0.03487  0.07251  1.0000
  S   S264      1.0  0.88067  0.03514  0.03299  1.0000
  H   H1534     1.0  0.63463  0.25609  0.12110  1.0000
  H   H1535     1.0  0.63783  0.21149  0.12178  1.0000
  H   H1536     1.0  0.65512  0.30864  0.15295  1.0000
  H   H1537     1.0  0.88343  0.10431  0.18345  1.0000
  C   C1908     1.0  0.92936  0.07395  0.98598  1.0000
  C   C1909     1.0  0.91795  0.10232  0.12250  1.0000
  H   H1538     1.0  0.73671  0.18763  0.21827  1.0000
  Fe  Fe133     1.0  0.59971  0.26820  0.17618  1.0000
  S   S265      1.0  0.58978  0.29326  0.19351  1.0000
  S   S266      1.0  0.59999  0.27255  0.14841  1.0000
  Fe  Fe134     1.0  0.61797  0.23568  0.20312  1.0000
  S   S267      1.0  0.63414  0.20146  0.20919  1.0000
  C   C1910     1.0  0.53814  0.33024  0.20193  1.0000
  S   S268      1.0  0.58540  0.24063  0.19280  1.0000
  S   S269      1.0  0.63243  0.26143  0.18546  1.0000
  Fe  Fe135     1.0  0.77530  0.08237  0.18057  1.0000
  S   S270      1.0  0.78991  0.06893  0.20334  1.0000
  S   S271      1.0  0.78584  0.06365  0.15843  1.0000
  Fe  Fe136     1.0  0.74558  0.11631  0.19861  1.0000
  C   C1911     1.0  0.68615  0.26990  0.17289  1.0000
  S   S272      1.0  0.72534  0.14869  0.19321  1.0000
  Fe  Fe137     1.0  0.79102  0.10361  0.20880  1.0000
  H   H1539     1.0  0.99548  0.09814  0.02290  1.0000
  Fe  Fe138     1.0  0.75626  0.07011  0.21554  1.0000
  H   H1540     1.0  0.70022  0.23153  0.10934  1.0000
  S   S273      1.0  0.77907  0.11701  0.18508  1.0000
  S   S274      1.0  0.74106  0.08202  0.19253  1.0000
  H   H1541     1.0  0.64692  0.22262  0.17077  1.0000
  C   C1912     1.0  0.73046  0.20690  0.14298  1.0000
  S   S275      1.0  0.75819  0.10437  0.22260  1.0000
  C   C1913     1.0  0.66003  0.18751  0.20506  1.0000
  C   C1914     1.0  0.68347  0.15413  0.20887  1.0000
  C   C1915     1.0  0.70006  0.16321  0.19830  1.0000
  C   C1916     1.0  0.69653  0.18467  0.19134  1.0000
  C   C1917     1.0  0.67675  0.19671  0.19467  1.0000
  H   H1542     1.0  0.70925  0.19208  0.18332  1.0000
  H   H1543     1.0  0.67445  0.21312  0.18928  1.0000
  C   C1918     1.0  0.55924  0.32127  0.12963  1.0000
  H   H1544     1.0  0.95029  0.00480  0.98401  1.0000
  C   C1919     1.0  0.54045  0.25932  0.15638  1.0000
  H   H1545     1.0  0.73448  0.32009  0.17209  1.0000
  C   C1920     1.0  0.56468  0.32148  0.11283  1.0000
  H   H1546     1.0  0.98270  0.18150  0.11285  1.0000
  C   C1921     1.0  0.82827  0.24841  0.22304  1.0000
  C   C1922     1.0  0.98925  0.03676  0.02562  1.0000
  H   H1547     1.0  0.89027  0.03938  0.98316  1.0000
  C   C1923     1.0  0.82425  0.13676  0.22723  1.0000
  H   H1548     1.0  0.95996  0.05018  0.09194  1.0000
  C   C1924     1.0  0.91710  0.07497  0.00083  1.0000
  C   C1925     1.0  0.85484  0.08944  0.14719  1.0000
  H   H1549     1.0  0.86200  0.06677  0.11004  1.0000
  H   H1550     1.0  0.94494  0.14585  0.13012  1.0000
  C   C1926     1.0  0.63531  0.32278  0.08466  1.0000
  H   H1551     1.0  0.96721  0.22383  0.21241  1.0000
  H   H1552     1.0  0.96799  0.05242  0.12009  1.0000
  H   H1553     1.0  0.97415  0.12724  0.11323  1.0000
  C   C1927     1.0  0.56979  0.30654  0.14072  1.0000
  C   C1928     1.0  0.58590  0.29158  0.13511  1.0000
  C   C1929     1.0  0.59118  0.29163  0.11831  1.0000
  C   C1930     1.0  0.58071  0.30644  0.10725  1.0000
  H   H1554     1.0  0.89975  0.07762  0.00129  1.0000
  H   H1555     1.0  0.56542  0.30674  0.15357  1.0000
  P   P67       1.0  0.66895  0.23293  0.13851  1.0000
  H   H1556     1.0  0.96727  0.09349  0.10171  1.0000
  C   C1931     1.0  0.64437  0.21947  0.14549  1.0000
  C   C1932     1.0  0.52558  0.27673  0.15913  1.0000
  C   C1933     1.0  0.96069  0.01525  0.09401  1.0000
  H   H1557     1.0  0.90891  0.13073  0.13531  1.0000
  H   H1558     1.0  0.65111  0.15891  0.22044  1.0000
  C   C1934     1.0  0.81772  0.07871  0.10644  1.0000
  C   C1935     1.0  0.81481  0.05735  0.11298  1.0000
  C   C1936     1.0  0.80520  0.05314  0.12892  1.0000
  C   C1937     1.0  0.79861  0.07014  0.13863  1.0000
  C   C1938     1.0  0.80193  0.09149  0.13220  1.0000
  C   C1939     1.0  0.81123  0.09571  0.11616  1.0000
  H   H1559     1.0  0.81959  0.04410  0.10565  1.0000
  H   H1560     1.0  0.80270  0.03656  0.13374  1.0000
  H   H1561     1.0  0.79722  0.10475  0.13952  1.0000
  H   H1562     1.0  0.81337  0.11229  0.11123  1.0000
  C   C1940     1.0  0.85113  0.07106  0.98736  1.0000
  H   H1563     1.0  0.81311  0.01261  0.02928  1.0000
  H   H1564     1.0  0.69785  0.24562  0.08100  1.0000
  H   H1565     1.0  0.82956  0.04732  0.99892  1.0000
  C   C1941     1.0  0.68546  0.24014  0.10601  1.0000
  C   C1942     1.0  0.96180  0.10615  0.06776  1.0000
  C   C1943     1.0  0.93945  0.10764  0.06648  1.0000
  C   C1944     1.0  0.92893  0.08963  0.06273  1.0000
  C   C1945     1.0  0.94068  0.07004  0.06040  1.0000
  C   C1946     1.0  0.96299  0.06861  0.06162  1.0000
  C   C1947     1.0  0.97348  0.08651  0.06543  1.0000
  H   H1566     1.0  0.93028  0.12274  0.06838  1.0000
  H   H1567     1.0  0.91176  0.09090  0.06170  1.0000
  H   H1568     1.0  0.97214  0.05347  0.06001  1.0000
  C   C1948     1.0  0.95188  0.07094  0.98536  1.0000
  H   H1569     1.0  0.91601  0.02533  0.00302  1.0000
  H   H1570     1.0  0.84665  0.08494  0.13727  1.0000
  Fe  Fe139     1.0  0.57694  0.26549  0.21080  1.0000
  H   H1571     1.0  0.83898  0.23462  0.21999  1.0000
  C   C1949     1.0  0.63256  0.21042  0.13456  1.0000
  H   H1572     1.0  0.67269  0.18586  0.14872  1.0000
  C   C1950     1.0  0.75176  0.23844  0.22270  1.0000
  H   H1573     1.0  0.74665  0.21267  0.14167  1.0000
  H   H1574     1.0  0.99055  0.08491  0.06688  1.0000
  C   C1951     1.0  0.96218  0.03544  0.09981  1.0000
  H   H1575     1.0  0.95733  0.07071  0.02563  1.0000
  H   H1576     1.0  0.93143  0.07819  0.10662  1.0000
  Fe  Fe140     1.0  0.62160  0.28488  0.20387  1.0000
  S   S276      1.0  0.60851  0.25889  0.22232  1.0000
  C   C1952     1.0  0.50922  0.32082  0.18687  1.0000
  H   H1577     1.0  0.74068  0.17441  0.15190  1.0000
  H   H1578     1.0  0.61363  0.20407  0.18027  1.0000
  C   C1953     1.0  0.98457  0.18524  0.07187  1.0000
  H   H1579     1.0  0.58482  0.30603  0.09441  1.0000
  H   H1580     1.0  0.50879  0.26195  0.19857  1.0000
  C   C1954     1.0  0.95473  0.10101  0.10962  1.0000
  H   H1581     1.0  0.84445  0.09730  0.18704  1.0000
  C   C1955     1.0  0.69498  0.04669  0.22019  1.0000
  C   C1956     1.0  0.66103  0.27576  0.14670  1.0000
  H   H1582     1.0  0.69130  0.23685  0.16752  1.0000
  H   H1583     1.0  0.96481  0.16790  0.09083  1.0000
  H   H1584     1.0  0.59213  0.18957  0.16082  1.0000
  C   C1957     1.0  0.70628  0.17786  0.15050  1.0000
  C   C1958     1.0  0.64869  0.25398  0.11250  1.0000
  H   H1585     1.0  0.86046  0.02758  0.10835  1.0000
  C   C1959     1.0  0.60677  0.19769  0.15652  1.0000
  C   C1960     1.0  0.94211  0.13066  0.12551  1.0000
  C   C1961     1.0  0.74399  0.22141  0.21548  1.0000
  C   C1962     1.0  0.68375  0.25252  0.16386  1.0000
  C   C1963     1.0  0.61883  0.20597  0.16749  1.0000
  C   C1964     1.0  0.71287  0.22114  0.13940  1.0000
  C   C1965     1.0  0.83514  0.26948  0.21952  1.0000
  C   C1966     1.0  0.54352  0.24276  0.16865  1.0000
  S   S277      1.0  0.64653  0.31002  0.20505  1.0000
  H   H1586     1.0  0.68582  0.13781  0.21449  1.0000
  H   H1587     1.0  0.55528  0.22947  0.16653  1.0000
  H   H1588     1.0  0.54993  0.25888  0.14479  1.0000
  H   H1589     1.0  0.85119  0.27209  0.21364  1.0000
  C   C1967     1.0  0.66519  0.25895  0.08501  1.0000
  H   H1590     1.0  0.76356  0.01403  0.21039  1.0000
  C   C1968     1.0  0.93442  0.09227  0.11259  1.0000
  C   C1969     1.0  0.51376  0.27780  0.17430  1.0000
  C   C1970     1.0  0.67611  0.29021  0.16880  1.0000
  H   H1591     1.0  0.65061  0.27837  0.13704  1.0000
  H   H1592     1.0  0.70370  0.16127  0.15528  1.0000
  H   H1593     1.0  0.97719  0.17864  0.06232  1.0000
  H   H1594     1.0  0.52913  0.22999  0.22625  1.0000
  H   H1595     1.0  0.60338  0.28003  0.11378  1.0000
  C   C1971     1.0  0.92178  0.12191  0.12858  1.0000
  H   H1596     1.0  0.88915  0.00194  0.11881  1.0000
  H   H1597     1.0  0.97273  0.01877  0.13834  1.0000
  C   C1972     1.0  0.85353  0.09622  0.17533  1.0000
  H   H1598     1.0  0.91923  0.01584  0.13152  1.0000
  C   C1973     1.0  0.53187  0.24370  0.18377  1.0000
  C   C1974     1.0  0.84325  0.09063  0.16233  1.0000
  C   C1975     1.0  0.64744  0.26186  0.09634  1.0000
  C   C1976     1.0  0.90686  0.02702  0.12677  1.0000
  C   C1977     1.0  0.87474  0.05588  0.11462  1.0000
  C   C1978     1.0  0.89168  0.06390  0.12177  1.0000
  C   C1979     1.0  0.90750  0.04927  0.12814  1.0000
  P   P68       1.0  0.89116  0.09221  0.12513  1.0000
  C   C1980     1.0  0.87678  0.09405  0.14487  1.0000
  C   C1981     1.0  0.88721  0.09890  0.15814  1.0000
  C   C1982     1.0  0.87551  0.10022  0.17326  1.0000
  C   C1983     1.0  0.87727  0.10842  0.10983  1.0000
  C   C1984     1.0  0.86155  0.12472  0.11393  1.0000
  C   C1985     1.0  0.85160  0.13771  0.10182  1.0000
  C   C1986     1.0  0.85753  0.13475  0.08558  1.0000
  C   C1987     1.0  0.87355  0.11895  0.08142  1.0000
  C   C1988     1.0  0.88333  0.10574  0.09349  1.0000
  C   C1989     1.0  0.69179  0.21383  0.14141  1.0000
  H   H1599     1.0  0.92021  0.05505  0.13428  1.0000
  H   H1600     1.0  0.90430  0.10149  0.15694  1.0000
  H   H1601     1.0  0.75337  0.25409  0.21584  1.0000
  H   H1602     1.0  0.85687  0.12747  0.12641  1.0000
  H   H1603     1.0  0.83911  0.14991  0.10503  1.0000
  H   H1604     1.0  0.84955  0.14450  0.07619  1.0000
  H   H1605     1.0  0.87810  0.11668  0.06883  1.0000
  H   H1606     1.0  0.89556  0.09341  0.09008  1.0000
  C   C1990     1.0  0.63150  0.13093  0.19830  1.0000
  C   C1991     1.0  0.63181  0.14963  0.18753  1.0000
  C   C1992     1.0  0.64493  0.14987  0.17296  1.0000
  C   C1993     1.0  0.65795  0.13147  0.16921  1.0000
  C   C1994     1.0  0.65835  0.11289  0.18027  1.0000
  C   C1995     1.0  0.64456  0.11255  0.19464  1.0000
  P   P69       1.0  0.67433  0.08878  0.17513  1.0000
  C   C1996     1.0  0.65787  0.07457  0.16354  1.0000
  C   C1997     1.0  0.69998  0.09477  0.16415  1.0000
  C   C1998     1.0  0.71156  0.07902  0.15524  1.0000
  C   C1999     1.0  0.73216  0.08297  0.14766  1.0000
  C   C2000     1.0  0.74143  0.10251  0.14908  1.0000
  C   C2001     1.0  0.73021  0.11805  0.15820  1.0000
  C   C2002     1.0  0.70962  0.11414  0.16581  1.0000
  C   C2003     1.0  0.64143  0.06190  0.17144  1.0000
  C   C2004     1.0  0.62827  0.05123  0.16251  1.0000
  C   C2005     1.0  0.63124  0.05339  0.14563  1.0000
  C   C2006     1.0  0.64727  0.06638  0.13767  1.0000
  C   C2007     1.0  0.66045  0.07708  0.14658  1.0000
  C   C2008     1.0  0.68152  0.07225  0.19300  1.0000
  C   C2009     1.0  0.68696  0.08206  0.20639  1.0000
  C   C2010     1.0  0.96922  0.01775  0.12600  1.0000
  H   H1607     1.0  0.82627  0.08715  0.16399  1.0000
  H   H1608     1.0  0.73938  0.22397  0.20325  1.0000
  C   C2011     1.0  0.68360  0.04955  0.19314  1.0000
  H   H1609     1.0  0.62134  0.13086  0.20962  1.0000
  H   H1610     1.0  0.62210  0.16404  0.19063  1.0000
  H   H1611     1.0  0.64506  0.16439  0.16465  1.0000
  H   H1612     1.0  0.66779  0.13181  0.15777  1.0000
  H   H1613     1.0  0.64390  0.09815  0.20309  1.0000
  H   H1614     1.0  0.70498  0.06344  0.15454  1.0000
  H   H1615     1.0  0.74140  0.07058  0.14118  1.0000
  H   H1616     1.0  0.75764  0.10521  0.14360  1.0000
  H   H1617     1.0  0.73787  0.13272  0.15999  1.0000
  H   H1618     1.0  0.70167  0.12586  0.17351  1.0000
  H   H1619     1.0  0.63876  0.06030  0.18451  1.0000
  H   H1620     1.0  0.61569  0.04135  0.16868  1.0000
  H   H1621     1.0  0.62102  0.04513  0.13872  1.0000
  H   H1622     1.0  0.64944  0.06823  0.12459  1.0000
  H   H1623     1.0  0.67253  0.08739  0.14021  1.0000
  H   H1624     1.0  0.68673  0.09957  0.20617  1.0000
  C   C2012     1.0  0.52775  0.31480  0.19486  1.0000
  C   C2013     1.0  0.66775  0.24315  0.11752  1.0000
  H   H1625     1.0  0.72542  0.32712  0.20079  1.0000
  H   H1626     1.0  0.68064  0.04164  0.18265  1.0000
  C   C2014     1.0  0.97765  0.17906  0.08799  1.0000
  C   C2015     1.0  0.87384  0.03360  0.11364  1.0000
  H   H1627     1.0  0.53454  0.23113  0.19344  1.0000
  C   C2016     1.0  0.49860  0.32610  0.14890  1.0000
  C   C2017     1.0  0.96219  0.06878  0.99969  1.0000
  C   C2018     1.0  0.94975  0.07077  0.01450  1.0000
  C   C2019     1.0  0.51719  0.26121  0.18663  1.0000
  H   H1628     1.0  0.95742  0.01467  0.08154  1.0000
  H   H1629     1.0  0.60445  0.19322  0.13154  1.0000
  H   H1630     1.0  0.71562  0.23798  0.13548  1.0000
  C   C2020     1.0  0.96657  0.03671  0.11574  1.0000
  C   C2021     1.0  0.68868  0.19199  0.14685  1.0000
  H   H1631     1.0  0.67741  0.30347  0.17614  1.0000
  H   H1632     1.0  0.66415  0.26492  0.07245  1.0000
  C   C2022     1.0  0.98775  0.18668  0.10036  1.0000
  C   C2023     1.0  0.88996  0.01918  0.11959  1.0000
  C   C2024     1.0  0.90495  0.01457  0.99911  1.0000
  C   C2025     1.0  0.68416  0.24808  0.08983  1.0000
  H   H1633     1.0  0.69210  0.01934  0.20678  1.0000
  H   H1634     1.0  0.53416  0.29816  0.19580  1.0000
  C   C2026     1.0  0.92727  0.07345  0.01507  1.0000
  H   H1635     1.0  0.69522  0.26746  0.18339  1.0000
  H   H1636     1.0  0.91773  0.07494  0.02654  1.0000
  H   H1637     1.0  0.52371  0.28934  0.14943  1.0000
  C   C2027     1.0  0.74249  0.20090  0.22395  1.0000
  C   C2028     1.0  0.75747  0.00406  0.22103  1.0000
  C   C2029     1.0  0.72715  0.18531  0.14865  1.0000
  C   C2030     1.0  0.83703  0.05437  0.98752  1.0000
  C   C2031     1.0  0.63762  0.21670  0.16203  1.0000
  C   C2032     1.0  0.61372  0.19978  0.14006  1.0000
  C   C2033     1.0  0.66352  0.29311  0.15575  1.0000
  C   C2034     1.0  0.67135  0.25532  0.15053  1.0000
  H   H1638     1.0  0.63261  0.27005  0.09259  1.0000
  H   H1639     1.0  0.61038  0.31497  0.16258  1.0000
  C   C2035     1.0  0.65362  0.32130  0.22236  1.0000
  H   H1640     1.0  0.97407  0.03241  0.02192  1.0000
  H   H1641     1.0  0.84568  0.00044  0.01310  1.0000
  C   C2036     1.0  0.95858  0.12017  0.11606  1.0000
  C   C2037     1.0  0.66372  0.16621  0.21224  1.0000
  C   C2038     1.0  0.87545  0.00890  0.98350  1.0000
  C   C2039     1.0  0.82147  0.28711  0.22391  1.0000
  C   C2040     1.0  0.69018  0.03683  0.20675  1.0000
  H   H1642     1.0  0.82691  0.30345  0.22139  1.0000
  H   H1643     1.0  0.98716  0.01406  0.04690  1.0000
  H   H1644     1.0  0.64068  0.31047  0.07658  1.0000
  P   P70       1.0  0.99126  0.06766  0.99881  1.0000
  H   H1645     1.0  0.55219  0.32521  0.20836  1.0000
  H   H1646     1.0  0.97916  0.02953  0.98450  1.0000
  H   H1647     1.0  0.98299  0.27743  0.04977  1.0000
  C   C2041     1.0  0.89045  0.02249  0.98795  1.0000
  C   C2042     1.0  0.69353  0.06929  0.21997  1.0000
  H   H1648     1.0  0.92220  0.99923  0.09171  1.0000
  C   C2043     1.0  0.97487  0.23010  0.22192  1.0000
  H   H1649     1.0  0.66046  0.31436  0.10043  1.0000
  C   C2044     1.0  0.64645  0.32503  0.09806  1.0000
  H   H1650     1.0  0.50389  0.30543  0.00450  1.0000
  S   S278      1.0  0.54428  0.27449  0.22494  1.0000
  H   H1651     1.0  0.77718  0.00106  0.02429  1.0000
  C   C2045     1.0  0.81169  0.00231  0.01972  1.0000
  C   C2046     1.0  0.96745  0.99750  0.12034  1.0000
  H   H1652     1.0  0.85878  0.13214  0.22768  1.0000
  H   H1653     1.0  0.99247  0.24460  0.06727  1.0000
  H   H1654     1.0  0.51448  0.32954  0.15186  1.0000
  H   H1655     1.0  0.95787  0.99905  0.01234  1.0000
  Fe  Fe141     1.0  0.91904  0.08251  0.40981  1.0000
  S   S279      1.0  0.88772  0.10099  0.41577  1.0000
  S   S280      1.0  0.92366  0.04601  0.41069  1.0000
  Fe  Fe142     1.0  0.94457  0.12259  0.40832  1.0000
  S   S281      1.0  0.91518  0.14444  0.41447  1.0000
  H   H1656     1.0  0.86212  0.21275  0.35419  1.0000
  Fe  Fe143     1.0  0.90555  0.11705  0.43320  1.0000
  S   S282      1.0  0.89038  0.11615  0.45931  1.0000
  Fe  Fe144     1.0  0.90007  0.12658  0.39644  1.0000
  S   S283      1.0  0.87700  0.14233  0.37831  1.0000
  S   S284      1.0  0.93605  0.09698  0.42825  1.0000
  S   S285      1.0  0.93026  0.10651  0.38923  1.0000
  Fe  Fe145     1.0  0.88786  0.21201  0.28914  1.0000
  S   S286      1.0  0.89328  0.19982  0.26445  1.0000
  S   S287      1.0  0.90460  0.19172  0.30923  1.0000
  Fe  Fe146     1.0  0.86411  0.25488  0.27578  1.0000
  S   S288      1.0  0.84066  0.28228  0.28538  1.0000
  Fe  Fe147     1.0  0.85937  0.21257  0.26095  1.0000
  Fe  Fe148     1.0  0.90358  0.23353  0.25586  1.0000
  S   S289      1.0  0.85317  0.22210  0.28635  1.0000
  S   S290      1.0  0.89906  0.24555  0.28071  1.0000
  H   H1657     1.0  0.80754  0.01117  0.26842  1.0000
  H   H1658     1.0  0.85895  0.03719  0.38312  1.0000
  C   C2047     1.0  0.79451  0.14331  0.29599  1.0000
  C   C2048     1.0  0.90192  0.00947  0.40994  1.0000
  C   C2049     1.0  0.81332  0.32975  0.25445  1.0000
  C   C2050     1.0  0.96198  0.23657  0.23567  1.0000
  H   H1659     1.0  0.81999  0.00211  0.24081  1.0000
  C   C2051     1.0  0.50333  0.23525  0.29453  1.0000
  P   P71       1.0  0.93860  0.23145  0.34273  1.0000
  C   C2052     1.0  0.77801  0.24181  0.30149  1.0000
  C   C2053     1.0  0.77530  0.02936  0.30683  1.0000
  H   H1660     1.0  0.51951  0.28481  0.26502  1.0000
  H   H1661     1.0  0.72977  0.28462  0.33856  1.0000
  C   C2054     1.0  0.99495  0.24664  0.24601  1.0000
  C   C2055     1.0  0.95883  0.24782  0.36697  1.0000
  C   C2056     1.0  0.50120  0.27611  0.23672  1.0000
  H   H1662     1.0  0.96634  0.19525  0.32987  1.0000
  H   H1663     1.0  0.69393  0.30607  0.28293  1.0000
  C   C2057     1.0  0.82256  0.16897  0.28977  1.0000
  C   C2058     1.0  0.96397  0.19073  0.26596  1.0000
  C   C2059     1.0  0.80375  0.30991  0.28546  1.0000
  C   C2060     1.0  0.82237  0.30230  0.27617  1.0000
  C   C2061     1.0  0.88474  0.15507  0.35874  1.0000
  C   C2062     1.0  0.86873  0.16459  0.34908  1.0000
  C   C2063     1.0  0.87432  0.17537  0.33367  1.0000
  C   C2064     1.0  0.89607  0.17692  0.32785  1.0000
  C   C2065     1.0  0.91199  0.16683  0.33731  1.0000
  C   C2066     1.0  0.90642  0.15606  0.35266  1.0000
  H   H1664     1.0  0.85191  0.16386  0.35364  1.0000
  H   H1665     1.0  0.86188  0.18292  0.32650  1.0000
  H   H1666     1.0  0.92878  0.16752  0.33280  1.0000
  H   H1667     1.0  0.91888  0.14861  0.35985  1.0000
  C   C2067     1.0  0.98216  0.17442  0.29427  1.0000
  C   C2068     1.0  0.79336  0.25057  0.27397  1.0000
  H   H1668     1.0  0.92550  0.02321  0.36988  1.0000
  H   H1669     1.0  0.76216  0.21102  0.25877  1.0000
  H   H1670     1.0  0.86255  0.16573  0.24102  1.0000
  H   H1671     1.0  0.74639  0.33009  0.26351  1.0000
  H   H1672     1.0  0.93035  0.20874  0.37506  1.0000
  H   H1673     1.0  0.96267  0.25016  0.25827  1.0000
  S   S291      1.0  0.97877  0.13319  0.40497  1.0000
  H   H1674     1.0  0.80573  0.05657  0.26417  1.0000
  C   C2069     1.0  0.90249  0.03170  0.40517  1.0000
  C   C2070     1.0  0.88679  0.04179  0.39565  1.0000
  C   C2071     1.0  0.87090  0.02944  0.39065  1.0000
  H   H1675     1.0  0.97893  0.15972  0.34251  1.0000
  C   C2072     1.0  0.97772  0.12821  0.45201  1.0000
  H   H1676     1.0  0.88712  0.05898  0.39193  1.0000
  H   H1677     1.0  0.84769  0.07360  0.42025  1.0000
  H   H1678     1.0  0.69821  0.07687  0.23015  1.0000
  C   C2073     1.0  0.80603  0.15015  0.23136  1.0000
  H   H1679     1.0  0.63716  0.32767  0.26184  1.0000
  C   C2074     1.0  0.98384  0.14291  0.46213  1.0000
  H   H1680     1.0  0.73027  0.28903  0.28756  1.0000
  H   H1681     1.0  0.96351  0.04772  0.47670  1.0000
  C   C2075     1.0  0.97614  0.01484  0.42404  1.0000
  C   C2076     1.0  0.96119  0.19079  0.34242  1.0000
  C   C2077     1.0  0.84461  0.14239  0.23088  1.0000
  C   C2078     1.0  0.79580  0.24668  0.29048  1.0000
  H   H1682     1.0  0.93042  0.13628  0.46411  1.0000
  H   H1683     1.0  0.81154  0.24771  0.29474  1.0000
  C   C2079     1.0  0.75607  0.29842  0.25594  1.0000
  H   H1684     1.0  0.91960  0.29883  0.36940  1.0000
  C   C2080     1.0  0.87349  0.22252  0.34645  1.0000
  C   C2081     1.0  0.75654  0.21439  0.24689  1.0000
  C   C2082     1.0  0.89542  0.22052  0.34900  1.0000
  C   C2083     1.0  0.92809  0.00587  0.37278  1.0000
  S   S292      1.0  0.83027  0.19889  0.25187  1.0000
  H   H1685     1.0  0.95104  0.00150  0.41304  1.0000
  C   C2084     1.0  0.91914  0.05196  0.45519  1.0000
  H   H1686     1.0  0.93328  0.18531  0.27949  1.0000
  C   C2085     1.0  0.72287  0.30093  0.29536  1.0000
  C   C2086     1.0  0.78483  0.18166  0.29116  1.0000
  C   C2087     1.0  0.97870  0.10603  0.45691  1.0000
  H   H1687     1.0  0.50321  0.29325  0.23679  1.0000
  C   C2088     1.0  0.95066  0.18388  0.27971  1.0000
  H   H1688     1.0  0.62734  0.30912  0.23870  1.0000
  C   C2089     1.0  0.99116  0.13545  0.47711  1.0000
  S   S293      1.0  0.74532  0.04288  0.23501  1.0000
  H   H1689     1.0  0.77072  0.06078  0.31603  1.0000
  C   C2090     1.0  0.97228  0.24473  0.24778  1.0000
  C   C2091     1.0  0.76185  0.06195  0.29168  1.0000
  C   C2092     1.0  0.75764  0.24091  0.29600  1.0000
  C   C2093     1.0  0.75760  0.23520  0.23861  1.0000
  C   C2094     1.0  0.85124  0.02942  0.44778  1.0000
  C   C2095     1.0  0.85419  0.05052  0.44043  1.0000
  C   C2096     1.0  0.84502  0.05747  0.42606  1.0000
  C   C2097     1.0  0.83282  0.04349  0.41899  1.0000
  C   C2098     1.0  0.82950  0.02264  0.42639  1.0000
  C   C2099     1.0  0.83838  0.01572  0.44087  1.0000
  H   H1690     1.0  0.95681  0.19736  0.25508  1.0000
  C   C2100     1.0  0.90228  0.03834  0.45463  1.0000
  H   H1691     1.0  0.97218  0.13400  0.44036  1.0000
  H   H1692     1.0  0.97436  0.26027  0.38580  1.0000
  H   H1693     1.0  0.90107  0.03067  0.44366  1.0000
  H   H1694     1.0  0.82624  0.04868  0.40762  1.0000
  H   H1695     1.0  0.82042  0.01166  0.42071  1.0000
  H   H1696     1.0  0.83564  0.99948  0.44644  1.0000
  C   C2101     1.0  0.77023  0.27215  0.36288  1.0000
  H   H1697     1.0  0.91486  0.27245  0.35003  1.0000
  C   C2102     1.0  0.98641  0.18958  0.26634  1.0000
  H   H1698     1.0  0.51683  0.22401  0.29714  1.0000
  H   H1699     1.0  0.96748  0.14856  0.37126  1.0000
  C   C2103     1.0  0.74352  0.28705  0.34502  1.0000
  H   H1700     1.0  0.98287  0.16012  0.45833  1.0000
  C   C2104     1.0  0.74190  0.31663  0.25742  1.0000
  C   C2105     1.0  0.72996  0.28159  0.24225  1.0000
  H   H1701     1.0  0.76177  0.15697  0.29664  1.0000
  H   H1702     1.0  0.74659  0.25340  0.35425  1.0000
  H   H1703     1.0  0.73519  0.99762  0.28824  1.0000
  C   C2106     1.0  0.73404  0.30720  0.30771  1.0000
  C   C2107     1.0  0.76946  0.05159  0.30581  1.0000
  C   C2108     1.0  0.64691  0.32942  0.25038  1.0000
  H   H1704     1.0  0.53232  0.30805  0.47059  1.0000
  H   H1705     1.0  0.78953  0.12686  0.29882  1.0000
  C   C2109     1.0  0.51886  0.26270  0.23100  1.0000
  C   C2110     1.0  0.79005  0.32727  0.27931  1.0000
  C   C2111     1.0  0.55141  0.32441  0.28548  1.0000
  C   C2112     1.0  0.74791  0.01397  0.23452  1.0000
  C   C2113     1.0  0.77294  0.24971  0.26837  1.0000
  H   H1706     1.0  0.94923  0.17110  0.30463  1.0000
  C   C2114     1.0  0.97150  0.25310  0.32343  1.0000
  H   H1707     1.0  0.98885  0.16864  0.30548  1.0000
  C   C2115     1.0  0.75174  0.30769  0.34457  1.0000
  C   C2116     1.0  0.50502  0.25751  0.29518  1.0000
  H   H1708     1.0  0.78577  0.32402  0.32291  1.0000
  C   C2117     1.0  0.56113  0.31411  0.27224  1.0000
  C   C2118     1.0  0.52817  0.29605  0.27079  1.0000
  C   C2119     1.0  0.72450  0.32261  0.31788  1.0000
  C   C2120     1.0  0.94600  0.99777  0.38081  1.0000
  P   P72       1.0  0.86363  0.01984  0.46599  1.0000
  H   H1709     1.0  0.82411  0.13058  0.35377  1.0000
  S   S294      1.0  0.86953  0.24548  0.25029  1.0000
  H   H1710     1.0  0.90046  0.20920  0.35876  1.0000
  H   H1711     1.0  0.91377  0.00160  0.41748  1.0000
  H   H1712     1.0  0.89869  0.99814  0.36352  1.0000
  H   H1713     1.0  0.73915  0.24458  0.27542  1.0000
  H   H1714     1.0  0.74380  0.23727  0.30453  1.0000
  H   H1715     1.0  0.97480  0.26041  0.33409  1.0000
  C   C2121     1.0  0.53002  0.32061  0.29138  1.0000
  C   C2122     1.0  0.92029  0.06311  0.46880  1.0000
  C   C2123     1.0  0.94818  0.17804  0.37480  1.0000
  C   C2124     1.0  0.75290  0.26932  0.35401  1.0000
  H   H1716     1.0  0.94317  0.17298  0.38734  1.0000
  H   H1717     1.0  0.98635  0.08135  0.47554  1.0000
  C   C2125     1.0  0.94736  0.20483  0.35149  1.0000
  C   C2126     1.0  0.94091  0.19824  0.36775  1.0000
  C   C2127     1.0  0.95505  0.23848  0.32408  1.0000
  H   H1718     1.0  0.78007  0.23886  0.31426  1.0000
  C   C2128     1.0  0.88657  0.03553  0.46778  1.0000
  C   C2129     1.0  0.96360  0.23493  0.29539  1.0000
  C   C2130     1.0  0.95127  0.22941  0.30994  1.0000
  C   C2131     1.0  0.91044  0.23267  0.33883  1.0000
  C   C2132     1.0  0.86639  0.23641  0.33362  1.0000
  C   C2133     1.0  0.88115  0.24869  0.32350  1.0000
  C   C2134     1.0  0.90305  0.24695  0.32613  1.0000
  P   P73       1.0  0.76870  0.25704  0.24744  1.0000
  H   H1719     1.0  0.94923  0.29286  0.38738  1.0000
  H   H1720     1.0  0.55698  0.29180  0.25466  1.0000
  C   C2135     1.0  0.77872  0.16033  0.29484  1.0000
  C   C2136     1.0  0.75047  0.28092  0.24802  1.0000
  H   H1721     1.0  0.96033  0.22807  0.28450  1.0000
  H   H1722     1.0  0.93866  0.21817  0.31014  1.0000
  H   H1723     1.0  0.84951  0.23752  0.33138  1.0000
  H   H1724     1.0  0.87560  0.25945  0.31352  1.0000
  H   H1725     1.0  0.91414  0.25677  0.31820  1.0000
  C   C2137     1.0  0.89731  0.14783  0.28467  1.0000
  C   C2138     1.0  0.90301  0.14306  0.26876  1.0000
  C   C2139     1.0  0.88843  0.13321  0.26054  1.0000
  C   C2140     1.0  0.86823  0.12794  0.26826  1.0000
  C   C2141     1.0  0.86237  0.13265  0.28427  1.0000
  C   C2142     1.0  0.87696  0.14306  0.29231  1.0000
  P   P74       1.0  0.83663  0.12525  0.29469  1.0000
  H   H1726     1.0  0.83940  0.17267  0.28741  1.0000
  C   C2143     1.0  0.82665  0.10321  0.28538  1.0000
  C   C2144     1.0  0.82760  0.08182  0.29269  1.0000
  C   C2145     1.0  0.82001  0.06505  0.28508  1.0000
  C   C2146     1.0  0.81148  0.06952  0.27016  1.0000
  C   C2147     1.0  0.81024  0.09078  0.26293  1.0000
  C   C2148     1.0  0.81763  0.10757  0.27054  1.0000
  C   C2149     1.0  0.80821  0.16902  0.23902  1.0000
  H   H1727     1.0  0.81140  0.20241  0.28549  1.0000
  H   H1728     1.0  0.77269  0.19486  0.28997  1.0000
  H   H1729     1.0  0.79125  0.29504  0.36998  1.0000
  C   C2150     1.0  0.51580  0.24061  0.23056  1.0000
  C   C2151     1.0  0.84129  0.11767  0.31559  1.0000
  C   C2152     1.0  0.82842  0.12703  0.32817  1.0000
  C   C2153     1.0  0.83369  0.12291  0.34413  1.0000
  C   C2154     1.0  0.85186  0.10955  0.34765  1.0000
  C   C2155     1.0  0.86459  0.09997  0.33526  1.0000
  C   C2156     1.0  0.85935  0.10398  0.31930  1.0000
  H   H1730     1.0  0.90855  0.15555  0.29104  1.0000
  H   H1731     1.0  0.91857  0.14735  0.26273  1.0000
  H   H1732     1.0  0.89263  0.12988  0.24809  1.0000
  H   H1733     1.0  0.85733  0.12032  0.26157  1.0000
  H   H1734     1.0  0.87277  0.14739  0.30453  1.0000
  H   H1735     1.0  0.83415  0.07800  0.30420  1.0000
  H   H1736     1.0  0.82074  0.04858  0.29074  1.0000
  C   C2157     1.0  0.80101  0.28369  0.23196  1.0000
  C   C2158     1.0  0.54949  0.29993  0.26490  1.0000
  H   H1737     1.0  0.81668  0.12396  0.26465  1.0000
  H   H1738     1.0  0.69980  0.30023  0.23959  1.0000
  C   C2159     1.0  0.74888  0.19738  0.23960  1.0000
  H   H1739     1.0  0.69761  0.32018  0.35072  1.0000
  H   H1740     1.0  0.79407  0.17935  0.24211  1.0000
  S   S295      1.0  0.93323  0.23443  0.23682  1.0000
  H   H1741     1.0  0.81470  0.13801  0.32573  1.0000
  C   C2160     1.0  0.71570  0.29981  0.24392  1.0000
  H   H1742     1.0  0.85632  0.10702  0.35997  1.0000
  H   H1743     1.0  0.87884  0.08988  0.33804  1.0000
  H   H1744     1.0  0.86978  0.09698  0.30977  1.0000
  H   H1745     1.0  0.57771  0.31697  0.26769  1.0000
  H   H1746     1.0  0.95744  0.00902  0.38349  1.0000
  H   H1747     1.0  0.74829  0.18129  0.24595  1.0000
  C   C2161     1.0  0.96142  0.26288  0.37794  1.0000
  H   H1748     1.0  0.75404  0.05801  0.26756  1.0000
  H   H1749     1.0  0.78091  0.02165  0.31796  1.0000
  H   H1750     1.0  0.97002  0.23374  0.36639  1.0000
  C   C2162     1.0  0.81656  0.14750  0.29333  1.0000
  C   C2163     1.0  0.51817  0.30646  0.28402  1.0000
  C   C2164     1.0  0.95972  0.17587  0.29389  1.0000
  C   C2165     1.0  0.84680  0.16134  0.23847  1.0000
  H   H1751     1.0  0.84099  0.30662  0.25313  1.0000
  C   C2166     1.0  0.87048  0.00710  0.39536  1.0000
  C   C2167     1.0  0.96193  0.16423  0.36571  1.0000
  H   H1752     1.0  0.75734  0.07917  0.29086  1.0000
  H   H1753     1.0  0.77461  0.32650  0.35432  1.0000
  H   H1754     1.0  0.77747  0.25842  0.36987  1.0000
  H   H1755     1.0  0.80741  0.25461  0.26575  1.0000
  C   C2168     1.0  0.75509  0.24493  0.27951  1.0000
  C   C2169     1.0  0.82673  0.31208  0.26044  1.0000
  H   H1756     1.0  0.80303  0.22844  0.23395  1.0000
  H   H1757     1.0  0.75018  0.30018  0.30923  1.0000
  H   H1758     1.0  0.77138  0.29790  0.26113  1.0000
  C   C2170     1.0  0.77802  0.29278  0.36291  1.0000
  H   H1759     1.0  0.80376  0.09428  0.25129  1.0000
  C   C2171     1.0  0.80669  0.18595  0.28876  1.0000
  C   C2172     1.0  0.82858  0.17472  0.24256  1.0000
  H   H1760     1.0  0.97291  0.08739  0.40562  1.0000
  C   C2173     1.0  0.76003  0.05008  0.27856  1.0000
  C   C2174     1.0  0.76592  0.02791  0.27953  1.0000
  H   H1761     1.0  0.76428  0.01906  0.26922  1.0000
  H   H1762     1.0  0.79098  0.29767  0.23531  1.0000
  H   H1763     1.0  0.73212  0.00793  0.25855  1.0000
  C   C2175     1.0  0.96841  0.17058  0.34953  1.0000
  C   C2176     1.0  0.77380  0.01736  0.29361  1.0000
  C   C2177     1.0  0.76865  0.31054  0.35395  1.0000
  H   H1764     1.0  0.86367  0.06162  0.44563  1.0000
  C   C2178     1.0  0.70240  0.31045  0.29277  1.0000
  C   C2179     1.0  0.97984  0.24954  0.29481  1.0000
  C   C2180     1.0  0.80786  0.24494  0.23107  1.0000
  C   C2181     1.0  0.90275  0.12116  0.47679  1.0000
  C   C2182     1.0  0.92789  0.26952  0.35776  1.0000
  C   C2183     1.0  0.98958  0.08953  0.40730  1.0000
  H   H1765     1.0  0.96561  0.02807  0.42839  1.0000
  H   H1766     1.0  0.51988  0.26323  0.29849  1.0000
  H   H1767     1.0  0.93077  0.05446  0.44475  1.0000
  H   H1768     1.0  0.80005  0.30249  0.29760  1.0000
  C   C2184     1.0  0.64133  0.31885  0.23729  1.0000
  C   C2185     1.0  0.93056  0.28458  0.36872  1.0000
  C   C2186     1.0  0.96795  0.99987  0.41509  1.0000
  H   H1769     1.0  0.72461  0.26801  0.23683  1.0000
  H   H1770     1.0  0.52296  0.32859  0.30174  1.0000
  H   H1771     1.0  0.98926  0.25389  0.28348  1.0000
  C   C2187     1.0  0.98377  0.25865  0.30882  1.0000
  C   C2188     1.0  0.94192  0.25093  0.35689  1.0000
  C   C2189     1.0  0.94727  0.28124  0.37884  1.0000
  C   C2190     1.0  0.72174  0.31734  0.25145  1.0000
  C   C2191     1.0  0.92217  0.13158  0.47582  1.0000
  H   H1772     1.0  0.97407  0.09471  0.44895  1.0000
  C   C2192     1.0  0.99570  0.18073  0.28035  1.0000
  C   C2193     1.0  0.79408  0.26250  0.23571  1.0000
  C   C2194     1.0  0.98576  0.09853  0.47195  1.0000
  C   C2195     1.0  0.73996  0.00055  0.24816  1.0000
  C   C2196     1.0  0.69306  0.32621  0.30255  1.0000
  H   H1773     1.0  0.93246  0.07483  0.46880  1.0000
  H   H1774     1.0  0.59468  0.32960  0.45983  1.0000
  H   H1775     1.0  0.79028  0.14601  0.22861  1.0000
  H   H1776     1.0  0.70051  0.03683  0.23059  1.0000
  H   H1777     1.0  0.69978  0.11131  0.70411  1.0000
  Fe  Fe149     1.0  0.93520  0.09795  0.57652  1.0000
  S   S296      1.0  0.93593  0.13379  0.56944  1.0000
  Fe  Fe150     1.0  0.88832  0.09659  0.56986  1.0000
  S   S297      1.0  0.88560  0.13238  0.56235  1.0000
  S   S298      1.0  0.86002  0.07629  0.56792  1.0000
  Fe  Fe151     1.0  0.91798  0.12674  0.54849  1.0000
  S   S299      1.0  0.92953  0.13986  0.52279  1.0000
  Fe  Fe152     1.0  0.90349  0.13593  0.58419  1.0000
  S   S300      1.0  0.89051  0.16267  0.60049  1.0000
  S   S301      1.0  0.91951  0.09081  0.55477  1.0000
  S   S302      1.0  0.90389  0.10033  0.59250  1.0000
  Fe  Fe153     1.0  0.88916  0.20956  0.69018  1.0000
  S   S303      1.0  0.89591  0.19972  0.71612  1.0000
  S   S304      1.0  0.90268  0.18471  0.67240  1.0000
  Fe  Fe154     1.0  0.86429  0.25251  0.69920  1.0000
  H   H1778     1.0  0.84346  0.05780  0.48086  1.0000
  S   S305      1.0  0.83777  0.27662  0.68894  1.0000
  Fe  Fe155     1.0  0.90525  0.23412  0.71670  1.0000
  H   H1779     1.0  0.95072  0.12200  0.61147  1.0000
  P   P75       1.0  0.73647  0.32471  0.64735  1.0000
  H   H1780     1.0  0.50702  0.26825  0.68076  1.0000
  S   S306      1.0  0.89950  0.24386  0.69037  1.0000
  S   S307      1.0  0.85427  0.21856  0.69724  1.0000
  C   C2197     1.0  0.94773  0.19959  0.61968  1.0000
  C   C2198     1.0  0.89220  0.11526  0.49214  1.0000
  H   H1781     1.0  0.83635  0.04072  0.56050  1.0000
  C   C2199     1.0  0.99065  0.02392  0.50770  1.0000
  C   C2200     1.0  0.81510  0.00738  0.50210  1.0000
  C   C2201     1.0  0.83006  0.04111  0.60394  1.0000
  H   H1782     1.0  0.51240  0.28497  0.60392  1.0000
  C   C2202     1.0  0.95547  0.00891  0.50828  1.0000
  H   H1783     1.0  0.88986  0.19090  0.56306  1.0000
  H   H1784     1.0  0.56725  0.27486  0.50824  1.0000
  C   C2203     1.0  0.95116  0.02315  0.49469  1.0000
  H   H1785     1.0  0.92184  0.03291  0.52620  1.0000
  C   C2204     1.0  0.57292  0.29148  0.54299  1.0000
  C   C2205     1.0  0.96230  0.08499  0.50958  1.0000
  C   C2206     1.0  0.82147  0.30002  0.69497  1.0000
  C   C2207     1.0  0.98695  0.13116  0.52450  1.0000
  P   P76       1.0  0.95874  0.19690  0.58659  1.0000
  H   H1786     1.0  0.73477  0.29279  0.62354  1.0000
  H   H1787     1.0  0.94318  0.05063  0.54140  1.0000
  H   H1788     1.0  0.90623  0.06819  0.49282  1.0000
  C   C2208     1.0  0.72086  0.00026  0.72090  1.0000
  C   C2209     1.0  0.84445  0.00669  0.62511  1.0000
  C   C2210     1.0  0.90725  0.19147  0.56062  1.0000
  C   C2211     1.0  0.89310  0.16771  0.62091  1.0000
  C   C2212     1.0  0.90603  0.15426  0.63095  1.0000
  C   C2213     1.0  0.90836  0.15953  0.64674  1.0000
  C   C2214     1.0  0.89752  0.17807  0.65286  1.0000
  C   C2215     1.0  0.88393  0.19107  0.64305  1.0000
  C   C2216     1.0  0.88190  0.18599  0.62715  1.0000
  H   H1789     1.0  0.91442  0.13992  0.62651  1.0000
  H   H1790     1.0  0.91878  0.14926  0.65424  1.0000
  H   H1791     1.0  0.87550  0.20538  0.64753  1.0000
  H   H1792     1.0  0.87172  0.19644  0.61956  1.0000
  C   C2217     1.0  0.93037  0.13687  0.49002  1.0000
  C   C2218     1.0  0.91952  0.13142  0.50533  1.0000
  H   H1793     1.0  0.94497  0.14561  0.48910  1.0000
  C   C2219     1.0  0.90961  0.00376  0.51931  1.0000
  C   C2220     1.0  0.89013  0.01712  0.57633  1.0000
  C   C2221     1.0  0.88581  0.03964  0.57454  1.0000
  C   C2222     1.0  0.86636  0.04819  0.56895  1.0000
  C   C2223     1.0  0.85147  0.03413  0.56475  1.0000
  C   C2224     1.0  0.88727  0.03523  0.52734  1.0000
  C   C2225     1.0  0.92981  0.22644  0.60174  1.0000
  H   H1794     1.0  0.89727  0.05037  0.57793  1.0000
  C   C2226     1.0  0.51707  0.32536  0.53329  1.0000
  C   C2227     1.0  0.66729  0.11869  0.71433  1.0000
  H   H1795     1.0  0.97993  0.10834  0.55967  1.0000
  C   C2228     1.0  0.97764  0.28813  0.72092  1.0000
  C   C2229     1.0  0.97685  0.23306  0.72075  1.0000
  C   C2230     1.0  0.86266  0.10645  0.69597  1.0000
  H   H1796     1.0  0.51701  0.29332  0.52485  1.0000
  C   C2231     1.0  0.78826  0.32357  0.69231  1.0000
  C   C2232     1.0  0.91876  0.23550  0.61511  1.0000
  H   H1797     1.0  0.79913  0.23347  0.69035  1.0000
  C   C2233     1.0  0.98659  0.03738  0.49384  1.0000
  H   H1798     1.0  0.82321  0.22764  0.66567  1.0000
  C   C2234     1.0  0.56416  0.28932  0.50024  1.0000
  C   C2235     1.0  0.98516  0.10030  0.64234  1.0000
  C   C2236     1.0  0.75064  0.15662  0.72570  1.0000
  Fe  Fe156     1.0  0.86175  0.21180  0.72290  1.0000
  H   H1799     1.0  0.81390  0.00752  0.65228  1.0000
  H   H1800     1.0  0.97117  0.23152  0.70912  1.0000
  H   H1801     1.0  0.53926  0.27545  0.48902  1.0000
  H   H1802     1.0  0.77462  0.23925  0.64269  1.0000
  H   H1803     1.0  0.96624  0.13066  0.64243  1.0000
  H   H1804     1.0  0.51776  0.23345  0.72514  1.0000
  C   C2237     1.0  0.50046  0.30267  0.69867  1.0000
  H   H1805     1.0  0.73651  0.24881  0.71208  1.0000
  C   C2238     1.0  0.95224  0.19087  0.55491  1.0000
  C   C2239     1.0  0.93973  0.18701  0.54258  1.0000
  C   C2240     1.0  0.53938  0.30487  0.69849  1.0000
  H   H1806     1.0  0.96586  0.23217  0.56071  1.0000
  H   H1807     1.0  0.97898  0.99947  0.52560  1.0000
  H   H1808     1.0  0.54216  0.23849  0.54683  1.0000
  H   H1809     1.0  0.69568  0.32309  0.63270  1.0000
  C   C2241     1.0  0.95509  0.28984  0.72255  1.0000
  H   H1810     1.0  0.78063  0.25967  0.66582  1.0000
  C   C2242     1.0  0.71145  0.30756  0.67494  1.0000
  H   H1811     1.0  0.86473  0.08918  0.69934  1.0000
  H   H1812     1.0  0.84456  0.00076  0.56292  1.0000
  C   C2243     1.0  0.93671  0.20872  0.63301  1.0000
  H   H1813     1.0  0.84399  0.31155  0.70963  1.0000
  C   C2244     1.0  0.57321  0.25246  0.54251  1.0000
  H   H1814     1.0  0.93912  0.20176  0.64518  1.0000
  C   C2245     1.0  0.75413  0.26479  0.63179  1.0000
  C   C2246     1.0  0.58429  0.27153  0.54124  1.0000
  H   H1815     1.0  0.89086  0.11425  0.70679  1.0000
  H   H1816     1.0  0.93085  0.07320  0.51732  1.0000
  H   H1817     1.0  0.58208  0.23700  0.54125  1.0000
  C   C2247     1.0  0.95468  0.15487  0.60106  1.0000
  C   C2248     1.0  0.98399  0.08485  0.51290  1.0000
  C   C2249     1.0  0.76715  0.11150  0.66993  1.0000
  C   C2250     1.0  0.76268  0.10296  0.68594  1.0000
  C   C2251     1.0  0.77515  0.10830  0.69781  1.0000
  C   C2252     1.0  0.79213  0.12210  0.69370  1.0000
  C   C2253     1.0  0.79702  0.13049  0.67761  1.0000
  C   C2254     1.0  0.78422  0.12521  0.66576  1.0000
  P   P77       1.0  0.81958  0.14772  0.67240  1.0000
  C   C2255     1.0  0.81219  0.17496  0.67774  1.0000
  C   C2256     1.0  0.84216  0.13706  0.68331  1.0000
  C   C2257     1.0  0.85721  0.15105  0.68735  1.0000
  C   C2258     1.0  0.49953  0.29472  0.71506  1.0000
  H   H1818     1.0  0.94613  0.28576  0.71289  1.0000
  H   H1819     1.0  0.79561  0.00673  0.67992  1.0000
  C   C2259     1.0  0.84520  0.11463  0.68747  1.0000
  C   C2260     1.0  0.82106  0.19288  0.66835  1.0000
  H   H1820     1.0  0.79236  0.16497  0.69974  1.0000
  C   C2261     1.0  0.79373  0.19950  0.69628  1.0000
  C   C2262     1.0  0.92212  0.22656  0.63074  1.0000
  C   C2263     1.0  0.76084  0.28769  0.65786  1.0000
  C   C2264     1.0  0.82768  0.14812  0.65097  1.0000
  C   C2265     1.0  0.81560  0.16092  0.63986  1.0000
  C   C2266     1.0  0.82158  0.16109  0.62326  1.0000
  C   C2267     1.0  0.83958  0.14841  0.61764  1.0000
  C   C2268     1.0  0.85164  0.13560  0.62859  1.0000
  C   C2269     1.0  0.84582  0.13549  0.64519  1.0000
  H   H1821     1.0  0.75756  0.10724  0.66070  1.0000
  H   H1822     1.0  0.86056  0.05470  0.60571  1.0000
  C   C2270     1.0  0.95460  0.05966  0.53314  1.0000
  H   H1823     1.0  0.80171  0.12591  0.70305  1.0000
  H   H1824     1.0  0.78748  0.13130  0.65325  1.0000
  H   H1825     1.0  0.85565  0.16835  0.68397  1.0000
  C   C2271     1.0  0.54840  0.28965  0.48942  1.0000
  C   C2272     1.0  0.85746  0.02419  0.62036  1.0000
  C   C2273     1.0  0.99324  0.09755  0.56338  1.0000
  H   H1826     1.0  0.83408  0.10345  0.68419  1.0000
  H   H1827     1.0  0.83258  0.19064  0.65796  1.0000
  H   H1828     1.0  0.97132  0.09054  0.64572  1.0000
  C   C2274     1.0  0.91971  0.19550  0.57292  1.0000
  C   C2275     1.0  0.94230  0.19513  0.57020  1.0000
  C   C2276     1.0  0.81583  0.21392  0.67268  1.0000
  H   H1829     1.0  0.80156  0.17077  0.64404  1.0000
  H   H1830     1.0  0.81241  0.17114  0.61471  1.0000
  H   H1831     1.0  0.84450  0.14876  0.60479  1.0000
  H   H1832     1.0  0.86589  0.12620  0.62414  1.0000
  H   H1833     1.0  0.85567  0.12569  0.65339  1.0000
  C   C2277     1.0  0.73793  0.15401  0.71325  1.0000
  C   C2278     1.0  0.76708  0.25538  0.64364  1.0000
  H   H1834     1.0  0.69162  0.29411  0.69573  1.0000
  C   C2279     1.0  0.74799  0.29737  0.64592  1.0000
  H   H1835     1.0  0.72343  0.29426  0.67582  1.0000
  C   C2280     1.0  0.55027  0.29254  0.54597  1.0000
  H   H1836     1.0  0.66480  0.13298  0.70602  1.0000
  H   H1837     1.0  0.78386  0.20203  0.70744  1.0000
  C   C2281     1.0  0.90765  0.02482  0.52428  1.0000
  H   H1838     1.0  0.58196  0.30594  0.54218  1.0000
  C   C2282     1.0  0.69335  0.30732  0.68628  1.0000
  H   H1839     1.0  0.52193  0.27356  0.55024  1.0000
  H   H1840     1.0  0.80154  0.02369  0.60376  1.0000
  C   C2283     1.0  0.51072  0.29890  0.59514  1.0000
  H   H1841     1.0  0.79581  0.29370  0.68099  1.0000
  H   H1842     1.0  0.87744  0.04295  0.49246  1.0000
  H   H1843     1.0  0.93852  0.16039  0.60543  1.0000
  H   H1844     1.0  0.88617  0.15374  0.69891  1.0000
  C   C2284     1.0  0.78843  0.25438  0.71946  1.0000
  C   C2285     1.0  0.80126  0.30469  0.68876  1.0000
  H   H1845     1.0  0.90494  0.01065  0.58113  1.0000
  H   H1846     1.0  0.81517  0.06202  0.50337  1.0000
  H   H1847     1.0  0.71289  0.16840  0.69895  1.0000
  H   H1848     1.0  0.77183  0.10155  0.71023  1.0000
  H   H1849     1.0  0.78410  0.32174  0.64275  1.0000
  H   H1850     1.0  0.90767  0.18325  0.53609  1.0000
  C   C2286     1.0  0.98843  0.14820  0.53402  1.0000
  S   S308      1.0  0.96337  0.07642  0.58506  1.0000
  H   H1851     1.0  0.70816  0.20188  0.71286  1.0000
  H   H1852     1.0  0.95628  0.09560  0.49974  1.0000
  C   C2287     1.0  0.82846  0.31464  0.70484  1.0000
  C   C2288     1.0  0.97529  0.00963  0.51486  1.0000
  C   C2289     1.0  0.53931  0.27322  0.54745  1.0000
  C   C2290     1.0  0.94390  0.20800  0.60391  1.0000
  C   C2291     1.0  0.77043  0.26683  0.65669  1.0000
  C   C2292     1.0  0.75113  0.24623  0.71817  1.0000
  H   H1853     1.0  0.94738  0.18306  0.53091  1.0000
  C   C2293     1.0  0.72263  0.17037  0.70870  1.0000
  C   C2294     1.0  0.76911  0.25800  0.71216  1.0000
  C   C2295     1.0  0.85608  0.01155  0.56612  1.0000
  C   C2296     1.0  0.52063  0.30743  0.69038  1.0000
  H   H1854     1.0  0.60176  0.27084  0.53904  1.0000
  H   H1855     1.0  0.55492  0.30852  0.69210  1.0000
  C   C2297     1.0  0.96831  0.16921  0.59155  1.0000
  H   H1856     1.0  0.97508  0.15200  0.54280  1.0000
  H   H1857     1.0  0.84788  0.16509  0.72089  1.0000
  C   C2298     1.0  0.81977  0.04602  0.49958  1.0000
  H   H1858     1.0  0.90748  0.24937  0.61339  1.0000
  H   H1859     1.0  0.73999  0.13931  0.70713  1.0000
  C   C2299     1.0  0.83121  0.00489  0.48942  1.0000
  H   H1860     1.0  0.50268  0.23379  0.66956  1.0000
  C   C2300     1.0  0.55073  0.25331  0.54563  1.0000
  H   H1861     1.0  0.87716  0.10723  0.49303  1.0000
  H   H1862     1.0  0.92719  0.23368  0.58971  1.0000
  C   C2301     1.0  0.87048  0.00380  0.52031  1.0000
  C   C2302     1.0  0.82423  0.00614  0.61910  1.0000
  C   C2303     1.0  0.85030  0.04135  0.60974  1.0000
  H   H1863     1.0  0.91163  0.19802  0.58470  1.0000
  H   H1864     1.0  0.95907  0.18591  0.62179  1.0000
  C   C2304     1.0  0.80224  0.21722  0.68666  1.0000
  H   H1865     1.0  0.53379  0.28573  0.57754  1.0000
  H   H1866     1.0  0.76819  0.26994  0.70184  1.0000
  H   H1867     1.0  0.98103  0.05071  0.54761  1.0000
  C   C2305     1.0  0.55623  0.32671  0.47942  1.0000
  C   C2306     1.0  0.80951  0.02791  0.50729  1.0000
  H   H1868     1.0  0.76355  0.29644  0.66802  1.0000
  C   C2307     1.0  0.98186  0.12549  0.59813  1.0000
  C   C2308     1.0  0.51060  0.30988  0.52379  1.0000
  C   C2309     1.0  0.71377  0.32476  0.66271  1.0000
  C   C2310     1.0  0.57610  0.30756  0.50060  1.0000
  H   H1869     1.0  0.97235  0.12232  0.52608  1.0000
  H   H1870     1.0  0.80244  0.26337  0.71477  1.0000
  C   C2311     1.0  0.74461  0.28573  0.63290  1.0000
  C   C2312     1.0  0.79865  0.17844  0.69185  1.0000
  C   C2313     1.0  0.97599  0.05970  0.53668  1.0000
  C   C2314     1.0  0.90063  0.12013  0.50634  1.0000
  C   C2315     1.0  0.81700  0.02364  0.60862  1.0000
  H   H1871     1.0  0.71050  0.01021  0.71316  1.0000
  C   C2316     1.0  0.87537  0.00303  0.57206  1.0000
  H   H1872     1.0  0.89208  0.11586  0.51802  1.0000
  C   C2317     1.0  0.91725  0.18713  0.54547  1.0000
  C   C2318     1.0  0.68698  0.10657  0.71327  1.0000
  H   H1873     1.0  0.70531  0.07860  0.72308  1.0000
  H   H1874     1.0  0.83237  0.12956  0.71936  1.0000
  H   H1875     1.0  0.88580  0.05126  0.53166  1.0000
  C   C2319     1.0  0.57216  0.32619  0.49024  1.0000
  C   C2320     1.0  0.96150  0.13313  0.60443  1.0000
  C   C2321     1.0  0.67741  0.32416  0.68549  1.0000
  C   C2322     1.0  0.52264  0.29932  0.58001  1.0000
  H   H1876     1.0  0.74971  0.09204  0.68917  1.0000
  H   H1877     1.0  0.87330  0.02430  0.62465  1.0000
  C   C2323     1.0  0.99524  0.13947  0.58818  1.0000
  C   C2324     1.0  0.90535  0.05953  0.48227  1.0000
  H   H1878     1.0  0.82482  0.05428  0.59543  1.0000
  C   C2325     1.0  0.52030  0.31726  0.56849  1.0000
  C   C2326     1.0  0.69016  0.08823  0.72404  1.0000
  C   C2327     1.0  0.87467  0.14278  0.69582  1.0000
  H   H1879     1.0  0.79703  0.02979  0.51713  1.0000
  P   P78       1.0  0.53544  0.31820  0.54877  1.0000
  H   H1880     1.0  0.58852  0.30726  0.50884  1.0000
  C   C2328     1.0  0.53823  0.29729  0.71485  1.0000
  C   C2329     1.0  0.87735  0.12053  0.70020  1.0000
  H   H1881     1.0  0.75159  0.25592  0.62165  1.0000
  S   S309      1.0  0.87094  0.24565  0.72525  1.0000
  H   H1882     1.0  0.91330  0.23328  0.64114  1.0000
  H   H1883     1.0  0.98617  0.28286  0.70992  1.0000
  C   C2330     1.0  0.94772  0.07232  0.51961  1.0000
  H   H1884     1.0  0.52195  0.31279  0.67762  1.0000
  C   C2331     1.0  0.71986  0.18927  0.71673  1.0000
  C   C2332     1.0  0.86867  0.02470  0.52537  1.0000
  H   H1885     1.0  0.85287  0.03260  0.52803  1.0000
  H   H1886     1.0  0.96966  0.18989  0.55267  1.0000
  H   H1887     1.0  0.55280  0.29510  0.72111  1.0000
  C   C2333     1.0  0.51832  0.29219  0.72309  1.0000
  C   C2334     1.0  0.98943  0.08044  0.57532  1.0000
  H   H1888     1.0  0.66333  0.32388  0.69418  1.0000
  H   H1889     1.0  0.98693  0.10853  0.60056  1.0000
  C   C2335     1.0  0.99060  0.07225  0.52665  1.0000
  H   H1890     1.0  0.63293  0.01787  0.72454  1.0000
  C   C2336     1.0  0.83591  0.04354  0.48690  1.0000
  H   H1891     1.0  0.93579  0.02323  0.48962  1.0000
  H   H1892     1.0  0.77294  0.32693  0.68727  1.0000
  C   C2337     1.0  0.65072  0.11236  0.72606  1.0000
  C   C2338     1.0  0.96679  0.03710  0.48737  1.0000
  C   C2339     1.0  0.98228  0.12291  0.64045  1.0000
  C   C2340     1.0  0.97991  0.23004  0.56749  1.0000
  C   C2341     1.0  0.98089  0.21414  0.58060  1.0000
  C   C2342     1.0  0.84234  0.02282  0.48212  1.0000
  H   H1893     1.0  0.63562  0.12199  0.72654  1.0000
  C   C2343     1.0  0.63394  0.32795  0.72218  1.0000
  C   C2344     1.0  0.99229  0.11314  0.48211  1.0000
  C   C2345     1.0  0.88876  0.04548  0.48189  1.0000
  C   C2346     1.0  0.49670  0.31650  0.59903  1.0000
  C   C2347     1.0  0.98849  0.16126  0.58483  1.0000
  H   H1894     1.0  0.76216  0.99752  0.62410  1.0000
  C   C2348     1.0  0.50067  0.23642  0.72843  1.0000
  C   C2349     1.0  0.82515  0.14024  0.72809  1.0000
  C   C2350     1.0  0.54450  0.30822  0.47896  1.0000
  S   S310      1.0  0.97429  0.12001  0.91885  1.0000
  Fe  Fe157     1.0  0.85709  0.02222  0.88776  1.0000
  S   S311      1.0  0.82626  0.03961  0.89669  1.0000
  Fe  Fe158     1.0  0.88230  0.06257  0.88662  1.0000
  S   S312      1.0  0.85339  0.08290  0.89588  1.0000
  S   S313      1.0  0.91471  0.07458  0.87641  1.0000
  Fe  Fe159     1.0  0.84660  0.05358  0.91360  1.0000
  S   S314      1.0  0.83248  0.04857  0.93993  1.0000
  Fe  Fe160     1.0  0.83582  0.06691  0.87817  1.0000
  S   S315      1.0  0.81516  0.08797  0.86083  1.0000
  S   S316      1.0  0.87699  0.03444  0.90550  1.0000
  S   S317      1.0  0.86520  0.04833  0.86803  1.0000
  H   H1895     1.0  0.98297  0.10055  0.88856  1.0000
  H   H1896     1.0  0.67903  0.09733  0.79443  1.0000
  C   C2351     1.0  0.55137  0.30874  0.85093  1.0000
  H   H1897     1.0  0.96357  0.15413  0.81182  1.0000
  H   H1898     1.0  0.86391  0.01552  0.97521  1.0000
  C   C2352     1.0  0.69768  0.04835  0.92718  1.0000
  Fe  Fe161     1.0  0.59455  0.22471  0.76253  1.0000
  S   S318      1.0  0.57670  0.24186  0.74213  1.0000
  S   S319      1.0  0.61425  0.19334  0.75599  1.0000
  Fe  Fe162     1.0  0.57917  0.26088  0.78515  1.0000
  S   S320      1.0  0.56075  0.27982  0.76605  1.0000
  S   S321      1.0  0.58774  0.27566  0.80786  1.0000
  Fe  Fe163     1.0  0.54875  0.24789  0.76070  1.0000
  S   S322      1.0  0.51196  0.24729  0.75837  1.0000
  Fe  Fe164     1.0  0.58985  0.27223  0.74904  1.0000
  C   C2353     1.0  0.80715  0.13388  0.73851  1.0000
  S   S323      1.0  0.56568  0.22893  0.78107  1.0000
  S   S324      1.0  0.60913  0.25493  0.76809  1.0000
  Fe  Fe165     1.0  0.75224  0.07155  0.78413  1.0000
  S   S325      1.0  0.76717  0.06091  0.76031  1.0000
  S   S326      1.0  0.76369  0.05318  0.80709  1.0000
  Fe  Fe166     1.0  0.72135  0.10618  0.76792  1.0000
  S   S327      1.0  0.73446  0.09780  0.74300  1.0000
  S   S328      1.0  0.69871  0.13536  0.77543  1.0000
  Fe  Fe167     1.0  0.73358  0.06223  0.75274  1.0000
  H   H1899     1.0  0.72449  0.06779  0.91858  1.0000
  Fe  Fe168     1.0  0.76713  0.09658  0.75235  1.0000
  C   C2354     1.0  0.63631  0.30677  0.74787  1.0000
  S   S329      1.0  0.71813  0.07079  0.77722  1.0000
  S   S330      1.0  0.75460  0.10710  0.77657  1.0000
  H   H1900     1.0  0.57024  0.15679  0.75386  1.0000
  H   H1901     1.0  0.89702  0.05253  0.94575  1.0000
  H   H1902     1.0  0.71810  0.17733  0.76176  1.0000
  C   C2355     1.0  0.63907  0.17890  0.76061  1.0000
  C   C2356     1.0  0.64719  0.16177  0.75143  1.0000
  C   C2357     1.0  0.66583  0.14882  0.75534  1.0000
  C   C2358     1.0  0.67634  0.15242  0.76881  1.0000
  C   C2359     1.0  0.66857  0.16995  0.77771  1.0000
  C   C2360     1.0  0.65034  0.18330  0.77348  1.0000
  H   H1903     1.0  0.63881  0.15831  0.74132  1.0000
  H   H1904     1.0  0.67180  0.13579  0.74812  1.0000
  H   H1905     1.0  0.67650  0.17308  0.78811  1.0000
  H   H1906     1.0  0.64460  0.19660  0.78047  1.0000
  C   C2361     1.0  0.97823  0.29808  0.74832  1.0000
  S   S331      1.0  0.83657  0.19872  0.74239  1.0000
  C   C2362     1.0  0.95915  0.12799  0.84313  1.0000
  H   H1907     1.0  0.77345  0.21521  0.74897  1.0000
  H   H1908     1.0  0.76257  0.14396  0.72917  1.0000
  S   S332      1.0  0.79635  0.10877  0.73657  1.0000
  H   H1909     1.0  0.67689  0.06805  0.74447  1.0000
  P   P79       1.0  0.98321  0.01834  0.87319  1.0000
  C   C2363     1.0  0.68797  0.02881  0.92647  1.0000
  H   H1910     1.0  0.68499  0.20166  0.74153  1.0000
  C   C2364     1.0  0.91218  0.99872  0.94904  1.0000
  H   H1911     1.0  0.66441  0.29706  0.82709  1.0000
  C   C2365     1.0  0.65928  0.07012  0.80167  1.0000
  C   C2366     1.0  0.97357  0.24971  0.79452  1.0000
  C   C2367     1.0  0.62603  0.31165  0.73371  1.0000
  C   C2368     1.0  0.57270  0.28966  0.82346  1.0000
  C   C2369     1.0  0.55099  0.28604  0.82837  1.0000
  C   C2370     1.0  0.54050  0.29540  0.84205  1.0000
  H   H1912     1.0  0.78583  0.02711  0.87209  1.0000
  C   C2371     1.0  0.94993  0.09167  0.83920  1.0000
  H   H1913     1.0  0.54247  0.27545  0.82198  1.0000
  C   C2372     1.0  0.94427  0.04152  0.91099  1.0000
  C   C2373     1.0  0.59036  0.03822  0.74828  1.0000
  C   C2374     1.0  0.80224  0.07812  0.84520  1.0000
  C   C2375     1.0  0.79196  0.09294  0.83415  1.0000
  C   C2376     1.0  0.78081  0.08563  0.82198  1.0000
  C   C2377     1.0  0.77939  0.06338  0.82102  1.0000
  C   C2378     1.0  0.78987  0.04860  0.83197  1.0000
  C   C2379     1.0  0.80155  0.05591  0.84380  1.0000
  H   H1914     1.0  0.79249  0.11017  0.83506  1.0000
  H   H1915     1.0  0.77284  0.09719  0.81365  1.0000
  H   H1916     1.0  0.78891  0.03137  0.83130  1.0000
  H   H1917     1.0  0.80980  0.04440  0.85198  1.0000
  C   C2380     1.0  0.95159  0.03025  0.89762  1.0000
  C   C2381     1.0  0.84083  0.05698  0.95792  1.0000
  C   C2382     1.0  0.94102  0.01994  0.95521  1.0000
  C   C2383     1.0  0.65895  0.09167  0.77590  1.0000
  H   H1918     1.0  0.86245  0.08067  0.94634  1.0000
  C   C2384     1.0  0.95769  0.10729  0.90712  1.0000
  C   C2385     1.0  0.93570  0.10526  0.91233  1.0000
  C   C2386     1.0  0.92229  0.09497  0.90317  1.0000
  C   C2387     1.0  0.93077  0.08712  0.88859  1.0000
  C   C2388     1.0  0.95264  0.08937  0.88334  1.0000
  C   C2389     1.0  0.96611  0.09921  0.89263  1.0000
  H   H1919     1.0  0.92908  0.11157  0.92352  1.0000
  H   H1920     1.0  0.90539  0.09338  0.90727  1.0000
  H   H1921     1.0  0.95922  0.08326  0.87213  1.0000
  C   C2390     1.0  0.61237  0.12253  0.76462  1.0000
  C   C2391     1.0  0.57290  0.31296  0.84569  1.0000
  C   C2392     1.0  0.92677  0.02537  0.85173  1.0000
  C   C2393     1.0  0.71752  0.01739  0.90752  1.0000
  C   C2394     1.0  0.59338  0.26250  0.85857  1.0000
  H   H1922     1.0  0.63024  0.29449  0.75692  1.0000
  H   H1923     1.0  0.91396  0.03793  0.85040  1.0000
  H   H1924     1.0  0.95848  0.24118  0.75932  1.0000
  H   H1925     1.0  0.57402  0.03460  0.75301  1.0000
  H   H1926     1.0  0.63790  0.04381  0.80540  1.0000
  H   H1927     1.0  0.94659  0.30445  0.76085  1.0000
  H   H1928     1.0  0.60028  0.30623  0.82855  1.0000
  S   S333      1.0  0.60340  0.29766  0.73000  1.0000
  C   C2395     1.0  0.72292  0.18492  0.78556  1.0000
  H   H1929     1.0  0.93995  0.02229  0.89180  1.0000
  C   C2396     1.0  0.60084  0.23510  0.83970  1.0000
  C   C2397     1.0  0.62264  0.24023  0.83732  1.0000
  C   C2398     1.0  0.62959  0.25670  0.84568  1.0000
  P   P80       1.0  0.64216  0.22547  0.82438  1.0000
  C   C2399     1.0  0.65128  0.24175  0.80619  1.0000
  C   C2400     1.0  0.66431  0.21696  0.83640  1.0000
  C   C2401     1.0  0.65994  0.20606  0.85181  1.0000
  C   C2402     1.0  0.67673  0.19964  0.86147  1.0000
  C   C2403     1.0  0.69800  0.20419  0.85586  1.0000
  C   C2404     1.0  0.70247  0.21523  0.84061  1.0000
  C   C2405     1.0  0.68571  0.22167  0.83090  1.0000
  C   C2406     1.0  0.64439  0.26368  0.80353  1.0000
  C   C2407     1.0  0.65144  0.27582  0.78918  1.0000
  C   C2408     1.0  0.66549  0.26621  0.77750  1.0000
  C   C2409     1.0  0.67226  0.24434  0.78001  1.0000
  C   C2410     1.0  0.66506  0.23210  0.79423  1.0000
  C   C2411     1.0  0.63084  0.20222  0.81763  1.0000
  C   C2412     1.0  0.63935  0.18105  0.82161  1.0000
  C   C2413     1.0  0.63104  0.16336  0.81561  1.0000
  C   C2414     1.0  0.61182  0.10716  0.75341  1.0000
  C   C2415     1.0  0.60590  0.18766  0.80139  1.0000
  C   C2416     1.0  0.61426  0.20542  0.80726  1.0000
  C   C2417     1.0  0.58347  0.30340  0.83211  1.0000
  H   H1930     1.0  0.67271  0.02571  0.93349  1.0000
  C   C2418     1.0  0.96178  0.23652  0.73400  1.0000
  H   H1931     1.0  0.59480  0.22271  0.83340  1.0000
  H   H1932     1.0  0.64629  0.26097  0.84400  1.0000
  H   H1933     1.0  0.64348  0.20258  0.85636  1.0000
  H   H1934     1.0  0.67323  0.19125  0.87336  1.0000
  H   H1935     1.0  0.71099  0.19929  0.86340  1.0000
  H   H1936     1.0  0.71894  0.21898  0.83637  1.0000
  H   H1937     1.0  0.68957  0.23050  0.81927  1.0000
  H   H1938     1.0  0.63325  0.27140  0.81228  1.0000
  H   H1939     1.0  0.64574  0.29262  0.78701  1.0000
  H   H1940     1.0  0.67083  0.27564  0.76640  1.0000
  H   H1941     1.0  0.68280  0.23677  0.77083  1.0000
  H   H1942     1.0  0.67021  0.21507  0.79589  1.0000
  H   H1943     1.0  0.65264  0.17805  0.82907  1.0000
  H   H1944     1.0  0.81944  0.04178  0.80359  1.0000
  P   P81       1.0  0.72903  0.21612  0.73994  1.0000
  C   C2419     1.0  0.66410  0.23028  0.73818  1.0000
  H   H1945     1.0  0.60795  0.22169  0.80358  1.0000
  C   C2420     1.0  0.58081  0.12749  0.74273  1.0000
  C   C2421     1.0  0.97014  0.08808  0.83073  1.0000
  H   H1946     1.0  0.62334  0.05164  0.77901  1.0000
  H   H1947     1.0  0.69787  0.29327  0.80853  1.0000
  H   H1948     1.0  0.56936  0.24277  0.85164  1.0000
  H   H1949     1.0  0.74909  0.00290  0.75331  1.0000
  H   H1950     1.0  0.66574  0.06659  0.81327  1.0000
  C   C2422     1.0  0.77036  0.00255  0.90936  1.0000
  C   C2423     1.0  0.99294  0.18212  0.85013  1.0000
  H   H1951     1.0  0.81999  0.03543  0.97315  1.0000
  C   C2424     1.0  0.98805  0.03990  0.90004  1.0000
  C   C2425     1.0  0.83162  0.04768  0.97287  1.0000
  H   H1952     1.0  0.72486  0.00541  0.89975  1.0000
  C   C2426     1.0  0.99097  0.19219  0.78734  1.0000
  C   C2427     1.0  0.61426  0.16665  0.80558  1.0000
  C   C2428     1.0  0.85552  0.07313  0.95775  1.0000
  C   C2429     1.0  0.98077  0.05101  0.91344  1.0000
  C   C2430     1.0  0.78497  0.01497  0.88232  1.0000
  H   H1953     1.0  0.99300  0.06476  0.87293  1.0000
  C   C2431     1.0  0.80728  0.16750  0.75112  1.0000
  C   C2432     1.0  0.65391  0.09406  0.73710  1.0000
  C   C2433     1.0  0.62065  0.06155  0.74628  1.0000
  P   P82       1.0  0.99280  0.30338  0.76511  1.0000
  C   C2434     1.0  0.94491  0.02940  0.85933  1.0000
  H   H1954     1.0  0.95960  0.23992  0.79647  1.0000
  C   C2435     1.0  0.97658  0.16451  0.80735  1.0000
  C   C2436     1.0  0.61501  0.26777  0.85626  1.0000
  H   H1955     1.0  0.99118  0.23026  0.81226  1.0000
  H   H1956     1.0  0.94614  0.04518  0.86355  1.0000
  C   C2437     1.0  0.92494  0.00504  0.84629  1.0000
  H   H1957     1.0  0.80052  0.17794  0.76020  1.0000
  H   H1958     1.0  0.93404  0.05452  0.95378  1.0000
  H   H1959     1.0  0.52388  0.29198  0.84592  1.0000
  H   H1960     1.0  0.51751  0.28592  0.73572  1.0000
  H   H1961     1.0  0.71824  0.16916  0.79111  1.0000
  C   C2438     1.0  0.73479  0.22553  0.77108  1.0000
  C   C2439     1.0  0.59648  0.32033  0.77579  1.0000
  H   H1962     1.0  0.69019  0.99833  0.91591  1.0000
  P   P83       1.0  0.75264  0.04211  0.89641  1.0000
  C   C2440     1.0  0.72756  0.03679  0.90841  1.0000
  C   C2441     1.0  0.76796  0.06057  0.90551  1.0000
  C   C2442     1.0  0.76982  0.05784  0.92221  1.0000
  C   C2443     1.0  0.78310  0.07093  0.92918  1.0000
  C   C2444     1.0  0.79477  0.08665  0.91952  1.0000
  C   C2445     1.0  0.79311  0.08936  0.90288  1.0000
  C   C2446     1.0  0.77994  0.07622  0.89588  1.0000
  H   H1963     1.0  0.81936  0.00425  0.93750  1.0000
  H   H1964     1.0  0.72847  0.19689  0.80803  1.0000
  H   H1965     1.0  0.99462  0.19176  0.83861  1.0000
  C   C2447     1.0  0.72920  0.00955  0.73360  1.0000
  C   C2448     1.0  0.59946  0.05674  0.75236  1.0000
  C   C2449     1.0  0.74503  0.05240  0.87663  1.0000
  C   C2450     1.0  0.74337  0.03816  0.86478  1.0000
  C   C2451     1.0  0.73795  0.04623  0.84939  1.0000
  C   C2452     1.0  0.73373  0.06847  0.84581  1.0000
  C   C2453     1.0  0.73450  0.08265  0.85771  1.0000
  C   C2454     1.0  0.73982  0.07463  0.87314  1.0000
  H   H1966     1.0  0.63785  0.14709  0.81851  1.0000
  H   H1967     1.0  0.75965  0.00487  0.92014  1.0000
  C   C2455     1.0  0.94439  0.11168  0.84527  1.0000
  H   H1968     1.0  0.73889  0.23310  0.79518  1.0000
  C   C2456     1.0  0.97391  0.26766  0.78297  1.0000
  H   H1969     1.0  0.76155  0.04522  0.92981  1.0000
  H   H1970     1.0  0.78510  0.06834  0.94198  1.0000
  H   H1971     1.0  0.80564  0.09622  0.92488  1.0000
  H   H1972     1.0  0.80265  0.10109  0.89528  1.0000
  H   H1973     1.0  0.77976  0.07782  0.88290  1.0000
  H   H1974     1.0  0.75802  0.17725  0.74333  1.0000
  H   H1975     1.0  0.80506  0.23568  0.73800  1.0000
  C   C2457     1.0  0.72864  0.20057  0.79507  1.0000
  H   H1976     1.0  0.73924  0.24141  0.76564  1.0000
  H   H1977     1.0  0.96000  0.27150  0.77625  1.0000
  H   H1978     1.0  0.74657  0.02088  0.86727  1.0000
  H   H1979     1.0  0.73764  0.03537  0.84001  1.0000
  H   H1980     1.0  0.73030  0.07469  0.83368  1.0000
  H   H1981     1.0  0.73136  0.09990  0.85486  1.0000
  H   H1982     1.0  0.74025  0.08585  0.88223  1.0000
  C   C2458     1.0  0.96984  0.23858  0.74896  1.0000
  C   C2459     1.0  0.77183  0.22735  0.73886  1.0000
  C   C2460     1.0  0.79816  0.14759  0.75002  1.0000
  H   H1983     1.0  0.56877  0.12966  0.73411  1.0000
  C   C2461     1.0  0.90709  0.03781  0.94798  1.0000
  H   H1984     1.0  0.98447  0.31399  0.79888  1.0000
  C   C2462     1.0  0.70325  0.23067  0.73744  1.0000
  H   H1985     1.0  0.62480  0.12144  0.77286  1.0000
  C   C2463     1.0  0.62351  0.02881  0.73222  1.0000
  C   C2464     1.0  0.98494  0.10442  0.82850  1.0000
  H   H1986     1.0  0.88313  0.01693  0.94242  1.0000
  C   C2465     1.0  0.97784  0.32723  0.79110  1.0000
  H   H1987     1.0  0.59196  0.30375  0.77845  1.0000
  C   C2466     1.0  0.75212  0.23136  0.73194  1.0000
  H   H1988     1.0  0.95734  0.02125  0.95821  1.0000
  C   C2467     1.0  0.73450  0.22091  0.78784  1.0000
  C   C2468     1.0  0.66262  0.25292  0.73565  1.0000
  H   H1989     1.0  0.98784  0.21036  0.86345  1.0000
  C   C2469     1.0  0.98920  0.29218  0.73373  1.0000
  H   H1990     1.0  0.78428  0.14282  0.75810  1.0000
  C   C2470     1.0  0.96097  0.01293  0.86212  1.0000
  H   H1991     1.0  0.92889  0.11427  0.85216  1.0000
  H   H1992     1.0  0.64907  0.05032  0.73149  1.0000
  H   H1993     1.0  0.87508  0.17511  0.75213  1.0000
  C   C2471     1.0  0.71735  0.05242  0.91810  1.0000
  C   C2472     1.0  0.82060  0.07027  0.76668  1.0000
  C   C2473     1.0  0.81717  0.05314  0.77863  1.0000
  C   C2474     1.0  0.82270  0.05484  0.79423  1.0000
  C   C2475     1.0  0.83158  0.07367  0.79795  1.0000
  C   C2476     1.0  0.83532  0.09086  0.78593  1.0000
  C   C2477     1.0  0.82941  0.08914  0.77033  1.0000
  P   P84       1.0  0.84594  0.11567  0.79063  1.0000
  C   C2478     1.0  0.86233  0.10982  0.80743  1.0000
  C   C2479     1.0  0.86241  0.12684  0.77306  1.0000
  C   C2480     1.0  0.87545  0.11294  0.76335  1.0000
  C   C2481     1.0  0.88804  0.12140  0.74965  1.0000
  C   C2482     1.0  0.88793  0.14380  0.74563  1.0000
  C   C2483     1.0  0.87526  0.15773  0.75533  1.0000
  C   C2484     1.0  0.86238  0.14934  0.76890  1.0000
  C   C2485     1.0  0.88491  0.10666  0.80483  1.0000
  C   C2486     1.0  0.89732  0.10152  0.81791  1.0000
  C   C2487     1.0  0.88730  0.09945  0.83368  1.0000
  C   C2488     1.0  0.86491  0.10274  0.83637  1.0000
  C   C2489     1.0  0.85245  0.10788  0.82334  1.0000
  C   C2490     1.0  0.82382  0.13469  0.79601  1.0000
  C   C2491     1.0  0.82723  0.15195  0.80497  1.0000
  C   C2492     1.0  0.81031  0.16706  0.80882  1.0000
  C   C2493     1.0  0.78988  0.16503  0.80375  1.0000
  C   C2494     1.0  0.78633  0.14784  0.79490  1.0000
  C   C2495     1.0  0.80321  0.13271  0.79103  1.0000
  C   C2496     1.0  0.99132  0.24426  0.80340  1.0000
  H   H1994     1.0  0.95461  0.14327  0.84816  1.0000
  C   C2497     1.0  0.58630  0.24628  0.85024  1.0000
  H   H1995     1.0  0.83508  0.07479  0.81025  1.0000
  H   H1996     1.0  0.83123  0.10251  0.76101  1.0000
  H   H1997     1.0  0.87576  0.09553  0.76632  1.0000
  H   H1998     1.0  0.89781  0.11060  0.74209  1.0000
  C   C2498     1.0  0.78986  0.23886  0.73264  1.0000
  H   H1999     1.0  0.59811  0.15243  0.77310  1.0000
  H   H2000     1.0  0.85229  0.16055  0.77589  1.0000
  H   H2001     1.0  0.89301  0.10804  0.79275  1.0000
  H   H2002     1.0  0.91470  0.09906  0.81583  1.0000
  H   H2003     1.0  0.89676  0.09521  0.84387  1.0000
  H   H2004     1.0  0.85717  0.10110  0.84860  1.0000
  H   H2005     1.0  0.83506  0.11001  0.82573  1.0000
  H   H2006     1.0  0.84304  0.15386  0.80884  1.0000
  H   H2007     1.0  0.81312  0.18042  0.81563  1.0000
  H   H2008     1.0  0.77682  0.17681  0.80662  1.0000
  H   H2009     1.0  0.77052  0.14628  0.79091  1.0000
  H   H2010     1.0  0.80012  0.11964  0.78404  1.0000
  H   H2011     1.0  0.59336  0.19023  0.79318  1.0000
  H   H2012     1.0  0.82150  0.99783  0.96682  1.0000
  C   C2499     1.0  0.92791  0.03890  0.95258  1.0000
  C   C2500     1.0  0.63545  0.06178  0.78216  1.0000
  C   C2501     1.0  0.89930  0.01773  0.94606  1.0000
  C   C2502     1.0  0.59722  0.14018  0.76484  1.0000
  C   C2503     1.0  0.64308  0.07903  0.77136  1.0000
  C   C2504     1.0  0.99488  0.15935  0.85106  1.0000
  C   C2505     1.0  0.60238  0.02425  0.73822  1.0000
  H   H2013     1.0  0.89752  0.15045  0.73496  1.0000
  C   C2506     1.0  0.95880  0.05231  0.91865  1.0000
  H   H2014     1.0  0.59555  0.09855  0.73337  1.0000
  H   H2015     1.0  0.95983  0.17910  0.78722  1.0000
  P   P85       1.0  0.63239  0.08529  0.75200  1.0000
  C   C2507     1.0  0.99236  0.23746  0.75065  1.0000
  C   C2508     1.0  0.98907  0.19280  0.86422  1.0000
  H   H2016     1.0  0.92716  0.04272  0.91490  1.0000
  H   H2017     1.0  0.58193  0.27144  0.86647  1.0000
  C   C2509     1.0  0.76986  0.01764  0.89569  1.0000
  C   C2510     1.0  0.86042  0.08031  0.97241  1.0000
  H   H2018     1.0  0.80969  0.03879  0.77594  1.0000
  H   H2019     1.0  0.68993  0.06042  0.93471  1.0000
  H   H2020     1.0  0.95307  0.06235  0.92822  1.0000
  H   H2021     1.0  0.60803  0.15297  0.80079  1.0000
  C   C2511     1.0  0.82517  0.17393  0.74054  1.0000
  C   C2512     1.0  0.95551  0.30002  0.74975  1.0000
  H   H2022     1.0  0.98932  0.20298  0.77645  1.0000
  C   C2513     1.0  0.72306  0.18955  0.76884  1.0000
  H   H2023     1.0  0.59002  0.06722  0.76037  1.0000
  H   H2024     1.0  0.62030  0.28067  0.86252  1.0000
  C   C2514     1.0  0.97437  0.17866  0.79341  1.0000
  C   C2515     1.0  0.99416  0.03470  0.97808  1.0000
  H   H2025     1.0  0.66527  0.10490  0.76777  1.0000
  H   H2026     1.0  0.97449  0.07248  0.82616  1.0000
  C   C2516     1.0  0.97348  0.03022  0.89162  1.0000
  C   C2517     1.0  0.97925  0.32634  0.77429  1.0000
  S   S334      1.0  0.72187  0.03752  0.73681  1.0000
  C   C2518     1.0  0.58153  0.14272  0.75389  1.0000
  C   C2519     1.0  0.66680  0.08740  0.79106  1.0000
  H   H2027     1.0  0.81590  0.06919  0.75464  1.0000
  C   C2520     1.0  0.72937  0.20976  0.76145  1.0000
  H   H2028     1.0  0.93866  0.07885  0.84136  1.0000
  H   H2029     1.0  0.99334  0.12993  0.86732  1.0000
  C   C2521     1.0  0.68428  0.21919  0.73918  1.0000
  C   C2522     1.0  0.59594  0.10982  0.74243  1.0000
  C   C2523     1.0  0.68588  0.30629  0.80605  1.0000
  C   C2524     1.0  0.99218  0.28012  0.78002  1.0000
  C   C2525     1.0  0.98702  0.18084  0.87931  1.0000
  C   C2526     1.0  0.70149  0.25350  0.73573  1.0000
  H   H2030     1.0  0.87111  0.09344  0.97217  1.0000
  C   C2527     1.0  0.67390  0.08220  0.73611  1.0000
  C   C2528     1.0  0.64362  0.05730  0.79721  1.0000
  S   S335      1.0  0.53751  0.31873  0.86879  1.0000
  C   C2529     1.0  0.97973  0.12434  0.83501  1.0000
  H   H2031     1.0  0.59539  0.00982  0.73513  1.0000
  H   H2032     1.0  0.66213  0.31433  0.76143  1.0000
  H   H2033     1.0  0.92130  0.07628  0.97499  1.0000
  C   C2530     1.0  0.99241  0.14749  0.86628  1.0000
  C   C2531     1.0  0.63263  0.04736  0.73622  1.0000
  C   C2532     1.0  0.69785  0.01337  0.91660  1.0000
  C   C2533     1.0  0.65438  0.31800  0.75041  1.0000
  H   H2034     1.0  0.96125  0.07108  0.97372  1.0000
  H   H2035     1.0  0.91063  0.00177  0.84074  1.0000
  H   H2036     1.0  0.61542  0.31870  0.79587  1.0000
  H   H2037     1.0  0.71556  0.26291  0.73557  1.0000
  C   C2534     1.0  0.73217  0.19175  0.72955  1.0000
  C   C2535     1.0  0.68130  0.26452  0.73447  1.0000
  C   C2536     1.0  0.98865  0.15821  0.88032  1.0000
  S   S336      1.0  0.93296  0.23960  0.73254  1.0000
  H   H2038     1.0  0.58157  0.32308  0.85236  1.0000
  C   C2537     1.0  0.94404  0.29578  0.73696  1.0000
  C   C2538     1.0  0.66707  0.30844  0.81650  1.0000
  C   C2539     1.0  0.74791  0.17547  0.73376  1.0000
  H   H2039     1.0  0.64692  0.26150  0.73491  1.0000
  H   H2040     1.0  0.64950  0.22134  0.73954  1.0000
  H   H2041     1.0  0.68002  0.28213  0.73293  1.0000
  H   H2042     1.0  0.98412  0.18905  0.89026  1.0000
  H   H2043     1.0  0.92652  0.29644  0.73831  1.0000
  C   C2540     1.0  0.68907  0.32077  0.79224  1.0000
  H   H2044     1.0  0.57882  0.32614  0.75476  1.0000
  H   H2045     1.0  0.98694  0.14897  0.89201  1.0000
  H   H2046     1.0  0.89999  0.99849  0.88441  1.0000
  H   H2047     1.0  0.99205  0.05942  0.91931  1.0000
  C   C2541     1.0  0.93307  0.99956  0.95388  1.0000
  H   H2048     1.0  0.96882  0.00415  0.93117  1.0000
  H   H2049     1.0  0.70348  0.31901  0.78394  1.0000
  H   H2050     1.0  0.63674  0.32604  0.82119  1.0000
  C   C2542     1.0  0.61012  0.32884  0.78555  1.0000
  C   C2543     1.0  0.65145  0.32506  0.81314  1.0000
  C   C2544     1.0  0.83399  0.16031  0.72895  1.0000
  C   C2545     1.0  0.99550  0.16382  0.81528  1.0000
  Fe  Fe169     1.0  0.60025  0.55773  0.08558  1.0000
  S   S337      1.0  0.62705  0.58012  0.07714  1.0000
  S   S338      1.0  0.56633  0.56483  0.09680  1.0000
  Fe  Fe170     1.0  0.62798  0.51724  0.07866  1.0000
  S   S339      1.0  0.65683  0.53619  0.06942  1.0000
  S   S340      1.0  0.63087  0.48050  0.08102  1.0000
  Fe  Fe171     1.0  0.64845  0.55559  0.09098  1.0000
  S   S341      1.0  0.67693  0.55919  0.10592  1.0000
  Fe  Fe172     1.0  0.63331  0.55886  0.05638  1.0000
  S   S342      1.0  0.63982  0.57299  0.03018  1.0000
  S   S343      1.0  0.62107  0.53488  0.10087  1.0000
  S   S344      1.0  0.60508  0.53844  0.06404  1.0000
  Fe  Fe173     1.0  0.56581  0.36109  0.03632  1.0000
  S   S345      1.0  0.54301  0.38975  0.03225  1.0000
  S   S346      1.0  0.52628  0.38289  0.07046  1.0000
  Fe  Fe174     1.0  0.51888  0.37002  0.04765  1.0000
  Fe  Fe175     1.0  0.55237  0.40042  0.05518  1.0000
  S   S347      1.0  0.55312  0.43664  0.05596  1.0000
  S   S348      1.0  0.57774  0.37339  0.05840  1.0000
  C   C2546     1.0  0.50301  0.64164  0.01765  1.0000
  C   C2547     1.0  0.55731  0.40424  0.10147  1.0000
  Fe  Fe176     1.0  0.71426  0.60348  0.18803  1.0000
  S   S349      1.0  0.70826  0.58509  0.21257  1.0000
  S   S350      1.0  0.68729  0.60273  0.17117  1.0000
  Fe  Fe177     1.0  0.75505  0.62425  0.19784  1.0000
  C   C2548     1.0  0.65271  0.58440  0.21108  1.0000
  S   S351      1.0  0.77935  0.65068  0.18818  1.0000
  Fe  Fe178     1.0  0.74382  0.57670  0.21047  1.0000
  H   H2051     1.0  0.93126  0.63294  0.19724  1.0000
  H   H2052     1.0  0.71299  0.36381  0.20781  1.0000
  C   C2549     1.0  0.55112  0.61312  0.12409  1.0000
  S   S352      1.0  0.74997  0.59404  0.18537  1.0000
  S   S353      1.0  0.71959  0.63468  0.19856  1.0000
  C   C2550     1.0  0.52423  0.50380  0.07961  1.0000
  H   H2053     1.0  0.52409  0.40116  0.11080  1.0000
  C   C2551     1.0  0.55378  0.34580  0.99522  1.0000
  H   H2054     1.0  0.62302  0.45361  0.11595  1.0000
  C   C2552     1.0  0.71157  0.49639  0.22684  1.0000
  C   C2553     1.0  0.66673  0.38714  0.20299  1.0000
  C   C2554     1.0  0.58857  0.61377  0.98550  1.0000
  C   C2555     1.0  0.54078  0.39654  0.11269  1.0000
  H   H2055     1.0  0.52917  0.33696  0.98098  1.0000
  H   H2056     1.0  0.66673  0.37851  0.19233  1.0000
  C   C2556     1.0  0.67431  0.41929  0.16658  1.0000
  H   H2057     1.0  0.57079  0.36470  0.13852  1.0000
  Fe  Fe179     1.0  0.55103  0.35459  0.07278  1.0000
  H   H2058     1.0  0.67659  0.41424  0.09646  1.0000
  H   H2059     1.0  0.71861  0.38689  0.15717  1.0000
  C   C2557     1.0  0.63785  0.45439  0.01902  1.0000
  C   C2558     1.0  0.52509  0.63349  0.14810  1.0000
  C   C2559     1.0  0.71107  0.45981  0.01353  1.0000
  C   C2560     1.0  0.66055  0.41554  0.10274  1.0000
  H   H2060     1.0  0.53832  0.36377  0.20648  1.0000
  C   C2561     1.0  0.67959  0.57204  0.12378  1.0000
  C   C2562     1.0  0.66268  0.58456  0.13123  1.0000
  C   C2563     1.0  0.66548  0.59397  0.14557  1.0000
  C   C2564     1.0  0.68523  0.59124  0.15261  1.0000
  C   C2565     1.0  0.70228  0.57910  0.14497  1.0000
  C   C2566     1.0  0.69940  0.56946  0.13074  1.0000
  H   H2061     1.0  0.64745  0.58692  0.12595  1.0000
  H   H2062     1.0  0.65221  0.60346  0.15127  1.0000
  H   H2063     1.0  0.71768  0.57707  0.15002  1.0000
  H   H2064     1.0  0.71267  0.56000  0.12504  1.0000
  C   C2567     1.0  0.60913  0.46796  0.07446  1.0000
  C   C2568     1.0  0.61015  0.44541  0.07359  1.0000
  C   C2569     1.0  0.59312  0.43547  0.06781  1.0000
  C   C2570     1.0  0.57502  0.44807  0.06302  1.0000
  C   C2571     1.0  0.57418  0.47054  0.06373  1.0000
  C   C2572     1.0  0.59102  0.48040  0.06961  1.0000
  H   H2065     1.0  0.62422  0.43568  0.07716  1.0000
  H   H2066     1.0  0.59405  0.41816  0.06689  1.0000
  H   H2067     1.0  0.56044  0.48038  0.05973  1.0000
  H   H2068     1.0  0.58985  0.49763  0.07047  1.0000
  C   C2573     1.0  0.62417  0.53976  0.01541  1.0000
  C   C2574     1.0  0.63260  0.56030  0.01346  1.0000
  H   H2069     1.0  0.62145  0.53156  0.02739  1.0000
  C   C2575     1.0  0.51848  0.61182  0.07102  1.0000
  C   C2576     1.0  0.54071  0.61252  0.06624  1.0000
  C   C2577     1.0  0.55557  0.59759  0.07358  1.0000
  C   C2578     1.0  0.54827  0.58230  0.08604  1.0000
  C   C2579     1.0  0.52607  0.58156  0.09073  1.0000
  C   C2580     1.0  0.51122  0.59602  0.08308  1.0000
  H   H2070     1.0  0.54651  0.62476  0.05699  1.0000
  H   H2071     1.0  0.57269  0.59834  0.06996  1.0000
  H   H2072     1.0  0.52035  0.56994  0.10047  1.0000
  C   C2581     1.0  0.56898  0.56020  0.02270  1.0000
  H   H2073     1.0  0.56114  0.60517  0.11477  1.0000
  H   H2074     1.0  0.76495  0.45287  0.01780  1.0000
  C   C2582     1.0  0.58873  0.35130  0.98060  1.0000
  H   H2075     1.0  0.50868  0.38236  0.99889  1.0000
  H   H2076     1.0  0.57855  0.52788  0.03226  1.0000
  C   C2583     1.0  0.57343  0.45112  0.99348  1.0000
  C   C2584     1.0  0.59062  0.60760  0.03229  1.0000
  H   H2077     1.0  0.60811  0.33431  0.07152  1.0000
  H   H2078     1.0  0.53017  0.43676  0.00954  1.0000
  H   H2079     1.0  0.53705  0.47441  0.01453  1.0000
  S   S354      1.0  0.75175  0.60598  0.22260  1.0000
  H   H2080     1.0  0.95751  0.60519  0.18655  1.0000
  H   H2081     1.0  0.59522  0.36175  0.08996  1.0000
  C   C2585     1.0  0.66134  0.56313  0.21034  1.0000
  S   S355      1.0  0.58701  0.35351  0.01355  1.0000
  C   C2586     1.0  0.62582  0.55927  0.16041  1.0000
  C   C2587     1.0  0.61542  0.56054  0.17591  1.0000
  C   C2588     1.0  0.62106  0.54543  0.18855  1.0000
  C   C2589     1.0  0.63705  0.52901  0.18568  1.0000
  C   C2590     1.0  0.64745  0.52753  0.17008  1.0000
  C   C2591     1.0  0.64195  0.54301  0.15752  1.0000
  P   P86       1.0  0.66889  0.50706  0.16650  1.0000
  C   C2592     1.0  0.69422  0.51653  0.17109  1.0000
  C   C2593     1.0  0.66239  0.48337  0.18020  1.0000
  C   C2594     1.0  0.67136  0.47992  0.19512  1.0000
  C   C2595     1.0  0.66508  0.46275  0.20637  1.0000
  C   C2596     1.0  0.64940  0.44917  0.20301  1.0000
  C   C2597     1.0  0.64031  0.45248  0.18830  1.0000
  C   C2598     1.0  0.64678  0.46945  0.17693  1.0000
  C   C2599     1.0  0.69589  0.53826  0.17388  1.0000
  C   C2600     1.0  0.71507  0.54511  0.17854  1.0000
  C   C2601     1.0  0.73285  0.53046  0.18022  1.0000
  C   C2602     1.0  0.73151  0.50888  0.17712  1.0000
  C   C2603     1.0  0.71228  0.50191  0.17253  1.0000
  C   C2604     1.0  0.67014  0.50157  0.14549  1.0000
  C   C2605     1.0  0.65118  0.49777  0.13860  1.0000
  C   C2606     1.0  0.65182  0.49482  0.12217  1.0000
  C   C2607     1.0  0.67119  0.49647  0.11231  1.0000
  C   C2608     1.0  0.69003  0.50074  0.11893  1.0000
  C   C2609     1.0  0.68956  0.50324  0.13543  1.0000
  H   H2082     1.0  0.62167  0.57112  0.15062  1.0000
  H   H2083     1.0  0.60315  0.57337  0.17812  1.0000
  H   H2084     1.0  0.61318  0.54663  0.20061  1.0000
  H   H2085     1.0  0.64144  0.51770  0.19567  1.0000
  H   H2086     1.0  0.65023  0.54273  0.14548  1.0000
  H   H2087     1.0  0.68293  0.49067  0.19832  1.0000
  H   H2088     1.0  0.67227  0.46014  0.21778  1.0000
  H   H2089     1.0  0.64416  0.43616  0.21184  1.0000
  H   H2090     1.0  0.62808  0.44197  0.18575  1.0000
  H   H2091     1.0  0.63924  0.47177  0.16579  1.0000
  H   H2092     1.0  0.68251  0.55008  0.17239  1.0000
  H   H2093     1.0  0.71617  0.56193  0.18069  1.0000
  H   H2094     1.0  0.74766  0.53587  0.18395  1.0000
  H   H2095     1.0  0.74540  0.49763  0.17836  1.0000
  H   H2096     1.0  0.71138  0.48511  0.17028  1.0000
  H   H2097     1.0  0.63566  0.49815  0.14567  1.0000
  H   H2098     1.0  0.63711  0.49228  0.11684  1.0000
  H   H2099     1.0  0.67136  0.49532  0.09942  1.0000
  H   H2100     1.0  0.70478  0.50314  0.11110  1.0000
  H   H2101     1.0  0.70420  0.50748  0.14003  1.0000
  C   C2610     1.0  0.68383  0.41031  0.21906  1.0000
  S   S356      1.0  0.50010  0.63109  0.06211  1.0000
  C   C2611     1.0  0.57393  0.43095  0.98709  1.0000
  C   C2612     1.0  0.62773  0.39868  0.11450  1.0000
  H   H2102     1.0  0.64214  0.58685  0.99617  1.0000
  H   H2103     1.0  0.59360  0.59020  0.03265  1.0000
  C   C2613     1.0  0.66328  0.48253  0.01107  1.0000
  H   H2104     1.0  0.50575  0.37486  0.19209  1.0000
  C   C2614     1.0  0.62105  0.35467  0.10558  1.0000
  C   C2615     1.0  0.61880  0.41917  0.11828  1.0000
  H   H2105     1.0  0.59141  0.62795  0.99141  1.0000
  H   H2106     1.0  0.67406  0.53454  0.22353  1.0000
  C   C2616     1.0  0.54651  0.62670  0.15047  1.0000
  C   C2617     1.0  0.53291  0.55665  0.04531  1.0000
  C   C2618     1.0  0.61937  0.52978  0.00184  1.0000
  C   C2619     1.0  0.63574  0.57090  0.99781  1.0000
  H   H2107     1.0  0.63812  0.37233  0.21461  1.0000
  H   H2108     1.0  0.62120  0.33712  0.18330  1.0000
  H   H2109     1.0  0.54211  0.40149  0.99584  1.0000
  H   H2110     1.0  0.50239  0.34414  0.12545  1.0000
  H   H2111     1.0  0.51538  0.64146  0.15750  1.0000
  C   C2620     1.0  0.51432  0.39005  0.98713  1.0000
  C   C2621     1.0  0.72641  0.41827  0.19561  1.0000
  C   C2622     1.0  0.53027  0.35188  0.20092  1.0000
  H   H2112     1.0  0.65989  0.45043  0.10211  1.0000
  H   H2113     1.0  0.63020  0.49423  0.04454  1.0000
  C   C2623     1.0  0.93611  0.62427  0.15163  1.0000
  C   C2624     1.0  0.59996  0.64177  0.04073  1.0000
  C   C2625     1.0  0.50139  0.34262  0.18586  1.0000
  C   C2626     1.0  0.54579  0.38250  0.12611  1.0000
  C   C2627     1.0  0.57985  0.45236  0.00895  1.0000
  C   C2628     1.0  0.62107  0.37586  0.15136  1.0000
  C   C2629     1.0  0.71459  0.37808  0.18303  1.0000
  C   C2630     1.0  0.60318  0.61926  0.04098  1.0000
  C   C2631     1.0  0.57399  0.59858  0.99281  1.0000
  C   C2632     1.0  0.69338  0.53021  0.01148  1.0000
  C   C2633     1.0  0.51426  0.52274  0.08533  1.0000
  H   H2114     1.0  0.59142  0.40357  0.09469  1.0000
  C   C2634     1.0  0.87063  0.63658  0.19978  1.0000
  C   C2635     1.0  0.52367  0.46629  0.02124  1.0000
  H   H2115     1.0  0.53293  0.37618  0.13460  1.0000
  C   C2636     1.0  0.57551  0.35029  0.99530  1.0000
  C   C2637     1.0  0.75983  0.41700  0.20855  1.0000
  H   H2116     1.0  0.60968  0.65070  0.04757  1.0000
  H   H2117     1.0  0.65006  0.59450  0.20000  1.0000
  C   C2638     1.0  0.69468  0.55259  0.01165  1.0000
  C   C2639     1.0  0.54828  0.53930  0.04416  1.0000
  H   H2118     1.0  0.65121  0.42994  0.14943  1.0000
  H   H2119     1.0  0.55307  0.62944  0.16158  1.0000
  H   H2120     1.0  0.77308  0.40768  0.21392  1.0000
  H   H2121     1.0  0.71283  0.52977  0.21625  1.0000
  H   H2122     1.0  0.54073  0.49908  0.08207  1.0000
  C   C2640     1.0  0.56733  0.37595  0.12825  1.0000
  C   C2641     1.0  0.57882  0.39773  0.10359  1.0000
  C   C2642     1.0  0.68334  0.40090  0.20448  1.0000
  C   C2643     1.0  0.74355  0.51776  0.22403  1.0000
  H   H2123     1.0  0.52081  0.47609  0.06670  1.0000
  H   H2124     1.0  0.77053  0.44781  0.21353  1.0000
  C   C2644     1.0  0.87498  0.64995  0.18540  1.0000
  C   C2645     1.0  0.57043  0.58055  0.98467  1.0000
  H   H2125     1.0  0.82905  0.64300  0.16777  1.0000
  H   H2126     1.0  0.52317  0.53277  0.09197  1.0000
  H   H2127     1.0  0.55343  0.41496  0.09096  1.0000
  C   C2646     1.0  0.52980  0.62001  0.12165  1.0000
  C   C2647     1.0  0.92133  0.64018  0.15759  1.0000
  H   H2128     1.0  0.69637  0.45145  0.01697  1.0000
  P   P87       1.0  0.70485  0.40473  0.18841  1.0000
  H   H2129     1.0  0.82104  0.62062  0.19352  1.0000
  C   C2648     1.0  0.54645  0.52219  0.99722  1.0000
  C   C2649     1.0  0.58436  0.65270  0.03156  1.0000
  H   H2130     1.0  0.61556  0.61075  0.04782  1.0000
  C   C2650     1.0  0.53380  0.61876  0.00797  1.0000
  H   H2131     1.0  0.55904  0.56882  0.98992  1.0000
  H   H2132     1.0  0.96067  0.59943  0.15741  1.0000
  S   S357      1.0  0.54111  0.34016  0.05078  1.0000
  C   C2651     1.0  0.57471  0.61838  0.02319  1.0000
  H   H2133     1.0  0.52969  0.45908  0.97923  1.0000
  C   C2652     1.0  0.74967  0.48051  0.00487  1.0000
  H   H2134     1.0  0.52384  0.58921  0.03681  1.0000
  C   C2653     1.0  0.69553  0.42043  0.17068  1.0000
  C   C2654     1.0  0.72896  0.33625  0.17512  1.0000
  H   H2135     1.0  0.58354  0.39679  0.99095  1.0000
  C   C2655     1.0  0.68187  0.44392  0.14260  1.0000
  C   C2656     1.0  0.70302  0.44508  0.14650  1.0000
  C   C2657     1.0  0.70992  0.43321  0.16035  1.0000
  H   H2136     1.0  0.64824  0.34249  0.11878  1.0000
  C   C2658     1.0  0.52815  0.53505  0.99314  1.0000
  C   C2659     1.0  0.51970  0.44516  0.01832  1.0000
  H   H2137     1.0  0.71100  0.45041  0.19160  1.0000
  H   H2138     1.0  0.66541  0.55701  0.19868  1.0000
  H   H2139     1.0  0.54682  0.33270  0.13410  1.0000
  H   H2140     1.0  0.61305  0.51379  0.00353  1.0000
  C   C2660     1.0  0.57192  0.64111  0.02269  1.0000
  C   C2661     1.0  0.94753  0.61509  0.17843  1.0000
  H   H2141     1.0  0.66003  0.50918  0.02635  1.0000
  C   C2662     1.0  0.61104  0.34139  0.14384  1.0000
  C   C2663     1.0  0.58400  0.38342  0.11692  1.0000
  C   C2664     1.0  0.72703  0.35317  0.16291  1.0000
  H   H2142     1.0  0.60253  0.42098  0.12410  1.0000
  H   H2143     1.0  0.62399  0.39285  0.14844  1.0000
  C   C2665     1.0  0.68705  0.52161  0.99784  1.0000
  H   H2144     1.0  0.69696  0.51965  0.02211  1.0000
  H   H2145     1.0  0.67660  0.45300  0.13180  1.0000
  H   H2146     1.0  0.71414  0.45505  0.13867  1.0000
  H   H2147     1.0  0.72656  0.43390  0.16290  1.0000
  C   C2666     1.0  0.51069  0.47673  0.03311  1.0000
  C   C2667     1.0  0.71674  0.36101  0.19522  1.0000
  C   C2668     1.0  0.72486  0.44095  0.19584  1.0000
  H   H2148     1.0  0.66289  0.40947  0.17408  1.0000
  C   C2669     1.0  0.51294  0.49093  0.07082  1.0000
  P   P88       1.0  0.61195  0.37501  0.11926  1.0000
  H   H2149     1.0  0.58345  0.56154  0.01443  1.0000
  H   H2150     1.0  0.65620  0.38144  0.10393  1.0000
  C   C2670     1.0  0.65126  0.43591  0.10606  1.0000
  H   H2151     1.0  0.66177  0.45352  0.99879  1.0000
  C   C2671     1.0  0.61495  0.36334  0.13963  1.0000
  C   C2672     1.0  0.66756  0.43093  0.15257  1.0000
  C   C2673     1.0  0.63943  0.34096  0.10844  1.0000
  C   C2674     1.0  0.51652  0.63012  0.13367  1.0000
  C   C2675     1.0  0.52178  0.62890  0.02053  1.0000
  H   H2152     1.0  0.67311  0.64301  0.21794  1.0000
  H   H2153     1.0  0.59441  0.39912  0.01823  1.0000
  C   C2676     1.0  0.74394  0.40635  0.20218  1.0000
  C   C2677     1.0  0.64887  0.39696  0.10696  1.0000
  P   P89       1.0  0.55866  0.60324  0.01180  1.0000
  H   H2154     1.0  0.51926  0.55555  0.05444  1.0000
  C   C2678     1.0  0.67174  0.33396  0.22075  1.0000
  C   C2679     1.0  0.56630  0.54108  0.03286  1.0000
  H   H2155     1.0  0.91091  0.64941  0.14946  1.0000
  H   H2156     1.0  0.53562  0.61418  0.98240  1.0000
  C   C2680     1.0  0.71990  0.37404  0.16682  1.0000
  Fe  Fe180     1.0  0.71620  0.61550  0.22266  1.0000
  C   C2681     1.0  0.53350  0.40093  0.98532  1.0000
  H   H2157     1.0  0.62804  0.37599  0.17618  1.0000
  H   H2158     1.0  0.73961  0.46900  0.20225  1.0000
  C   C2682     1.0  0.61704  0.33629  0.08174  1.0000
  C   C2683     1.0  0.55949  0.61646  0.13849  1.0000
  C   C2684     1.0  0.94928  0.61181  0.16203  1.0000
  C   C2685     1.0  0.93275  0.63097  0.18443  1.0000
  H   H2159     1.0  0.74534  0.38885  0.20273  1.0000
  H   H2160     1.0  0.54654  0.52470  0.05229  1.0000
  H   H2161     1.0  0.59104  0.43431  0.03021  1.0000
  C   C2686     1.0  0.63045  0.43771  0.11390  1.0000
  H   H2162     1.0  0.54891  0.51768  0.00979  1.0000
  H   H2163     1.0  0.63167  0.43901  0.01711  1.0000
  C   C2687     1.0  0.72388  0.34019  0.19128  1.0000
  C   C2688     1.0  0.74099  0.45155  0.20191  1.0000
  H   H2164     1.0  0.57909  0.46779  0.01408  1.0000
  C   C2689     1.0  0.50796  0.63454  0.98952  1.0000
  H   H2165     1.0  0.57607  0.61118  0.14030  1.0000
  C   C2690     1.0  0.83630  0.62839  0.19116  1.0000
  S   S358      1.0  0.75732  0.54217  0.21816  1.0000
  H   H2166     1.0  0.61556  0.45947  0.03989  1.0000
  C   C2691     1.0  0.58868  0.41370  0.01130  1.0000
  C   C2692     1.0  0.60982  0.35204  0.09221  1.0000
  C   C2693     1.0  0.53558  0.57583  0.03520  1.0000
  C   C2694     1.0  0.58690  0.43355  0.01800  1.0000
  H   H2167     1.0  0.52708  0.62723  0.03256  1.0000
  C   C2695     1.0  0.68277  0.53571  0.98418  1.0000
  H   H2168     1.0  0.60557  0.35465  0.98051  1.0000
  C   C2696     1.0  0.55367  0.57778  0.02377  1.0000
  C   C2697     1.0  0.65048  0.38354  0.21561  1.0000
  H   H2169     1.0  0.79609  0.65720  0.21942  1.0000
  C   C2698     1.0  0.84083  0.64107  0.17660  1.0000
  C   C2699     1.0  0.58243  0.41242  0.99584  1.0000
  H   H2170     1.0  0.50066  0.34464  0.00807  1.0000
  H   H2171     1.0  0.56799  0.46582  0.98667  1.0000
  C   C2700     1.0  0.91995  0.64400  0.17396  1.0000
  H   H2172     1.0  0.57637  0.50611  0.98821  1.0000
  H   H2173     1.0  0.51400  0.49306  0.03530  1.0000
  C   C2701     1.0  0.62336  0.36640  0.16708  1.0000
  H   H2174     1.0  0.93720  0.62149  0.13896  1.0000
  H   H2175     1.0  0.73071  0.43446  0.02542  1.0000
  C   C2702     1.0  0.65421  0.49383  0.02411  1.0000
  C   C2703     1.0  0.71072  0.48010  0.00444  1.0000
  H   H2176     1.0  0.51649  0.53982  0.00278  1.0000
  C   C2704     1.0  0.62884  0.46583  0.03187  1.0000
  C   C2705     1.0  0.63707  0.48547  0.03445  1.0000
  S   S359      1.0  0.55067  0.34064  0.09955  1.0000
  H   H2177     1.0  0.86334  0.66141  0.16228  1.0000
  H   H2178     1.0  0.84768  0.61615  0.21397  1.0000
  C   C2706     1.0  0.65495  0.46269  0.00865  1.0000
  C   C2707     1.0  0.56177  0.51542  0.98511  1.0000
  H   H2179     1.0  0.54344  0.34486  0.00643  1.0000
  H   H2180     1.0  0.88210  0.63447  0.20881  1.0000
  C   C2708     1.0  0.52674  0.62169  0.99239  1.0000
  C   C2709     1.0  0.73057  0.45008  0.01835  1.0000
  C   C2710     1.0  0.63126  0.56078  0.98419  1.0000
  H   H2181     1.0  0.69673  0.42041  0.22086  1.0000
  C   C2711     1.0  0.75841  0.43959  0.20835  1.0000
  C   C2712     1.0  0.86015  0.65172  0.17366  1.0000
  H   H2182     1.0  0.73111  0.35011  0.15039  1.0000
  C   C2713     1.0  0.61951  0.34448  0.17113  1.0000
  C   C2714     1.0  0.72174  0.51601  0.22185  1.0000
  H   H2183     1.0  0.51144  0.57976  0.99948  1.0000
  C   C2715     1.0  0.85124  0.62602  0.20270  1.0000
  H   H2184     1.0  0.49892  0.59275  0.12388  1.0000
  C   C2716     1.0  0.51192  0.35809  0.19283  1.0000
  H   H2185     1.0  0.69859  0.55923  0.02247  1.0000
  C   C2717     1.0  0.54569  0.34141  0.98074  1.0000
  H   H2186     1.0  0.64317  0.60990  0.22648  1.0000
  H   H2187     1.0  0.49929  0.41826  0.02476  1.0000
  C   C2718     1.0  0.74985  0.46043  0.01405  1.0000
  H   H2188     1.0  0.52370  0.61757  0.11030  1.0000
  H   H2189     1.0  0.56020  0.64997  0.01545  1.0000
  C   C2719     1.0  0.62304  0.54014  0.98614  1.0000
  C   C2720     1.0  0.66788  0.65285  0.22775  1.0000
  C   C2721     1.0  0.69040  0.56650  0.99803  1.0000
  C   C2722     1.0  0.50237  0.43468  0.02696  1.0000
  H   H2190     1.0  0.68121  0.33597  0.20921  1.0000
  H   H2191     1.0  0.69476  0.49526  0.22505  1.0000
  P   P90       1.0  0.68580  0.49260  0.99768  1.0000
  C   C2723     1.0  0.73021  0.49029  0.00002  1.0000
  H   H2192     1.0  0.76463  0.48852  0.00147  1.0000
  H   H2193     1.0  0.49584  0.44007  0.07329  1.0000
  C   C2724     1.0  0.66613  0.55046  0.22448  1.0000
  C   C2725     1.0  0.64882  0.59304  0.22599  1.0000
  C   C2726     1.0  0.61336  0.33200  0.15950  1.0000
  H   H2194     1.0  0.73039  0.50578  0.99278  1.0000
  H   H2195     1.0  0.69098  0.58388  0.99831  1.0000
  H   H2196     1.0  0.52220  0.65891  0.10651  1.0000
  H   H2197     1.0  0.60617  0.33150  0.13500  1.0000
  C   C2727     1.0  0.49619  0.64462  0.00214  1.0000
  C   C2728     1.0  0.50645  0.66255  0.10226  1.0000
  H   H2198     1.0  0.64821  0.49361  0.97939  1.0000
  C   C2729     1.0  0.68472  0.55804  0.98423  1.0000
  P   P91       1.0  0.89999  0.66361  0.18172  1.0000
  Fe  Fe181     1.0  0.74784  0.38024  0.26415  1.0000
  S   S360      1.0  0.77952  0.36112  0.25593  1.0000
  Fe  Fe182     1.0  0.71817  0.40326  0.28996  1.0000
  S   S361      1.0  0.69236  0.41157  0.27325  1.0000
  S   S362      1.0  0.71504  0.41765  0.31438  1.0000
  Fe  Fe183     1.0  0.69891  0.37773  0.26572  1.0000
  C   C2730     1.0  0.60367  0.35865  0.42343  1.0000
  Fe  Fe184     1.0  0.71911  0.42170  0.25436  1.0000
  S   S363      1.0  0.72304  0.36846  0.28397  1.0000
  S   S364      1.0  0.74502  0.41477  0.27142  1.0000
  Fe  Fe185     1.0  0.54185  0.64596  0.40467  1.0000
  S   S365      1.0  0.54488  0.61070  0.39996  1.0000
  Fe  Fe186     1.0  0.53601  0.63520  0.44205  1.0000
  S   S366      1.0  0.53868  0.59944  0.43985  1.0000
  H   H2199     1.0  0.55669  0.48329  0.40807  1.0000
  Fe  Fe187     1.0  0.56574  0.60632  0.42059  1.0000
  S   S367      1.0  0.59649  0.58512  0.42218  1.0000
  H   H2200     1.0  0.61589  0.36058  0.41327  1.0000
  S   S368      1.0  0.56488  0.64183  0.42412  1.0000
  Fe  Fe188     1.0  0.63085  0.42445  0.39329  1.0000
  S   S369      1.0  0.59936  0.44270  0.38863  1.0000
  S   S370      1.0  0.64420  0.40118  0.37461  1.0000
  Fe  Fe189     1.0  0.63208  0.44384  0.42573  1.0000
  S   S371      1.0  0.60138  0.46399  0.42269  1.0000
  S   S372      1.0  0.64928  0.44817  0.44794  1.0000
  Fe  Fe190     1.0  0.58899  0.43400  0.41479  1.0000
  S   S373      1.0  0.55573  0.42506  0.42610  1.0000
  Fe  Fe191     1.0  0.61436  0.47102  0.39691  1.0000
  S   S374      1.0  0.60932  0.50306  0.38203  1.0000
  S   S375      1.0  0.61917  0.41322  0.41917  1.0000
  S   S376      1.0  0.64648  0.45340  0.40022  1.0000
  C   C2731     1.0  0.56049  0.39262  0.47342  1.0000
  C   C2732     1.0  0.72292  0.47829  0.23421  1.0000
  H   H2201     1.0  0.69304  0.58576  0.33033  1.0000
  C   C2733     1.0  0.74667  0.65495  0.24770  1.0000
  H   H2202     1.0  0.61703  0.41732  0.46141  1.0000
  C   C2734     1.0  0.59997  0.56263  0.41068  1.0000
  C   C2735     1.0  0.58985  0.56228  0.39649  1.0000
  C   C2736     1.0  0.59301  0.54404  0.38759  1.0000
  C   C2737     1.0  0.60579  0.52590  0.39311  1.0000
  C   C2738     1.0  0.61575  0.52620  0.40733  1.0000
  C   C2739     1.0  0.61310  0.54465  0.41596  1.0000
  H   H2203     1.0  0.57973  0.57609  0.39233  1.0000
  H   H2204     1.0  0.58518  0.54382  0.37663  1.0000
  H   H2205     1.0  0.62566  0.51226  0.41155  1.0000
  H   H2206     1.0  0.62102  0.54491  0.42686  1.0000
  C   C2740     1.0  0.74466  0.48010  0.23650  1.0000
  C   C2741     1.0  0.55557  0.53225  0.42323  1.0000
  C   C2742     1.0  0.59175  0.64612  0.46601  1.0000
  C   C2743     1.0  0.58431  0.37130  0.42333  1.0000
  C   C2744     1.0  0.57204  0.35409  0.44978  1.0000
  C   C2745     1.0  0.56686  0.46461  0.35556  1.0000
  C   C2746     1.0  0.51954  0.40510  0.42016  1.0000
  C   C2747     1.0  0.53920  0.41359  0.41356  1.0000
  C   C2748     1.0  0.54545  0.41276  0.39710  1.0000
  C   C2749     1.0  0.53183  0.40419  0.38720  1.0000
  C   C2750     1.0  0.50349  0.52475  0.36908  1.0000
  H   H2207     1.0  0.63315  0.63907  0.34323  1.0000
  H   H2208     1.0  0.56067  0.41889  0.39192  1.0000
  H   H2209     1.0  0.53671  0.40367  0.37445  1.0000
  P   P92       1.0  0.55108  0.35106  0.46632  1.0000
  C   C2751     1.0  0.68751  0.59485  0.31962  1.0000
  H   H2210     1.0  0.80043  0.38564  0.29775  1.0000
  H   H2211     1.0  0.56533  0.54175  0.42962  1.0000
  S   S377      1.0  0.69816  0.62865  0.24501  1.0000
  C   C2752     1.0  0.69457  0.41328  0.33064  1.0000
  C   C2753     1.0  0.69411  0.42555  0.34398  1.0000
  C   C2754     1.0  0.67834  0.42266  0.35724  1.0000
  C   C2755     1.0  0.66309  0.40699  0.35749  1.0000
  C   C2756     1.0  0.66366  0.39456  0.34421  1.0000
  C   C2757     1.0  0.67915  0.39782  0.33078  1.0000
  H   H2212     1.0  0.70624  0.43716  0.34414  1.0000
  H   H2213     1.0  0.67835  0.43213  0.36744  1.0000
  H   H2214     1.0  0.65212  0.38222  0.34435  1.0000
  H   H2215     1.0  0.67936  0.38813  0.32068  1.0000
  C   C2758     1.0  0.54897  0.45292  0.36170  1.0000
  H   H2216     1.0  0.67884  0.46718  0.28091  1.0000
  H   H2217     1.0  0.66870  0.62818  0.28130  1.0000
  C   C2759     1.0  0.62483  0.61901  0.28067  1.0000
  H   H2218     1.0  0.63519  0.54886  0.46767  1.0000
  C   C2760     1.0  0.55057  0.49934  0.41100  1.0000
  H   H2219     1.0  0.52008  0.52385  0.36386  1.0000
  H   H2220     1.0  0.60757  0.62488  0.36570  1.0000
  H   H2221     1.0  0.68316  0.37263  0.38062  1.0000
  H   H2222     1.0  0.67262  0.66294  0.29557  1.0000
  H   H2223     1.0  0.55381  0.37918  0.43625  1.0000
  H   H2224     1.0  0.51661  0.47428  0.42702  1.0000
  H   H2225     1.0  0.54501  0.46340  0.44864  1.0000
  C   C2761     1.0  0.60583  0.62134  0.35344  1.0000
  C   C2762     1.0  0.61711  0.55940  0.28872  1.0000
  C   C2763     1.0  0.53579  0.48205  0.37825  1.0000
  C   C2764     1.0  0.65054  0.48367  0.24871  1.0000
  C   C2765     1.0  0.49807  0.42764  0.47706  1.0000
  H   H2226     1.0  0.54721  0.43698  0.35790  1.0000
  C   C2766     1.0  0.68838  0.34532  0.36637  1.0000
  H   H2227     1.0  0.56894  0.39482  0.46146  1.0000
  H   H2228     1.0  0.72828  0.59265  0.25795  1.0000
  C   C2767     1.0  0.55786  0.66056  0.35615  1.0000
  C   C2768     1.0  0.67735  0.34447  0.23381  1.0000
  H   H2229     1.0  0.65126  0.58767  0.25147  1.0000
  H   H2230     1.0  0.58147  0.38298  0.41311  1.0000
  H   H2231     1.0  0.51348  0.64154  0.34805  1.0000
  C   C2769     1.0  0.61748  0.62573  0.32467  1.0000
  C   C2770     1.0  0.52345  0.52915  0.40967  1.0000
  C   C2771     1.0  0.58877  0.47671  0.46615  1.0000
  H   H2232     1.0  0.55633  0.50939  0.37593  1.0000
  H   H2233     1.0  0.50843  0.53662  0.40572  1.0000
  C   C2772     1.0  0.69324  0.60662  0.29114  1.0000
  H   H2234     1.0  0.74230  0.37083  0.34975  1.0000
  H   H2235     1.0  0.65871  0.45229  0.26082  1.0000
  H   H2236     1.0  0.57279  0.59590  0.33226  1.0000
  P   P93       1.0  0.73925  0.33088  0.33358  1.0000
  C   C2773     1.0  0.78903  0.37538  0.30502  1.0000
  C   C2774     1.0  0.65299  0.50603  0.24793  1.0000
  C   C2775     1.0  0.50584  0.39658  0.41022  1.0000
  H   H2237     1.0  0.75371  0.46634  0.24201  1.0000
  H   H2238     1.0  0.55623  0.64437  0.36205  1.0000
  H   H2239     1.0  0.52024  0.45174  0.37783  1.0000
  C   C2776     1.0  0.66483  0.34243  0.24866  1.0000
  H   H2240     1.0  0.61174  0.61991  0.45648  1.0000
  S   S378      1.0  0.67066  0.35622  0.26521  1.0000
  C   C2777     1.0  0.63951  0.53669  0.45931  1.0000
  H   H2241     1.0  0.54241  0.64103  0.26515  1.0000
  H   H2242     1.0  0.62375  0.48923  0.44798  1.0000
  C   C2778     1.0  0.69402  0.36458  0.37182  1.0000
  C   C2779     1.0  0.66786  0.40626  0.23180  1.0000
  H   H2243     1.0  0.57836  0.50487  0.42318  1.0000
  C   C2780     1.0  0.71429  0.48031  0.30222  1.0000
  C   C2781     1.0  0.72193  0.50018  0.29547  1.0000
  C   C2782     1.0  0.71322  0.51946  0.30148  1.0000
  C   C2783     1.0  0.69696  0.51887  0.31435  1.0000
  C   C2784     1.0  0.68927  0.49892  0.32126  1.0000
  C   C2785     1.0  0.69809  0.47966  0.31505  1.0000
  P   P94       1.0  0.66918  0.49737  0.33851  1.0000
  C   C2786     1.0  0.68223  0.49010  0.35685  1.0000
  C   C2787     1.0  0.65421  0.52292  0.34124  1.0000
  C   C2788     1.0  0.66452  0.54002  0.34660  1.0000
  C   C2789     1.0  0.65259  0.55879  0.35093  1.0000
  C   C2790     1.0  0.63026  0.56055  0.35011  1.0000
  C   C2791     1.0  0.61987  0.54368  0.34475  1.0000
  C   C2792     1.0  0.63176  0.52495  0.34028  1.0000
  C   C2793     1.0  0.67187  0.49551  0.37176  1.0000
  C   C2794     1.0  0.68200  0.49047  0.38596  1.0000
  C   C2795     1.0  0.70233  0.47954  0.38548  1.0000
  C   C2796     1.0  0.71274  0.47403  0.37072  1.0000
  C   C2797     1.0  0.70284  0.47944  0.35644  1.0000
  C   C2798     1.0  0.65077  0.47706  0.33558  1.0000
  C   C2799     1.0  0.64573  0.47418  0.31991  1.0000
  C   C2800     1.0  0.63239  0.45776  0.31744  1.0000
  C   C2801     1.0  0.62368  0.44437  0.33059  1.0000
  C   C2802     1.0  0.62799  0.44766  0.34622  1.0000
  C   C2803     1.0  0.64144  0.46396  0.34876  1.0000
  H   H2244     1.0  0.72105  0.46527  0.29765  1.0000
  H   H2245     1.0  0.73462  0.50055  0.28559  1.0000
  H   H2246     1.0  0.71921  0.53484  0.29619  1.0000
  H   H2247     1.0  0.69056  0.53394  0.31885  1.0000
  H   H2248     1.0  0.69265  0.46400  0.32025  1.0000
  H   H2249     1.0  0.68162  0.53839  0.34816  1.0000
  H   H2250     1.0  0.66047  0.57158  0.35562  1.0000
  H   H2251     1.0  0.62090  0.57464  0.35418  1.0000
  H   H2252     1.0  0.60244  0.54470  0.34474  1.0000
  H   H2253     1.0  0.62317  0.51174  0.33689  1.0000
  H   H2254     1.0  0.65584  0.50347  0.37251  1.0000
  H   H2255     1.0  0.67378  0.49459  0.39740  1.0000
  H   H2256     1.0  0.70991  0.47516  0.39656  1.0000
  H   H2257     1.0  0.72846  0.46543  0.37035  1.0000
  H   H2258     1.0  0.71132  0.47510  0.34519  1.0000
  H   H2259     1.0  0.65241  0.48433  0.30957  1.0000
  H   H2260     1.0  0.62909  0.45515  0.30531  1.0000
  H   H2261     1.0  0.61378  0.43127  0.32871  1.0000
  H   H2262     1.0  0.62141  0.43710  0.35637  1.0000
  H   H2263     1.0  0.64476  0.46593  0.36099  1.0000
  C   C2804     1.0  0.67385  0.50043  0.27107  1.0000
  C   C2805     1.0  0.75275  0.36960  0.31731  1.0000
  C   C2806     1.0  0.50992  0.65038  0.27439  1.0000
  C   C2807     1.0  0.67780  0.64953  0.24215  1.0000
  H   H2264     1.0  0.57901  0.45771  0.34705  1.0000
  C   C2808     1.0  0.50599  0.35238  0.46868  1.0000
  C   C2809     1.0  0.58884  0.60914  0.35042  1.0000
  C   C2810     1.0  0.56929  0.48500  0.36066  1.0000
  H   H2265     1.0  0.65592  0.56421  0.31379  1.0000
  C   C2811     1.0  0.56291  0.51144  0.41956  1.0000
  C   C2812     1.0  0.67148  0.47809  0.27179  1.0000
  C   C2813     1.0  0.63999  0.43856  0.46802  1.0000
  C   C2814     1.0  0.54971  0.49509  0.45599  1.0000
  H   H2266     1.0  0.66769  0.55293  0.44849  1.0000
  H   H2267     1.0  0.81739  0.33756  0.24247  1.0000
  C   C2815     1.0  0.53236  0.65168  0.27267  1.0000
  C   C2816     1.0  0.65332  0.58031  0.24017  1.0000
  H   H2268     1.0  0.71551  0.58521  0.30406  1.0000
  H   H2269     1.0  0.58345  0.49384  0.35623  1.0000
  C   C2817     1.0  0.72153  0.34440  0.34837  1.0000
  C   C2818     1.0  0.58867  0.55745  0.46368  1.0000
  P   P95       1.0  0.60331  0.51559  0.47381  1.0000
  C   C2819     1.0  0.56867  0.36917  0.43649  1.0000
  C   C2820     1.0  0.58623  0.60500  0.33460  1.0000
  H   H2270     1.0  0.60389  0.46930  0.46998  1.0000
  C   C2821     1.0  0.59195  0.54250  0.47707  1.0000
  H   H2271     1.0  0.71754  0.38882  0.36979  1.0000
  H   H2272     1.0  0.69102  0.35459  0.23233  1.0000
  H   H2273     1.0  0.74326  0.63817  0.24712  1.0000
  C   C2822     1.0  0.53085  0.50824  0.40579  1.0000
  C   C2823     1.0  0.66794  0.60731  0.32067  1.0000
  C   C2824     1.0  0.72726  0.36357  0.35414  1.0000
  C   C2825     1.0  0.65179  0.50537  0.43782  1.0000
  C   C2826     1.0  0.70265  0.57070  0.25892  1.0000
  C   C2827     1.0  0.60666  0.63961  0.25932  1.0000
  C   C2828     1.0  0.79551  0.35419  0.31054  1.0000
  H   H2274     1.0  0.65860  0.60765  0.33227  1.0000
  H   H2275     1.0  0.69025  0.58375  0.25848  1.0000
  P   P96       1.0  0.66941  0.54330  0.25780  1.0000
  C   C2829     1.0  0.57482  0.46401  0.45950  1.0000
  C   C2830     1.0  0.51184  0.39645  0.39363  1.0000
  C   C2831     1.0  0.53355  0.46150  0.37305  1.0000
  H   H2276     1.0  0.77586  0.33286  0.28661  1.0000
  H   H2277     1.0  0.59970  0.56068  0.28853  1.0000
  H   H2278     1.0  0.53062  0.55740  0.42091  1.0000
  H   H2279     1.0  0.67938  0.55453  0.28969  1.0000
  H   H2280     1.0  0.51477  0.40535  0.43292  1.0000
  Fe  Fe192     1.0  0.51749  0.60671  0.41956  1.0000
  C   C2832     1.0  0.76768  0.38311  0.30849  1.0000
  H   H2281     1.0  0.69685  0.34519  0.32206  1.0000
  C   C2833     1.0  0.63029  0.55381  0.27502  1.0000
  H   H2282     1.0  0.67869  0.52496  0.42953  1.0000
  P   P97       1.0  0.63609  0.63637  0.30816  1.0000
  C   C2834     1.0  0.58216  0.57900  0.46587  1.0000
  C   C2835     1.0  0.66424  0.52329  0.43782  1.0000
  H   H2283     1.0  0.58029  0.59066  0.45549  1.0000
  C   C2836     1.0  0.64254  0.66371  0.31101  1.0000
  H   H2284     1.0  0.81190  0.34798  0.30739  1.0000
  S   S379      1.0  0.72364  0.38812  0.24550  1.0000
  H   H2285     1.0  0.73611  0.37562  0.31949  1.0000
  H   H2286     1.0  0.76252  0.39947  0.30412  1.0000
  S   S380      1.0  0.51262  0.64220  0.42293  1.0000
  C   C2837     1.0  0.61612  0.62008  0.26579  1.0000
  C   C2838     1.0  0.49694  0.51163  0.38316  1.0000
  C   C2839     1.0  0.75914  0.34839  0.32305  1.0000
  C   C2840     1.0  0.62675  0.51878  0.45928  1.0000
  H   H2287     1.0  0.50277  0.33842  0.42475  1.0000
  C   C2841     1.0  0.50504  0.65710  0.34541  1.0000
  C   C2842     1.0  0.62412  0.42334  0.47129  1.0000
  H   H2288     1.0  0.65664  0.49296  0.42970  1.0000
  C   C2843     1.0  0.73540  0.53782  0.25899  1.0000
  C   C2844     1.0  0.74057  0.55940  0.25880  1.0000
  C   C2845     1.0  0.72420  0.57583  0.25874  1.0000
  C   C2846     1.0  0.66005  0.46968  0.26048  1.0000
  C   C2847     1.0  0.69729  0.54906  0.25892  1.0000
  C   C2848     1.0  0.71391  0.53265  0.25875  1.0000
  C   C2849     1.0  0.71342  0.37370  0.36571  1.0000
  C   C2850     1.0  0.65285  0.55214  0.27516  1.0000
  H   H2289     1.0  0.51211  0.40063  0.46449  1.0000
  H   H2290     1.0  0.57750  0.60323  0.36035  1.0000
  C   C2851     1.0  0.55385  0.49371  0.37193  1.0000
  S   S381      1.0  0.70958  0.45352  0.23930  1.0000
  C   C2852     1.0  0.60540  0.65789  0.26792  1.0000
  C   C2853     1.0  0.62638  0.56316  0.30268  1.0000
  C   C2854     1.0  0.64882  0.56143  0.30293  1.0000
  C   C2855     1.0  0.66205  0.55596  0.28922  1.0000
  C   C2856     1.0  0.66547  0.51451  0.25870  1.0000
  C   C2857     1.0  0.60703  0.62868  0.46701  1.0000
  H   H2291     1.0  0.62290  0.55058  0.26435  1.0000
  H   H2292     1.0  0.61695  0.60593  0.25912  1.0000
  C   C2858     1.0  0.63302  0.50322  0.44838  1.0000
  C   C2859     1.0  0.70017  0.59452  0.30485  1.0000
  H   H2293     1.0  0.74824  0.52520  0.25836  1.0000
  H   H2294     1.0  0.75735  0.56342  0.25801  1.0000
  C   C2860     1.0  0.53588  0.54105  0.41834  1.0000
  H   H2295     1.0  0.66873  0.41305  0.24316  1.0000
  H   H2296     1.0  0.71068  0.51595  0.25777  1.0000
  H   H2297     1.0  0.68258  0.50669  0.28000  1.0000
  H   H2298     1.0  0.61618  0.56744  0.31330  1.0000
  H   H2299     1.0  0.64502  0.51652  0.23897  1.0000
  H   H2300     1.0  0.76832  0.64762  0.26627  1.0000
  C   C2861     1.0  0.66163  0.55876  0.23957  1.0000
  C   C2862     1.0  0.55541  0.47321  0.45427  1.0000
  H   H2301     1.0  0.59188  0.55266  0.45149  1.0000
  H   H2302     1.0  0.53472  0.50225  0.45177  1.0000
  H   H2303     1.0  0.59779  0.61035  0.30959  1.0000
  H   H2304     1.0  0.70320  0.60698  0.27973  1.0000
  H   H2305     1.0  0.60053  0.64080  0.24755  1.0000
  H   H2306     1.0  0.56850  0.64977  0.33270  1.0000
  C   C2863     1.0  0.58383  0.49900  0.46698  1.0000
  P   P98       1.0  0.51629  0.49341  0.39318  1.0000
  C   C2864     1.0  0.67363  0.61885  0.29210  1.0000
  H   H2307     1.0  0.63259  0.60395  0.28533  1.0000
  C   C2865     1.0  0.60046  0.61327  0.32176  1.0000
  C   C2866     1.0  0.60732  0.34374  0.43668  1.0000
  H   H2308     1.0  0.55954  0.52512  0.46279  1.0000
  C   C2867     1.0  0.62393  0.63746  0.28928  1.0000
  H   H2309     1.0  0.63929  0.38913  0.24020  1.0000
  C   C2868     1.0  0.52514  0.34952  0.45857  1.0000
  C   C2869     1.0  0.66081  0.61939  0.30688  1.0000
  C   C2870     1.0  0.56393  0.50804  0.46219  1.0000
  S   S382      1.0  0.53131  0.65091  0.46599  1.0000
  C   C2871     1.0  0.65806  0.53899  0.44853  1.0000
  C   C2872     1.0  0.59154  0.34137  0.44980  1.0000
  C   C2873     1.0  0.61383  0.65684  0.28288  1.0000
  C   C2874     1.0  0.62020  0.62946  0.34066  1.0000
  H   H2310     1.0  0.57958  0.44724  0.45768  1.0000
  C   C2875     1.0  0.50469  0.46659  0.42129  1.0000
  C   C2876     1.0  0.79507  0.33778  0.26390  1.0000
  H   H2311     1.0  0.64139  0.47712  0.24012  1.0000
  C   C2877     1.0  0.78060  0.34065  0.31941  1.0000
  H   H2312     1.0  0.50798  0.65475  0.31990  1.0000
  H   H2313     1.0  0.50251  0.63868  0.26819  1.0000
  C   C2878     1.0  0.70407  0.33236  0.31503  1.0000
  H   H2314     1.0  0.77178  0.50066  0.23301  1.0000
  H   H2315     1.0  0.56052  0.33526  0.29125  1.0000
  C   C2879     1.0  0.76071  0.66030  0.25855  1.0000
  C   C2880     1.0  0.75491  0.49959  0.23129  1.0000
  C   C2881     1.0  0.67090  0.66253  0.25474  1.0000
  H   H2316     1.0  0.67888  0.66049  0.26572  1.0000
  C   C2882     1.0  0.50161  0.47211  0.40495  1.0000
  C   C2883     1.0  0.65115  0.39295  0.23007  1.0000
  C   C2884     1.0  0.52383  0.34396  0.44278  1.0000
  H   H2317     1.0  0.50267  0.53822  0.46828  1.0000
  H   H2318     1.0  0.53820  0.34086  0.43477  1.0000
  C   C2885     1.0  0.50372  0.34216  0.43708  1.0000
  C   C2886     1.0  0.49744  0.41024  0.46769  1.0000
  H   H2319     1.0  0.58443  0.65079  0.45484  1.0000
  H   H2320     1.0  0.67319  0.33848  0.37101  1.0000
  H   H2321     1.0  0.67752  0.33413  0.30012  1.0000
  C   C2887     1.0  0.56479  0.66368  0.33951  1.0000
  C   C2888     1.0  0.70217  0.33515  0.35479  1.0000
  H   H2322     1.0  0.71070  0.33133  0.25302  1.0000
  H   H2323     1.0  0.62240  0.33403  0.43677  1.0000
  C   C2889     1.0  0.63276  0.58121  0.51123  1.0000
  Fe  Fe193     1.0  0.71634  0.41772  0.71720  1.0000
  S   S383      1.0  0.73393  0.41132  0.69290  1.0000
  H   H2324     1.0  0.65827  0.35151  0.71567  1.0000
  C   C2890     1.0  0.50856  0.34684  0.53097  1.0000
  S   S384      1.0  0.71810  0.36062  0.69893  1.0000
  H   H2325     1.0  0.62956  0.47489  0.53327  1.0000
  Fe  Fe194     1.0  0.74607  0.37865  0.70503  1.0000
  S   S385      1.0  0.78142  0.36433  0.70481  1.0000
  Fe  Fe195     1.0  0.70497  0.39330  0.68832  1.0000
  S   S386      1.0  0.68205  0.39934  0.66809  1.0000
  H   H2326     1.0  0.51569  0.50653  0.61963  1.0000
  S   S387      1.0  0.68692  0.40118  0.71198  1.0000
  C   C2891     1.0  0.58376  0.37205  0.54476  1.0000
  Fe  Fe196     1.0  0.54815  0.58601  0.59462  1.0000
  S   S388      1.0  0.55747  0.55242  0.60566  1.0000
  C   C2892     1.0  0.58636  0.65648  0.71029  1.0000
  S   S389      1.0  0.52125  0.58900  0.57864  1.0000
  S   S390      1.0  0.53300  0.61080  0.61071  1.0000
  Fe  Fe197     1.0  0.62503  0.42179  0.54492  1.0000
  S   S391      1.0  0.59740  0.44352  0.55431  1.0000
  S   S392      1.0  0.62020  0.41053  0.52026  1.0000
  Fe  Fe198     1.0  0.64508  0.41768  0.57819  1.0000
  S   S393      1.0  0.61820  0.43891  0.58929  1.0000
  S   S394      1.0  0.67422  0.40428  0.59171  1.0000
  Fe  Fe199     1.0  0.59614  0.42031  0.57659  1.0000
  S   S395      1.0  0.56482  0.40730  0.58867  1.0000
  Fe  Fe200     1.0  0.62215  0.45980  0.56581  1.0000
  S   S396      1.0  0.62395  0.49619  0.56247  1.0000
  S   S397      1.0  0.62264  0.39752  0.56702  1.0000
  S   S398      1.0  0.65026  0.43973  0.55500  1.0000
  C   C2893     1.0  0.62747  0.42247  0.50038  1.0000
  C   C2894     1.0  0.79471  0.34846  0.65362  1.0000
  C   C2895     1.0  0.64287  0.43813  0.49713  1.0000
  H   H2327     1.0  0.59491  0.38488  0.54379  1.0000
  H   H2328     1.0  0.55842  0.46713  0.49637  1.0000
  C   C2896     1.0  0.57662  0.53699  0.59399  1.0000
  C   C2897     1.0  0.57843  0.51441  0.59741  1.0000
  C   C2898     1.0  0.59301  0.50162  0.58791  1.0000
  C   C2899     1.0  0.60642  0.51154  0.57530  1.0000
  C   C2900     1.0  0.60552  0.53420  0.57249  1.0000
  C   C2901     1.0  0.59032  0.54691  0.58156  1.0000
  H   H2329     1.0  0.56835  0.50682  0.60730  1.0000
  H   H2330     1.0  0.59382  0.48416  0.59034  1.0000
  H   H2331     1.0  0.61656  0.54190  0.56322  1.0000
  H   H2332     1.0  0.58944  0.56436  0.57911  1.0000
  C   C2902     1.0  0.57575  0.36296  0.55996  1.0000
  C   C2903     1.0  0.51116  0.40079  0.55601  1.0000
  H   H2333     1.0  0.53735  0.65160  0.52428  1.0000
  C   C2904     1.0  0.52468  0.39610  0.58249  1.0000
  C   C2905     1.0  0.54433  0.40466  0.57597  1.0000
  C   C2906     1.0  0.54740  0.41092  0.55941  1.0000
  C   C2907     1.0  0.53090  0.40897  0.54949  1.0000
  C   C2908     1.0  0.56097  0.34673  0.56127  1.0000
  H   H2334     1.0  0.52224  0.39109  0.59528  1.0000
  H   H2335     1.0  0.56259  0.41700  0.55417  1.0000
  H   H2336     1.0  0.53348  0.41382  0.53671  1.0000
  H   H2337     1.0  0.67177  0.66141  0.71702  1.0000
  C   C2909     1.0  0.62966  0.63191  0.66768  1.0000
  C   C2910     1.0  0.68061  0.40079  0.64676  1.0000
  C   C2911     1.0  0.69884  0.39820  0.63575  1.0000
  C   C2912     1.0  0.69662  0.39938  0.61900  1.0000
  C   C2913     1.0  0.67623  0.40323  0.61298  1.0000
  C   C2914     1.0  0.65805  0.40587  0.62400  1.0000
  C   C2915     1.0  0.66023  0.40465  0.64074  1.0000
  H   H2338     1.0  0.71464  0.39531  0.64012  1.0000
  H   H2339     1.0  0.71084  0.39759  0.61062  1.0000
  H   H2340     1.0  0.64228  0.40856  0.61960  1.0000
  H   H2341     1.0  0.64598  0.40659  0.64910  1.0000
  H   H2342     1.0  0.52618  0.46975  0.48116  1.0000
  C   C2916     1.0  0.50168  0.45937  0.51913  1.0000
  C   C2917     1.0  0.69927  0.34217  0.60986  1.0000
  H   H2343     1.0  0.55079  0.41919  0.50743  1.0000
  C   C2918     1.0  0.70655  0.33266  0.62437  1.0000
  C   C2919     1.0  0.50813  0.39407  0.57251  1.0000
  H   H2344     1.0  0.53118  0.38625  0.51674  1.0000
  H   H2345     1.0  0.63978  0.64733  0.53926  1.0000
  C   C2920     1.0  0.62364  0.63191  0.71826  1.0000
  H   H2346     1.0  0.51355  0.35923  0.53783  1.0000
  H   H2347     1.0  0.53184  0.35652  0.49910  1.0000
  Fe  Fe201     1.0  0.54019  0.61428  0.56319  1.0000
  C   C2921     1.0  0.61607  0.55164  0.52809  1.0000
  H   H2348     1.0  0.62753  0.60866  0.48212  1.0000
  H   H2349     1.0  0.59470  0.55684  0.62466  1.0000
  C   C2922     1.0  0.73399  0.35752  0.60244  1.0000
  C   C2923     1.0  0.53932  0.38800  0.50462  1.0000
  H   H2350     1.0  0.59072  0.47984  0.52909  1.0000
  H   H2351     1.0  0.54619  0.52576  0.49887  1.0000
  H   H2352     1.0  0.54586  0.64585  0.63401  1.0000
  H   H2353     1.0  0.51819  0.45469  0.54078  1.0000
  C   C2924     1.0  0.59634  0.49492  0.50477  1.0000
  C   C2925     1.0  0.60953  0.64005  0.53063  1.0000
  Fe  Fe202     1.0  0.55095  0.63508  0.59371  1.0000
  C   C2926     1.0  0.59489  0.65156  0.49398  1.0000
  H   H2354     1.0  0.58075  0.36881  0.57076  1.0000
  C   C2927     1.0  0.79564  0.33864  0.70167  1.0000
  S   S399      1.0  0.52425  0.64178  0.57688  1.0000
  C   C2928     1.0  0.66042  0.65507  0.68365  1.0000
  H   H2355     1.0  0.60642  0.40284  0.48974  1.0000
  C   C2929     1.0  0.75089  0.36057  0.66016  1.0000
  H   H2356     1.0  0.49610  0.58906  0.53280  1.0000
  H   H2357     1.0  0.55487  0.34007  0.57320  1.0000
  C   C2930     1.0  0.52782  0.54720  0.54933  1.0000
  C   C2931     1.0  0.67920  0.65122  0.49655  1.0000
  C   C2932     1.0  0.61809  0.41520  0.48737  1.0000
  H   H2358     1.0  0.57553  0.51728  0.54888  1.0000
  H   H2359     1.0  0.55503  0.49582  0.57065  1.0000
  H   H2360     1.0  0.51391  0.54381  0.59574  1.0000
  H   H2361     1.0  0.67512  0.62248  0.70883  1.0000
  C   C2933     1.0  0.50302  0.56231  0.50083  1.0000
  C   C2934     1.0  0.49783  0.63654  0.66581  1.0000
  C   C2935     1.0  0.60210  0.56662  0.53593  1.0000
  H   H2362     1.0  0.53880  0.48749  0.63913  1.0000
  C   C2936     1.0  0.65221  0.33903  0.72464  1.0000
  H   H2363     1.0  0.60009  0.65729  0.68576  1.0000
  C   C2937     1.0  0.53640  0.64146  0.51459  1.0000
  H   H2364     1.0  0.60465  0.61119  0.67891  1.0000
  C   C2938     1.0  0.51593  0.53495  0.56166  1.0000
  H   H2365     1.0  0.59258  0.59981  0.53811  1.0000
  C   C2939     1.0  0.53051  0.53293  0.50290  1.0000
  H   H2366     1.0  0.59037  0.56114  0.54569  1.0000
  H   H2367     1.0  0.52066  0.56202  0.54365  1.0000
  C   C2940     1.0  0.53651  0.60608  0.50493  1.0000
  H   H2368     1.0  0.69853  0.61323  0.52454  1.0000
  H   H2369     1.0  0.65714  0.48738  0.51166  1.0000
  C   C2941     1.0  0.61190  0.50224  0.49245  1.0000
  H   H2370     1.0  0.56405  0.45696  0.63126  1.0000
  C   C2942     1.0  0.60269  0.48529  0.51951  1.0000
  H   H2371     1.0  0.74448  0.36739  0.59401  1.0000
  C   C2943     1.0  0.52310  0.55279  0.49544  1.0000
  C   C2944     1.0  0.60316  0.54168  0.62854  1.0000
  H   H2372     1.0  0.50360  0.63721  0.63985  1.0000
  C   C2945     1.0  0.61109  0.62013  0.66787  1.0000
  C   C2946     1.0  0.54914  0.54071  0.54454  1.0000
  C   C2947     1.0  0.62459  0.48262  0.52194  1.0000
  H   H2373     1.0  0.54175  0.46326  0.58403  1.0000
  Fe  Fe203     1.0  0.70202  0.37014  0.72266  1.0000
  H   H2374     1.0  0.80076  0.37634  0.66567  1.0000
  H   H2375     1.0  0.63454  0.55251  0.61944  1.0000
  C   C2948     1.0  0.72222  0.66311  0.71547  1.0000
  H   H2376     1.0  0.69482  0.58844  0.71760  1.0000
  C   C2949     1.0  0.53359  0.61560  0.48919  1.0000
  C   C2950     1.0  0.54253  0.46545  0.50277  1.0000
  H   H2377     1.0  0.82187  0.34536  0.71509  1.0000
  C   C2951     1.0  0.60234  0.65124  0.69813  1.0000
  C   C2952     1.0  0.60351  0.58883  0.53157  1.0000
  H   H2378     1.0  0.65048  0.44356  0.50699  1.0000
  H   H2379     1.0  0.64633  0.50458  0.48568  1.0000
  C   C2953     1.0  0.63726  0.64390  0.65330  1.0000
  C   C2954     1.0  0.53826  0.61885  0.51766  1.0000
  H   H2380     1.0  0.55822  0.55046  0.53507  1.0000
  C   C2955     1.0  0.58785  0.54930  0.49271  1.0000
  H   H2381     1.0  0.49944  0.54040  0.56516  1.0000
  H   H2382     1.0  0.70701  0.36258  0.58793  1.0000
  P   P99       1.0  0.50982  0.50057  0.58562  1.0000
  C   C2956     1.0  0.50366  0.46380  0.50223  1.0000
  C   C2957     1.0  0.62235  0.64877  0.54108  1.0000
  H   H2383     1.0  0.64218  0.58840  0.67669  1.0000
  C   C2958     1.0  0.67217  0.60779  0.70357  1.0000
  C   C2959     1.0  0.63130  0.55894  0.51566  1.0000
  H   H2384     1.0  0.61529  0.53441  0.53183  1.0000
  H   H2385     1.0  0.50142  0.45387  0.59318  1.0000
  H   H2386     1.0  0.58360  0.37202  0.51908  1.0000
  H   H2387     1.0  0.68876  0.63513  0.67606  1.0000
  C   C2960     1.0  0.55420  0.33944  0.54730  1.0000
  C   C2961     1.0  0.52427  0.46678  0.49416  1.0000
  C   C2962     1.0  0.53291  0.63815  0.48592  1.0000
  C   C2963     1.0  0.63390  0.49950  0.49501  1.0000
  H   H2388     1.0  0.76220  0.38753  0.67078  1.0000
  H   H2389     1.0  0.64223  0.54731  0.50966  1.0000
  C   C2964     1.0  0.68342  0.58847  0.70856  1.0000
  C   C2965     1.0  0.64017  0.48977  0.50974  1.0000
  C   C2966     1.0  0.67985  0.56926  0.70205  1.0000
  C   C2967     1.0  0.55876  0.52205  0.55224  1.0000
  H   H2390     1.0  0.57826  0.57624  0.50685  1.0000
  S   S400      1.0  0.56834  0.60962  0.57861  1.0000
  C   C2968     1.0  0.78861  0.36699  0.66155  1.0000
  H   H2391     1.0  0.73408  0.36567  0.66278  1.0000
  H   H2392     1.0  0.59920  0.63307  0.62904  1.0000
  C   C2969     1.0  0.49752  0.53173  0.52090  1.0000
  H   H2393     1.0  0.57436  0.60260  0.48301  1.0000
  C   C2970     1.0  0.77893  0.33592  0.64899  1.0000
  C   C2971     1.0  0.52545  0.51622  0.56959  1.0000
  C   C2972     1.0  0.54700  0.50988  0.56472  1.0000
  H   H2394     1.0  0.52355  0.50717  0.52160  1.0000
  C   C2973     1.0  0.58698  0.64214  0.53364  1.0000
  C   C2974     1.0  0.68981  0.45438  0.61158  1.0000
  C   C2975     1.0  0.68303  0.46075  0.59630  1.0000
  C   C2976     1.0  0.66316  0.47219  0.59487  1.0000
  C   C2977     1.0  0.64996  0.47708  0.60871  1.0000
  C   C2978     1.0  0.65659  0.47059  0.62416  1.0000
  C   C2979     1.0  0.67658  0.45904  0.62547  1.0000
  P   P100      1.0  0.63875  0.47585  0.64195  1.0000
  C   C2980     1.0  0.61962  0.45485  0.64615  1.0000
  C   C2981     1.0  0.65424  0.47587  0.65919  1.0000
  C   C2982     1.0  0.66117  0.45604  0.66718  1.0000
  C   C2983     1.0  0.67328  0.45562  0.68044  1.0000
  C   C2984     1.0  0.67853  0.47498  0.68592  1.0000
  C   C2985     1.0  0.67166  0.49483  0.67809  1.0000
  C   C2986     1.0  0.65955  0.49532  0.66477  1.0000
  C   C2987     1.0  0.60964  0.45038  0.66185  1.0000
  C   C2988     1.0  0.59514  0.43384  0.66516  1.0000
  C   C2989     1.0  0.59039  0.42178  0.65279  1.0000
  C   C2990     1.0  0.60003  0.42635  0.63710  1.0000
  C   C2991     1.0  0.61452  0.44286  0.63380  1.0000
  C   C2992     1.0  0.62477  0.50190  0.63762  1.0000
  C   C2993     1.0  0.63638  0.51940  0.63007  1.0000
  C   C2994     1.0  0.62559  0.53921  0.62557  1.0000
  C   C2995     1.0  0.59147  0.52437  0.63603  1.0000
  C   C2996     1.0  0.60220  0.50453  0.64058  1.0000
  H   H2395     1.0  0.70502  0.44510  0.61267  1.0000
  H   H2396     1.0  0.69294  0.45633  0.58558  1.0000
  H   H2397     1.0  0.65780  0.47693  0.58301  1.0000
  H   H2398     1.0  0.63439  0.48555  0.60729  1.0000
  H   H2399     1.0  0.68193  0.45320  0.63712  1.0000
  H   H2400     1.0  0.65742  0.44080  0.66308  1.0000
  H   H2401     1.0  0.67874  0.44019  0.68639  1.0000
  H   H2402     1.0  0.68800  0.47451  0.69620  1.0000
  H   H2403     1.0  0.67587  0.50981  0.68234  1.0000
  H   H2404     1.0  0.65445  0.51086  0.65893  1.0000
  H   H2405     1.0  0.61327  0.45948  0.67158  1.0000
  H   H2406     1.0  0.58784  0.43016  0.67736  1.0000
  H   H2407     1.0  0.57941  0.40876  0.65538  1.0000
  H   H2408     1.0  0.59652  0.41692  0.62749  1.0000
  H   H2409     1.0  0.62207  0.44592  0.62168  1.0000
  H   H2410     1.0  0.65374  0.51755  0.62733  1.0000
  H   H2411     1.0  0.57400  0.52626  0.63781  1.0000
  H   H2412     1.0  0.59275  0.49124  0.64603  1.0000
  H   H2413     1.0  0.65981  0.60587  0.52914  1.0000
  C   C2997     1.0  0.58118  0.57086  0.49482  1.0000
  S   S401      1.0  0.54341  0.60544  0.53688  1.0000
  C   C2998     1.0  0.56256  0.34846  0.53206  1.0000
  H   H2414     1.0  0.55990  0.65401  0.54904  1.0000
  C   C2999     1.0  0.62116  0.63889  0.70199  1.0000
  C   C3000     1.0  0.76676  0.37319  0.66458  1.0000
  H   H2415     1.0  0.56566  0.44530  0.60369  1.0000
  P   P101      1.0  0.64221  0.63319  0.68617  1.0000
  C   C3001     1.0  0.55019  0.40671  0.49933  1.0000
  C   C3002     1.0  0.60026  0.62042  0.65395  1.0000
  H   H2416     1.0  0.66753  0.35478  0.67315  1.0000
  H   H2417     1.0  0.53769  0.58866  0.50728  1.0000
  C   C3003     1.0  0.55446  0.45849  0.60712  1.0000
  C   C3004     1.0  0.55357  0.46505  0.62269  1.0000
  C   C3005     1.0  0.53932  0.48220  0.62712  1.0000
  C   C3006     1.0  0.52613  0.49297  0.61592  1.0000
  C   C3007     1.0  0.52682  0.48645  0.60019  1.0000
  C   C3008     1.0  0.54101  0.46893  0.59595  1.0000
  C   C3009     1.0  0.60951  0.63337  0.49538  1.0000
  H   H2418     1.0  0.59032  0.53836  0.50331  1.0000
  C   C3010     1.0  0.61892  0.59642  0.51921  1.0000
  H   H2419     1.0  0.81168  0.34358  0.65142  1.0000
  H   H2420     1.0  0.66226  0.55448  0.68550  1.0000
  C   C3011     1.0  0.57870  0.58573  0.48140  1.0000
  H   H2421     1.0  0.55451  0.45976  0.52629  1.0000
  H   H2422     1.0  0.58156  0.34023  0.49064  1.0000
  C   C3012     1.0  0.68238  0.65127  0.67848  1.0000
  C   C3013     1.0  0.65702  0.60808  0.69214  1.0000
  C   C3014     1.0  0.66499  0.56939  0.69054  1.0000
  H   H2423     1.0  0.57933  0.49701  0.50308  1.0000
  C   C3015     1.0  0.54035  0.46127  0.51959  1.0000
  H   H2424     1.0  0.49914  0.62808  0.53439  1.0000
  C   C3016     1.0  0.60787  0.63246  0.63974  1.0000
  Fe  Fe204     1.0  0.50758  0.61569  0.59329  1.0000
  C   C3017     1.0  0.65359  0.58871  0.68559  1.0000
  H   H2425     1.0  0.58564  0.61177  0.65423  1.0000
  C   C3018     1.0  0.75686  0.34153  0.65265  1.0000
  C   C3019     1.0  0.67971  0.34147  0.67356  1.0000
  C   C3020     1.0  0.51991  0.45835  0.52775  1.0000
  H   H2426     1.0  0.64504  0.58653  0.50185  1.0000
  H   H2427     1.0  0.63187  0.65388  0.62846  1.0000
  C   C3021     1.0  0.53380  0.65102  0.49879  1.0000
  C   C3022     1.0  0.72742  0.33612  0.62826  1.0000
  P   P102      1.0  0.62174  0.62527  0.51403  1.0000
  C   C3023     1.0  0.51774  0.52243  0.51565  1.0000
  H   H2428     1.0  0.75747  0.35103  0.61964  1.0000
  C   C3024     1.0  0.62635  0.64417  0.63942  1.0000
  H   H2429     1.0  0.74173  0.63378  0.72062  1.0000
  C   C3025     1.0  0.53951  0.37132  0.49451  1.0000
  C   C3026     1.0  0.57724  0.36480  0.53080  1.0000
  C   C3027     1.0  0.49754  0.53914  0.59942  1.0000
  C   C3028     1.0  0.73938  0.65097  0.72210  1.0000
  H   H2430     1.0  0.65127  0.65345  0.65282  1.0000
  C   C3029     1.0  0.65008  0.63048  0.51061  1.0000
  C   C3030     1.0  0.66508  0.61840  0.51987  1.0000
  C   C3031     1.0  0.74124  0.34829  0.61704  1.0000
  C   C3032     1.0  0.71294  0.35466  0.59893  1.0000
  H   H2431     1.0  0.69931  0.35551  0.65319  1.0000
  H   H2432     1.0  0.50186  0.61929  0.66781  1.0000
  H   H2433     1.0  0.55767  0.34292  0.52118  1.0000
  H   H2434     1.0  0.57687  0.63516  0.52597  1.0000
  H   H2435     1.0  0.50524  0.34958  0.56454  1.0000
  C   C3033     1.0  0.69783  0.34185  0.66227  1.0000
  C   C3034     1.0  0.58916  0.64985  0.72644  1.0000
  H   H2436     1.0  0.49845  0.50787  0.48970  1.0000
  H   H2437     1.0  0.50630  0.35641  0.48090  1.0000
  H   H2438     1.0  0.68861  0.55429  0.70598  1.0000
  H   H2439     1.0  0.63805  0.62284  0.72180  1.0000
  C   C3035     1.0  0.59017  0.66125  0.55711  1.0000
  C   C3036     1.0  0.56070  0.40904  0.48376  1.0000
  H   H2440     1.0  0.68284  0.34033  0.60721  1.0000
  C   C3037     1.0  0.57734  0.65274  0.54675  1.0000
  H   H2441     1.0  0.71133  0.65521  0.70889  1.0000
  C   C3038     1.0  0.64916  0.44604  0.48104  1.0000
  C   C3039     1.0  0.69408  0.63896  0.50568  1.0000
  C   C3040     1.0  0.50673  0.33514  0.57278  1.0000
  H   H2442     1.0  0.62595  0.33198  0.71127  1.0000
  H   H2443     1.0  0.53309  0.56111  0.48566  1.0000
  H   H2444     1.0  0.51337  0.43105  0.48104  1.0000
  S   S402      1.0  0.56935  0.66153  0.60312  1.0000
  C   C3041     1.0  0.81583  0.33390  0.70791  1.0000
  H   H2445     1.0  0.49766  0.57792  0.49510  1.0000
  C   C3042     1.0  0.68701  0.62260  0.51736  1.0000
  H   H2446     1.0  0.56953  0.42336  0.47988  1.0000
  C   C3043     1.0  0.61583  0.62227  0.48163  1.0000
  H   H2447     1.0  0.68465  0.66404  0.48759  1.0000
  H   H2448     1.0  0.53249  0.60551  0.47949  1.0000
  C   C3044     1.0  0.49882  0.64661  0.65005  1.0000
  C   C3045     1.0  0.55529  0.65913  0.63614  1.0000
  H   H2449     1.0  0.49749  0.37682  0.66204  1.0000
  C   C3046     1.0  0.65725  0.64707  0.49903  1.0000
  H   H2450     1.0  0.71107  0.64226  0.50377  1.0000
  H   H2451     1.0  0.54517  0.65749  0.66173  1.0000
  C   C3047     1.0  0.61266  0.65929  0.55426  1.0000
  H   H2452     1.0  0.59037  0.66126  0.50396  1.0000
  H   H2453     1.0  0.64593  0.65691  0.49197  1.0000
  C   C3048     1.0  0.58581  0.65761  0.47944  1.0000
  H   H2454     1.0  0.66148  0.45776  0.47864  1.0000
  C   C3049     1.0  0.66214  0.66260  0.72841  1.0000
  C   C3050     1.0  0.54998  0.37348  0.47879  1.0000
  Fe  Fe205     1.0  0.59014  0.53133  0.91570  1.0000
  S   S403      1.0  0.60559  0.55840  0.92534  1.0000
  S   S404      1.0  0.55474  0.52937  0.91330  1.0000
  Fe  Fe206     1.0  0.63122  0.50255  0.91431  1.0000
  S   S405      1.0  0.65014  0.52705  0.92416  1.0000
  S   S406      1.0  0.64824  0.47113  0.90790  1.0000
  Fe  Fe207     1.0  0.62090  0.53218  0.94194  1.0000
  S   S407      1.0  0.61685  0.52649  0.96957  1.0000
  Fe  Fe208     1.0  0.63348  0.55096  0.90657  1.0000
  S   S408      1.0  0.65152  0.57679  0.88989  1.0000
  S   S409      1.0  0.60360  0.50554  0.93308  1.0000
  S   S410      1.0  0.61637  0.52593  0.89588  1.0000
  Fe  Fe209     1.0  0.52541  0.38221  0.90337  1.0000
  Fe  Fe210     1.0  0.57358  0.37747  0.89466  1.0000
  S   S411      1.0  0.60365  0.39329  0.88333  1.0000
  S   S412      1.0  0.54537  0.37846  0.87977  1.0000
  S   S413      1.0  0.55372  0.38463  0.91754  1.0000
  Fe  Fe211     1.0  0.70510  0.60945  0.76032  1.0000
  S   S414      1.0  0.70999  0.61881  0.78498  1.0000
  H   H2455     1.0  0.62641  0.37813  0.85194  1.0000
  Fe  Fe212     1.0  0.73088  0.56570  0.76461  1.0000
  S   S415      1.0  0.73882  0.57264  0.78939  1.0000
  C   C3051     1.0  0.58897  0.33303  0.76254  1.0000
  Fe  Fe213     1.0  0.70381  0.58395  0.79367  1.0000
  S   S416      1.0  0.68175  0.56879  0.81493  1.0000
  Fe  Fe214     1.0  0.74492  0.60731  0.77912  1.0000
  S   S417      1.0  0.77400  0.62481  0.78647  1.0000
  S   S418      1.0  0.69578  0.57566  0.76924  1.0000
  C   C3052     1.0  0.60217  0.39156  0.93707  1.0000
  H   H2456     1.0  0.65926  0.64083  0.76748  1.0000
  H   H2457     1.0  0.52299  0.63416  0.92907  1.0000
  C   C3053     1.0  0.73903  0.47570  0.73500  1.0000
  H   H2458     1.0  0.51351  0.54722  0.86049  1.0000
  C   C3054     1.0  0.52522  0.54152  0.97684  1.0000
  C   C3055     1.0  0.65255  0.52630  0.77357  1.0000
  C   C3056     1.0  0.54005  0.53348  0.96476  1.0000
  C   C3057     1.0  0.71715  0.43547  0.77395  1.0000
  H   H2459     1.0  0.80921  0.64118  0.80105  1.0000
  H   H2460     1.0  0.64462  0.62206  0.82335  1.0000
  S   S419      1.0  0.70580  0.44988  0.72876  1.0000
  S   S420      1.0  0.50252  0.61726  0.89498  1.0000
  C   C3058     1.0  0.65983  0.57442  0.86903  1.0000
  C   C3059     1.0  0.67124  0.59110  0.85993  1.0000
  C   C3060     1.0  0.67822  0.58970  0.84342  1.0000
  C   C3061     1.0  0.67377  0.57161  0.83576  1.0000
  C   C3062     1.0  0.66210  0.55511  0.84481  1.0000
  C   C3063     1.0  0.65528  0.55643  0.86132  1.0000
  H   H2461     1.0  0.67480  0.60511  0.86573  1.0000
  H   H2462     1.0  0.68684  0.60268  0.83662  1.0000
  H   H2463     1.0  0.65844  0.54111  0.83902  1.0000
  H   H2464     1.0  0.64658  0.54346  0.86809  1.0000
  C   C3064     1.0  0.63430  0.45054  0.90107  1.0000
  C   C3065     1.0  0.61214  0.44794  0.90518  1.0000
  C   C3066     1.0  0.60234  0.43004  0.90027  1.0000
  C   C3067     1.0  0.61460  0.41538  0.89075  1.0000
  C   C3068     1.0  0.63649  0.41853  0.88636  1.0000
  C   C3069     1.0  0.64635  0.43573  0.89174  1.0000
  H   H2465     1.0  0.60282  0.45922  0.91256  1.0000
  H   H2466     1.0  0.58544  0.42755  0.90384  1.0000
  H   H2467     1.0  0.64601  0.40734  0.87900  1.0000
  H   H2468     1.0  0.66344  0.43760  0.88857  1.0000
  H   H2469     1.0  0.53951  0.42615  0.86590  1.0000
  H   H2470     1.0  0.52790  0.48952  0.89826  1.0000
  H   H2471     1.0  0.60105  0.37691  0.93118  1.0000
  C   C3070     1.0  0.51951  0.62037  0.93775  1.0000
  C   C3071     1.0  0.71551  0.41563  0.78334  1.0000
  H   H2472     1.0  0.54375  0.57406  0.95388  1.0000
  H   H2473     1.0  0.68237  0.52574  0.80552  1.0000
  C   C3072     1.0  0.51702  0.59322  0.90113  1.0000
  C   C3073     1.0  0.53949  0.59293  0.90137  1.0000
  C   C3074     1.0  0.55126  0.57340  0.90534  1.0000
  C   C3075     1.0  0.54054  0.55416  0.90891  1.0000
  C   C3076     1.0  0.51811  0.55449  0.90875  1.0000
  H   H2474     1.0  0.50737  0.46349  0.91864  1.0000
  H   H2475     1.0  0.54774  0.60779  0.89842  1.0000
  H   H2476     1.0  0.56860  0.57316  0.90540  1.0000
  C   C3077     1.0  0.50143  0.54029  0.86941  1.0000
  H   H2477     1.0  0.61213  0.37998  0.76647  1.0000
  H   H2478     1.0  0.58695  0.37442  0.85556  1.0000
  H   H2479     1.0  0.53766  0.53728  0.95208  1.0000
  S   S421      1.0  0.73035  0.38669  0.72950  1.0000
  C   C3078     1.0  0.73208  0.48493  0.82026  1.0000
  C   C3079     1.0  0.59575  0.37245  0.84387  1.0000
  H   H2480     1.0  0.78502  0.61330  0.83110  1.0000
  C   C3080     1.0  0.50248  0.38918  0.97388  1.0000
  C   C3081     1.0  0.55434  0.44820  0.87921  1.0000
  C   C3082     1.0  0.71084  0.45482  0.78080  1.0000
  H   H2481     1.0  0.67335  0.43553  0.76168  1.0000
  C   C3083     1.0  0.53172  0.49008  0.94330  1.0000
  C   C3084     1.0  0.61807  0.37449  0.84180  1.0000
  C   C3085     1.0  0.70795  0.41519  0.79969  1.0000
  H   H2482     1.0  0.56450  0.47220  0.89339  1.0000
  H   H2483     1.0  0.57994  0.56287  0.96389  1.0000
  C   C3086     1.0  0.54875  0.47885  0.93495  1.0000
  C   C3087     1.0  0.58611  0.41792  0.95503  1.0000
  H   H2484     1.0  0.70603  0.64213  0.84830  1.0000
  C   C3088     1.0  0.67359  0.33753  0.78893  1.0000
  S   S422      1.0  0.52320  0.34640  0.90922  1.0000
  C   C3089     1.0  0.59644  0.59249  0.96261  1.0000
  H   H2485     1.0  0.58738  0.36071  0.80625  1.0000
  Fe  Fe215     1.0  0.55256  0.34857  0.92263  1.0000
  C   C3090     1.0  0.70255  0.48967  0.74163  1.0000
  C   C3091     1.0  0.54102  0.41105  0.97019  1.0000
  C   C3092     1.0  0.50867  0.65439  0.73911  1.0000
  C   C3093     1.0  0.66260  0.33390  0.73871  1.0000
  H   H2486     1.0  0.74416  0.66106  0.78949  1.0000
  C   C3094     1.0  0.67722  0.47586  0.94616  1.0000
  H   H2487     1.0  0.63612  0.43202  0.93838  1.0000
  H   H2488     1.0  0.52010  0.65230  0.84569  1.0000
  C   C3095     1.0  0.69775  0.47374  0.95173  1.0000
  H   H2489     1.0  0.51188  0.49165  0.96578  1.0000
  C   C3096     1.0  0.55899  0.34214  0.96607  1.0000
  S   S423      1.0  0.68594  0.34677  0.74214  1.0000
  C   C3097     1.0  0.58051  0.34736  0.96608  1.0000
  C   C3098     1.0  0.55837  0.52077  0.96890  1.0000
  C   C3099     1.0  0.50212  0.51792  0.87378  1.0000
  H   H2490     1.0  0.67651  0.34825  0.77806  1.0000
  C   C3100     1.0  0.70052  0.47870  0.96736  1.0000
  C   C3101     1.0  0.50981  0.58359  0.95904  1.0000
  H   H2491     1.0  0.63436  0.56886  0.97220  1.0000
  C   C3102     1.0  0.67494  0.51963  0.79582  1.0000
  P   P103      1.0  0.50222  0.55891  0.97113  1.0000
  C   C3103     1.0  0.59477  0.35448  0.75923  1.0000
  C   C3104     1.0  0.60484  0.42968  0.95187  1.0000
  H   H2492     1.0  0.64354  0.48483  0.95182  1.0000
  H   H2493     1.0  0.64291  0.53742  0.76599  1.0000
  C   C3105     1.0  0.58484  0.36757  0.83098  1.0000
  H   H2494     1.0  0.53444  0.41771  0.94513  1.0000
  C   C3106     1.0  0.96777  0.34535  0.79804  1.0000
  S   S424      1.0  0.54915  0.33305  0.94872  1.0000
  H   H2495     1.0  0.65968  0.55068  0.78871  1.0000
  C   C3107     1.0  0.74681  0.49438  0.74049  1.0000
  H   H2496     1.0  0.71656  0.47706  0.97138  1.0000
  C   C3108     1.0  0.66763  0.64924  0.74213  1.0000
  H   H2497     1.0  0.67769  0.52968  0.97351  1.0000
  C   C3109     1.0  0.65511  0.65101  0.75684  1.0000
  H   H2498     1.0  0.52505  0.60541  0.81093  1.0000
  H   H2499     1.0  0.50301  0.44289  0.87066  1.0000
  H   H2500     1.0  0.68102  0.56887  0.97377  1.0000
  C   C3110     1.0  0.50402  0.65898  0.84356  1.0000
  S   S425      1.0  0.49786  0.40636  0.90963  1.0000
  C   C3111     1.0  0.96094  0.36214  0.77150  1.0000
  C   C3112     1.0  0.57884  0.63525  0.87979  1.0000
  C   C3113     1.0  0.59170  0.62634  0.89182  1.0000
  C   C3114     1.0  0.60098  0.60530  0.89121  1.0000
  C   C3115     1.0  0.59730  0.59301  0.87868  1.0000
  C   C3116     1.0  0.58398  0.60166  0.86677  1.0000
  C   C3117     1.0  0.57514  0.62305  0.86722  1.0000
  P   P104      1.0  0.57985  0.58633  0.85016  1.0000
  C   C3118     1.0  0.58162  0.55766  0.85688  1.0000
  C   C3119     1.0  0.55290  0.59362  0.84420  1.0000
  C   C3120     1.0  0.53565  0.59670  0.85608  1.0000
  H   H2501     1.0  0.50251  0.63675  0.97751  1.0000
  C   C3121     1.0  0.52802  0.60290  0.82355  1.0000
  C   C3122     1.0  0.54890  0.59692  0.82785  1.0000
  C   C3123     1.0  0.60043  0.54481  0.85278  1.0000
  C   C3124     1.0  0.60159  0.52257  0.85759  1.0000
  C   C3125     1.0  0.58420  0.51301  0.86686  1.0000
  C   C3126     1.0  0.56572  0.52576  0.87145  1.0000
  C   C3127     1.0  0.56444  0.54799  0.86655  1.0000
  C   C3128     1.0  0.60057  0.59189  0.83373  1.0000
  C   C3129     1.0  0.61582  0.60736  0.83468  1.0000
  C   C3130     1.0  0.63252  0.61060  0.82235  1.0000
  C   C3131     1.0  0.63420  0.59844  0.80903  1.0000
  C   C3132     1.0  0.61923  0.58293  0.80803  1.0000
  C   C3133     1.0  0.60251  0.57961  0.82033  1.0000
  C   C3134     1.0  0.65565  0.50448  0.77059  1.0000
  C   C3135     1.0  0.95926  0.36276  0.78826  1.0000
  H   H2502     1.0  0.61125  0.59853  0.90039  1.0000
  H   H2503     1.0  0.60497  0.57685  0.87831  1.0000
  H   H2504     1.0  0.56531  0.63030  0.85792  1.0000
  H   H2505     1.0  0.53828  0.59474  0.86875  1.0000
  H   H2506     1.0  0.56176  0.59513  0.81834  1.0000
  H   H2507     1.0  0.61443  0.55190  0.84609  1.0000
  H   H2508     1.0  0.61622  0.51284  0.85448  1.0000
  H   H2509     1.0  0.58534  0.49587  0.87089  1.0000
  H   H2510     1.0  0.55258  0.51856  0.87920  1.0000
  H   H2511     1.0  0.55020  0.55753  0.87067  1.0000
  H   H2512     1.0  0.61529  0.61656  0.84507  1.0000
  H   H2513     1.0  0.51449  0.50772  0.86774  1.0000
  H   H2514     1.0  0.59142  0.56706  0.81961  1.0000
  C   C3136     1.0  0.72562  0.62663  0.82187  1.0000
  C   C3137     1.0  0.53022  0.47574  0.89110  1.0000
  H   H2515     1.0  0.67511  0.47219  0.93401  1.0000
  C   C3138     1.0  0.50635  0.57407  0.90509  1.0000
  C   C3139     1.0  0.61655  0.35018  0.78205  1.0000
  C   C3140     1.0  0.60823  0.36319  0.76909  1.0000
  P   P105      1.0  0.63400  0.36100  0.79493  1.0000
  H   H2516     1.0  0.96659  0.34589  0.81103  1.0000
  C   C3141     1.0  0.64635  0.38487  0.78455  1.0000
  C   C3142     1.0  0.64716  0.40388  0.79231  1.0000
  C   C3143     1.0  0.65678  0.42211  0.78409  1.0000
  C   C3144     1.0  0.66567  0.42154  0.76808  1.0000
  C   C3145     1.0  0.66480  0.40280  0.76026  1.0000
  C   C3146     1.0  0.65501  0.38467  0.76837  1.0000
  C   C3147     1.0  0.66838  0.49020  0.78023  1.0000
  C   C3148     1.0  0.51611  0.44967  0.87566  1.0000
  C   C3149     1.0  0.61871  0.36671  0.81377  1.0000
  C   C3150     1.0  0.62956  0.37149  0.82685  1.0000
  H   H2517     1.0  0.67766  0.64911  0.86991  1.0000
  P   P106      1.0  0.56367  0.42825  0.96796  1.0000
  C   C3151     1.0  0.78845  0.64930  0.78193  1.0000
  H   H2518     1.0  0.71264  0.47007  0.77338  1.0000
  H   H2519     1.0  0.64028  0.40484  0.80462  1.0000
  H   H2520     1.0  0.65744  0.43667  0.79013  1.0000
  H   H2521     1.0  0.50181  0.60545  0.86110  1.0000
  H   H2522     1.0  0.67176  0.40227  0.74787  1.0000
  H   H2523     1.0  0.65416  0.37047  0.76193  1.0000
  C   C3152     1.0  0.53543  0.46475  0.96697  1.0000
  C   C3153     1.0  0.62199  0.42253  0.94122  1.0000
  H   H2524     1.0  0.64694  0.37258  0.82555  1.0000
  H   H2525     1.0  0.70910  0.63011  0.81902  1.0000
  H   H2526     1.0  0.69911  0.52075  0.75186  1.0000
  C   C3154     1.0  0.66946  0.49100  0.85148  1.0000
  C   C3155     1.0  0.68171  0.49235  0.83647  1.0000
  C   C3156     1.0  0.67940  0.47742  0.82521  1.0000
  C   C3157     1.0  0.72019  0.49147  0.80702  1.0000
  C   C3158     1.0  0.75220  0.49331  0.82118  1.0000
  C   C3159     1.0  0.76076  0.50791  0.80873  1.0000
  C   C3160     1.0  0.74925  0.51405  0.79534  1.0000
  C   C3161     1.0  0.72905  0.50589  0.79445  1.0000
  H   H2527     1.0  0.64836  0.49864  0.76070  1.0000
  H   H2528     1.0  0.70714  0.39981  0.80702  1.0000
  H   H2529     1.0  0.67155  0.50237  0.86020  1.0000
  H   H2530     1.0  0.69287  0.50520  0.83368  1.0000
  H   H2531     1.0  0.76123  0.48836  0.83147  1.0000
  H   H2532     1.0  0.77639  0.51435  0.80933  1.0000
  H   H2533     1.0  0.75607  0.52506  0.78554  1.0000
  H   H2534     1.0  0.72059  0.51069  0.78382  1.0000
  S   S426      1.0  0.68982  0.63019  0.74005  1.0000
  H   H2535     1.0  0.64756  0.60055  0.79975  1.0000
  C   C3162     1.0  0.49858  0.61819  0.94514  1.0000
  H   H2536     1.0  0.69665  0.43389  0.81940  1.0000
  H   H2537     1.0  0.63944  0.44859  0.84677  1.0000
  S   S427      1.0  0.74008  0.59927  0.75404  1.0000
  C   C3163     1.0  0.65133  0.46075  0.84386  1.0000
  C   C3164     1.0  0.59975  0.61070  0.97046  1.0000
  C   C3165     1.0  0.97102  0.34407  0.76452  1.0000
  C   C3166     1.0  0.52507  0.48301  0.95931  1.0000
  C   C3167     1.0  0.70241  0.45451  0.79706  1.0000
  C   C3168     1.0  0.51101  0.60579  0.83550  1.0000
  C   C3169     1.0  0.59621  0.36479  0.81595  1.0000
  H   H2538     1.0  0.76405  0.49606  0.73994  1.0000
  H   H2539     1.0  0.71151  0.46835  0.94386  1.0000
  S   S428      1.0  0.57508  0.34112  0.90063  1.0000
  C   C3170     1.0  0.73870  0.64357  0.82391  1.0000
  C   C3171     1.0  0.73372  0.60506  0.82355  1.0000
  C   C3172     1.0  0.65447  0.47503  0.85526  1.0000
  C   C3173     1.0  0.66345  0.46218  0.82877  1.0000
  C   C3174     1.0  0.53574  0.60448  0.94120  1.0000
  C   C3175     1.0  0.73260  0.51092  0.74657  1.0000
  H   H2540     1.0  0.62096  0.57311  0.79790  1.0000
  C   C3176     1.0  0.52908  0.40995  0.95692  1.0000
  H   H2541     1.0  0.57012  0.51524  0.95951  1.0000
  H   H2542     1.0  0.50982  0.53957  0.91137  1.0000
  H   H2543     1.0  0.52374  0.50427  0.93732  1.0000
  C   C3177     1.0  0.51486  0.60276  0.85177  1.0000
  H   H2544     1.0  0.72353  0.59204  0.82195  1.0000
  H   H2545     1.0  0.55391  0.48424  0.92253  1.0000
  H   H2546     1.0  0.57084  0.38917  0.95007  1.0000
  C   C3178     1.0  0.65943  0.48293  0.95621  1.0000
  C   C3179     1.0  0.53094  0.58616  0.95178  1.0000
  C   C3180     1.0  0.68345  0.66251  0.86160  1.0000
  H   H2547     1.0  0.59458  0.63574  0.90158  1.0000
  H   H2548     1.0  0.60598  0.44465  0.95733  1.0000
  H   H2549     1.0  0.55191  0.60603  0.93527  1.0000
  H   H2550     1.0  0.61123  0.62228  0.96500  1.0000
  C   C3181     1.0  0.62061  0.40351  0.93378  1.0000
  H   H2551     1.0  0.72334  0.43586  0.76131  1.0000
  H   H2552     1.0  0.61016  0.63276  0.74296  1.0000
  C   C3182     1.0  0.58498  0.39867  0.94771  1.0000
  H   H2553     1.0  0.57038  0.44049  0.87715  1.0000
  P   P107      1.0  0.69471  0.47987  0.80559  1.0000
  C   C3183     1.0  0.55918  0.46062  0.94255  1.0000
  C   C3184     1.0  0.65466  0.33994  0.79939  1.0000
  H   H2554     1.0  0.77088  0.65125  0.82869  1.0000
  C   C3185     1.0  0.68268  0.48580  0.97753  1.0000
  H   H2555     1.0  0.95443  0.37568  0.76390  1.0000
  S   S429      1.0  0.74367  0.53433  0.75308  1.0000
  C   C3186     1.0  0.75508  0.60026  0.82697  1.0000
  H   H2556     1.0  0.64520  0.47386  0.86699  1.0000
  C   C3187     1.0  0.76829  0.61702  0.82891  1.0000
  H   H2557     1.0  0.66037  0.45141  0.81993  1.0000
  Fe  Fe216     1.0  0.54580  0.34239  0.88663  1.0000
  H   H2558     1.0  0.60552  0.58983  0.95116  1.0000
  C   C3188     1.0  0.67840  0.49780  0.79277  1.0000
  H   H2559     1.0  0.72029  0.40066  0.77792  1.0000
  C   C3189     1.0  0.55277  0.45358  0.95871  1.0000
  H   H2560     1.0  0.67044  0.47339  0.77773  1.0000
  C   C3190     1.0  0.80523  0.65311  0.79131  1.0000
  H   H2561     1.0  0.72585  0.47331  0.82985  1.0000
  H   H2562     1.0  0.50066  0.39884  0.94848  1.0000
  C   C3191     1.0  0.53692  0.44010  0.87285  1.0000
  C   C3192     1.0  0.55100  0.46605  0.88832  1.0000
  H   H2563     1.0  0.63365  0.39827  0.92520  1.0000
  H   H2564     1.0  0.76151  0.58358  0.82779  1.0000
  H   H2565     1.0  0.56757  0.36554  0.83274  1.0000
  H   H2566     1.0  0.57188  0.45190  0.93559  1.0000
  C   C3193     1.0  0.70168  0.43457  0.80661  1.0000
  C   C3194     1.0  0.71033  0.50832  0.74719  1.0000
  C   C3195     1.0  0.66203  0.53380  0.78629  1.0000
  H   H2567     1.0  0.95143  0.37677  0.79366  1.0000
  C   C3196     1.0  0.51251  0.46747  0.88495  1.0000
  C   C3197     1.0  0.76016  0.63861  0.82743  1.0000
  C   C3198     1.0  0.69956  0.65860  0.84917  1.0000
  H   H2568     1.0  0.57724  0.65479  0.73591  1.0000
  H   H2569     1.0  0.58896  0.36428  0.74892  1.0000
  C   C3199     1.0  0.58192  0.57734  0.96977  1.0000
  C   C3200     1.0  0.66214  0.48791  0.97181  1.0000
  H   H2570     1.0  0.97238  0.34391  0.75149  1.0000
  C   C3201     1.0  0.50984  0.39920  0.95879  1.0000
  H   H2571     1.0  0.77072  0.66260  0.76224  1.0000
  H   H2572     1.0  0.51526  0.64705  0.74999  1.0000
  H   H2573     1.0  0.50496  0.65858  0.79165  1.0000
  H   H2574     1.0  0.59113  0.34732  0.95503  1.0000
  H   H2575     1.0  0.57162  0.65157  0.88026  1.0000
  H   H2576     1.0  0.76665  0.65142  0.73589  1.0000
  H   H2577     1.0  0.50630  0.34748  0.95774  1.0000
  C   C3202     1.0  0.60771  0.63743  0.73040  1.0000
  C   C3203     1.0  0.75325  0.66090  0.73087  1.0000
  C   C3204     1.0  0.71680  0.47320  0.73544  1.0000
  H   H2578     1.0  0.68533  0.48800  0.74209  1.0000
  H   H2579     1.0  0.75029  0.46328  0.73036  1.0000
  H   H2580     1.0  0.53672  0.66299  0.77149  1.0000
  Fe  Fe217     1.0  0.92482  0.85011  0.06812  1.0000
  S   S430      1.0  0.94519  0.87637  0.07393  1.0000
  S   S431      1.0  0.90054  0.83701  0.08866  1.0000
  Fe  Fe218     1.0  0.94543  0.85122  0.03276  1.0000
  S   S432      1.0  0.96765  0.87684  0.03674  1.0000
  S   S433      1.0  0.95333  0.83843  0.00797  1.0000
  Fe  Fe219     1.0  0.97236  0.85838  0.06054  1.0000
  Fe  Fe220     1.0  0.93856  0.89266  0.04964  1.0000
  S   S434      1.0  0.93752  0.92897  0.04473  1.0000
  S   S435      1.0  0.95262  0.83101  0.05590  1.0000
  S   S436      1.0  0.91564  0.86824  0.04447  1.0000
  Fe  Fe221     1.0  0.90683  0.76516  0.17459  1.0000
  S   S437      1.0  0.91899  0.78357  0.19342  1.0000
  S   S438      1.0  0.92443  0.77129  0.14921  1.0000
  Fe  Fe222     1.0  0.87468  0.74009  0.19947  1.0000
  S   S439      1.0  0.84788  0.71556  0.20790  1.0000
  Fe  Fe223     1.0  0.88397  0.78744  0.20255  1.0000
  C   C3205     1.0  0.98560  0.79392  0.08754  1.0000
  Fe  Fe224     1.0  0.91987  0.75232  0.20924  1.0000
  C   C3206     1.0  0.86268  0.90430  0.10913  1.0000
  S   S440      1.0  0.87150  0.77102  0.18277  1.0000
  S   S441      1.0  0.90964  0.73300  0.18992  1.0000
  S   S442      1.0  0.88526  0.75741  0.21983  1.0000
  C   C3207     1.0  0.92035  0.86863  0.16660  1.0000
  C   C3208     1.0  0.87423  0.88426  0.11063  1.0000
  C   C3209     1.0  0.89442  0.72637  0.14757  1.0000
  C   C3210     1.0  0.87290  0.87147  0.12539  1.0000
  H   H2581     1.0  0.93014  0.88192  0.16819  1.0000
  C   C3211     1.0  0.84176  0.87407  0.17352  1.0000
  H   H2582     1.0  0.68149  0.78130  0.18317  1.0000
  C   C3212     1.0  0.99316  0.81411  0.14653  1.0000
  C   C3213     1.0  0.74808  0.82365  0.19047  1.0000
  H   H2583     1.0  0.79229  0.77736  0.20831  1.0000
  C   C3214     1.0  0.81550  0.89314  0.19824  1.0000
  H   H2584     1.0  0.88982  0.96282  0.00668  1.0000
  H   H2585     1.0  0.88187  0.85593  0.12629  1.0000
  C   C3215     1.0  0.83893  0.83126  0.14106  1.0000
  C   C3216     1.0  0.74112  0.83466  0.20416  1.0000
  H   H2586     1.0  0.83908  0.90522  0.14746  1.0000
  H   H2587     1.0  0.86178  0.91178  0.02932  1.0000
  H   H2588     1.0  0.88573  0.82065  0.16105  1.0000
  C   C3217     1.0  0.98892  0.95021  0.05384  1.0000
  C   C3218     1.0  0.88567  0.85546  0.16216  1.0000
  H   H2589     1.0  0.86673  0.87226  0.19005  1.0000
  C   C3219     1.0  0.85025  0.87749  0.18796  1.0000
  H   H2590     1.0  0.92134  0.85601  0.12957  1.0000
  H   H2591     1.0  0.92751  0.71898  0.13903  1.0000
  C   C3220     1.0  0.90737  0.81860  0.10537  1.0000
  C   C3221     1.0  0.89145  0.81340  0.11810  1.0000
  C   C3222     1.0  0.89637  0.79918  0.13168  1.0000
  C   C3223     1.0  0.91725  0.78962  0.13253  1.0000
  C   C3224     1.0  0.93297  0.79428  0.11954  1.0000
  C   C3225     1.0  0.92816  0.80891  0.10618  1.0000
  H   H2592     1.0  0.87516  0.82027  0.11736  1.0000
  H   H2593     1.0  0.88388  0.79521  0.14126  1.0000
  H   H2594     1.0  0.94897  0.78647  0.11973  1.0000
  H   H2595     1.0  0.94039  0.81242  0.09633  1.0000
  C   C3226     1.0  0.91283  0.94411  0.04716  1.0000
  C   C3227     1.0  0.91322  0.96660  0.04737  1.0000
  C   C3228     1.0  0.89391  0.97937  0.04912  1.0000
  C   C3229     1.0  0.87403  0.96980  0.05042  1.0000
  C   C3230     1.0  0.87360  0.94721  0.05038  1.0000
  C   C3231     1.0  0.89301  0.93433  0.04880  1.0000
  H   H2596     1.0  0.92851  0.97420  0.04641  1.0000
  C   C3232     1.0  0.96332  0.92321  0.13492  1.0000
  H   H2597     1.0  0.85825  0.93971  0.05161  1.0000
  H   H2598     1.0  0.89266  0.91693  0.04873  1.0000
  C   C3233     1.0  0.94035  0.84439  0.98988  1.0000
  H   H2599     1.0  0.80289  0.73818  0.20808  1.0000
  C   C3234     1.0  0.91927  0.85372  0.98973  1.0000
  H   H2600     1.0  0.70525  0.79231  0.20255  1.0000
  H   H2601     1.0  0.91042  0.85779  0.00094  1.0000
  H   H2602     1.0  0.88398  0.87842  0.10026  1.0000
  C   C3235     1.0  0.83720  0.88729  0.20015  1.0000
  H   H2603     1.0  0.77571  0.71089  0.21527  1.0000
  H   H2604     1.0  0.52838  0.78273  0.21391  1.0000
  C   C3236     1.0  0.95444  0.84357  0.12847  1.0000
  H   H2605     1.0  0.76612  0.97382  0.21055  1.0000
  H   H2606     1.0  0.84380  0.89003  0.21125  1.0000
  H   H2607     1.0  0.72444  0.87831  0.19933  1.0000
  H   H2608     1.0  0.72670  0.76230  0.22340  1.0000
  C   C3237     1.0  0.69635  0.82662  0.19844  1.0000
  H   H2609     1.0  0.92961  0.89032  0.11288  1.0000
  C   C3238     1.0  0.99403  0.77293  0.09168  1.0000
  C   C3239     1.0  0.74313  0.75672  0.21983  1.0000
  H   H2610     1.0  0.82286  0.68218  0.22631  1.0000
  H   H2611     1.0  0.68935  0.69653  0.21674  1.0000
  C   C3240     1.0  0.89774  0.68762  0.16780  1.0000
  C   C3241     1.0  0.95461  0.98858  0.98887  1.0000
  C   C3242     1.0  0.84135  0.84328  0.22722  1.0000
  H   H2612     1.0  0.49891  0.81098  0.21122  1.0000
  C   C3243     1.0  0.93788  0.85919  0.12515  1.0000
  H   H2613     1.0  0.84191  0.84195  0.13014  1.0000
  H   H2614     1.0  0.89165  0.88918  0.16344  1.0000
  H   H2615     1.0  0.65841  0.75512  0.22593  1.0000
  C   C3244     1.0  0.82872  0.81204  0.14017  1.0000
  H   H2616     1.0  0.85562  0.95008  0.01893  1.0000
  H   H2617     1.0  0.66038  0.84795  0.17212  1.0000
  C   C3245     1.0  0.75893  0.98117  0.22117  1.0000
  H   H2618     1.0  0.86542  0.69670  0.17745  1.0000
  C   C3246     1.0  0.68217  0.79831  0.18496  1.0000
  P   P108      1.0  0.85258  0.97158  0.98650  1.0000
  H   H2619     1.0  0.82662  0.79236  0.17974  1.0000
  C   C3247     1.0  0.98470  0.91477  0.13324  1.0000
  C   C3248     1.0  0.85718  0.93763  0.01056  1.0000
  C   C3249     1.0  0.97586  0.84703  0.12229  1.0000
  H   H2620     1.0  0.81644  0.78307  0.15336  1.0000
  H   H2621     1.0  0.84535  0.82580  0.18137  1.0000
  C   C3250     1.0  0.91373  0.71356  0.14702  1.0000
  H   H2622     1.0  0.78987  0.89345  0.18274  1.0000
  C   C3251     1.0  0.70147  0.69558  0.20656  1.0000
  C   C3252     1.0  0.95505  0.97090  0.97951  1.0000
  H   H2623     1.0  0.82432  0.80799  0.12863  1.0000
  C   C3253     1.0  0.78982  0.98182  0.00496  1.0000
  C   C3254     1.0  0.73265  0.69032  0.18059  1.0000
  C   C3255     1.0  0.94255  0.87847  0.11572  1.0000
  P   P109      1.0  0.85801  0.86121  0.15759  1.0000
  C   C3256     1.0  0.81980  0.87954  0.17185  1.0000
  C   C3257     1.0  0.91699  0.83035  0.16478  1.0000
  C   C3258     1.0  0.92957  0.84745  0.16699  1.0000
  H   H2624     1.0  0.92422  0.81399  0.16466  1.0000
  H   H2625     1.0  0.94650  0.84424  0.16884  1.0000
  H   H2626     1.0  0.84134  0.92740  0.12135  1.0000
  C   C3259     1.0  0.83023  0.99536  0.01038  1.0000
  C   C3260     1.0  0.82175  0.69923  0.18658  1.0000
  C   C3261     1.0  0.84874  0.89894  0.13730  1.0000
  C   C3262     1.0  0.80662  0.68490  0.18269  1.0000
  C   C3263     1.0  0.89853  0.87267  0.16402  1.0000
  C   C3264     1.0  0.97994  0.76984  0.22449  1.0000
  C   C3265     1.0  0.82426  0.79802  0.15409  1.0000
  H   H2627     1.0  0.86338  0.91401  0.09759  1.0000
  C   C3266     1.0  0.97733  0.79886  0.15072  1.0000
  S   S443      1.0  0.84974  0.98585  0.05253  1.0000
  C   C3267     1.0  0.77066  0.72796  0.21532  1.0000
  H   H2628     1.0  0.68388  0.85927  0.19145  1.0000
  C   C3268     1.0  0.81837  0.68311  0.21408  1.0000
  C   C3269     1.0  0.87475  0.98727  0.99022  1.0000
  H   H2629     1.0  0.97955  0.82622  0.09455  1.0000
  P   P110      1.0  0.71333  0.83452  0.21293  1.0000
  C   C3270     1.0  0.51021  0.75752  0.20679  1.0000
  C   C3271     1.0  0.84518  0.83636  0.15588  1.0000
  C   C3272     1.0  0.85976  0.87845  0.13877  1.0000
  C   C3273     1.0  0.99551  0.80539  0.11266  1.0000
  C   C3274     1.0  0.82815  0.69824  0.20227  1.0000
  C   C3275     1.0  0.83004  0.80320  0.16892  1.0000
  H   H2630     1.0  0.58195  0.67018  0.03129  1.0000
  C   C3276     1.0  0.84066  0.82218  0.16980  1.0000
  C   C3277     1.0  0.89508  0.83425  0.16258  1.0000
  H   H2631     1.0  0.89327  0.74148  0.13990  1.0000
  C   C3278     1.0  0.69605  0.68678  0.19282  1.0000
  C   C3279     1.0  0.93365  0.96528  0.09358  1.0000
  H   H2632     1.0  0.69367  0.74218  0.21293  1.0000
  H   H2633     1.0  0.87498  0.95446  0.08549  1.0000
  H   H2634     1.0  0.86491  0.88277  0.01066  1.0000
  C   C3280     1.0  0.90660  0.94008  0.08977  1.0000
  C   C3281     1.0  0.75877  0.77208  0.21580  1.0000
  H   H2635     1.0  0.96640  0.93047  0.00884  1.0000
  C   C3282     1.0  0.51326  0.77883  0.20976  1.0000
  C   C3283     1.0  0.68365  0.84222  0.18972  1.0000
  C   C3284     1.0  0.92769  0.94400  0.09255  1.0000
  P   P111      1.0  0.96126  0.96998  0.09673  1.0000
  H   H2636     1.0  0.82849  0.71100  0.17736  1.0000
  C   C3285     1.0  0.71159  0.68428  0.17979  1.0000
  C   C3286     1.0  0.95630  0.94014  0.12400  1.0000
  C   C3287     1.0  0.96314  0.99608  0.10428  1.0000
  H   H2637     1.0  0.78914  0.85444  0.21035  1.0000
  H   H2638     1.0  0.73697  0.81492  0.18473  1.0000
  C   C3288     1.0  0.96378  0.88197  0.10936  1.0000
  H   H2639     1.0  0.50194  0.86278  0.17229  1.0000
  C   C3289     1.0  0.72236  0.70268  0.20717  1.0000
  H   H2640     1.0  0.75132  0.85421  0.22182  1.0000
  H   H2641     1.0  0.98548  0.93863  0.04564  1.0000
  C   C3290     1.0  0.91547  0.69428  0.15715  1.0000
  C   C3291     1.0  0.95887  0.98540  0.00509  1.0000
  H   H2642     1.0  0.98186  0.88864  0.99169  1.0000
  S   S444      1.0  0.87283  0.82119  0.20907  1.0000
  C   C3292     1.0  0.96304  0.96448  0.01227  1.0000
  C   C3293     1.0  0.50508  0.67539  0.08763  1.0000
  H   H2643     1.0  0.89452  0.99658  0.04980  1.0000
  H   H2644     1.0  0.90242  0.92375  0.08831  1.0000
  C   C3294     1.0  0.97387  0.95444  0.06684  1.0000
  C   C3295     1.0  0.86050  0.91592  0.01653  1.0000
  C   C3296     1.0  0.70689  0.90047  0.21463  1.0000
  H   H2645     1.0  0.93949  0.93044  0.09345  1.0000
  H   H2646     1.0  0.93967  0.94647  0.12545  1.0000
  H   H2647     1.0  0.95212  0.91648  0.14460  1.0000
  C   C3297     1.0  0.77768  0.84598  0.20468  1.0000
  H   H2648     1.0  0.93076  0.68494  0.15692  1.0000
  C   C3298     1.0  0.90454  0.99300  0.00572  1.0000
  C   C3299     1.0  0.66951  0.81393  0.17637  1.0000
  C   C3300     1.0  0.76973  0.82373  0.18406  1.0000
  C   C3301     1.0  0.69557  0.80461  0.19594  1.0000
  H   H2649     1.0  0.75458  0.70348  0.19459  1.0000
  H   H2650     1.0  0.80694  0.96369  0.98658  1.0000
  H   H2651     1.0  0.95905  0.94608  0.06830  1.0000
  C   C3302     1.0  0.49646  0.79478  0.20826  1.0000
  H   H2652     1.0  0.77507  0.81513  0.17357  1.0000
  C   C3303     1.0  0.90765  0.67361  0.19978  1.0000
  H   H2653     1.0  0.96245  0.77668  0.16939  1.0000
  C   C3304     1.0  0.80307  0.66887  0.21021  1.0000
  C   C3305     1.0  0.98030  0.86620  0.11239  1.0000
  C   C3306     1.0  0.98633  0.81010  0.09797  1.0000
  C   C3307     1.0  0.75614  0.84584  0.21115  1.0000
  C   C3308     1.0  0.97847  0.96843  0.07811  1.0000
  H   H2654     1.0  0.86222  0.73040  0.15929  1.0000
  H   H2655     1.0  0.65903  0.80903  0.16793  1.0000
  H   H2656     1.0  0.70756  0.67679  0.16936  1.0000
  H   H2657     1.0  0.83664  0.79343  0.21465  1.0000
  H   H2658     1.0  0.91518  0.98700  0.01483  1.0000
  C   C3309     1.0  0.97463  0.78855  0.16636  1.0000
  C   C3310     1.0  0.92919  0.67836  0.20082  1.0000
  C   C3311     1.0  0.87694  0.72013  0.15845  1.0000
  C   C3312     1.0  0.96012  0.94997  0.98675  1.0000
  H   H2659     1.0  0.96513  0.96191  0.02505  1.0000
  C   C3313     1.0  0.96369  0.94677  0.00311  1.0000
  C   C3314     1.0  0.97062  0.94868  0.11124  1.0000
  C   C3315     1.0  0.71296  0.87980  0.20982  1.0000
  C   C3316     1.0  0.67028  0.83586  0.17873  1.0000
  H   H2660     1.0  0.80229  0.68567  0.17041  1.0000
  C   C3317     1.0  0.70465  0.86126  0.21874  1.0000
  C   C3318     1.0  0.80678  0.88917  0.18411  1.0000
  C   C3319     1.0  0.65083  0.66871  0.22613  1.0000
  H   H2661     1.0  0.95023  0.82862  0.13546  1.0000
  C   C3320     1.0  0.78451  0.83488  0.19120  1.0000
  H   H2662     1.0  0.52296  0.74503  0.20855  1.0000
  H   H2663     1.0  0.96725  0.79451  0.14185  1.0000
  H   H2664     1.0  0.74502  0.68730  0.17086  1.0000
  C   C3321     1.0  0.82868  0.98176  0.99807  1.0000
  H   H2665     1.0  0.71397  0.91469  0.20813  1.0000
  H   H2666     1.0  0.80535  0.90049  0.20780  1.0000
  C   C3322     1.0  0.89120  0.95734  0.08811  1.0000
  C   C3323     1.0  0.86219  0.89958  0.00603  1.0000
  H   H2667     1.0  0.80127  0.83493  0.18638  1.0000
  C   C3324     1.0  0.86007  0.90491  0.98960  1.0000
  C   C3325     1.0  0.73805  0.69946  0.19420  1.0000
  C   C3326     1.0  0.68997  0.73852  0.22581  1.0000
  H   H2668     1.0  0.81274  0.87633  0.16103  1.0000
  C   C3327     1.0  0.85013  0.91174  0.12250  1.0000
  H   H2669     1.0  0.77418  0.97645  0.00299  1.0000
  H   H2670     1.0  0.99232  0.89673  0.07187  1.0000
  C   C3328     1.0  0.85617  0.94327  0.99393  1.0000
  C   C3329     1.0  0.88977  0.97928  0.00115  1.0000
  H   H2671     1.0  0.94149  0.67545  0.19105  1.0000
  C   C3330     1.0  0.84707  0.82433  0.21955  1.0000
  C   C3331     1.0  0.91906  0.69266  0.22663  1.0000
  C   C3332     1.0  0.89700  0.97854  0.08894  1.0000
  C   C3333     1.0  0.91815  0.98258  0.09154  1.0000
  H   H2672     1.0  0.99318  0.76039  0.08364  1.0000
  H   H2673     1.0  0.96963  0.78124  0.21772  1.0000
  C   C3334     1.0  0.78023  0.76544  0.21144  1.0000
  H   H2674     1.0  0.96737  0.89655  0.10156  1.0000
  C   C3335     1.0  0.79727  0.66938  0.19437  1.0000
  C   C3336     1.0  0.87869  0.70095  0.16863  1.0000
  H   H2675     1.0  0.67994  0.68127  0.19249  1.0000
  H   H2676     1.0  0.64307  0.67103  0.21502  1.0000
  H   H2677     1.0  0.88520  0.99192  0.08698  1.0000
  C   C3337     1.0  0.99219  0.94039  0.10987  1.0000
  C   C3338     1.0  0.83232  0.80813  0.22047  1.0000
  C   C3339     1.0  0.98785  0.79318  0.17798  1.0000
  C   C3340     1.0  0.78618  0.74338  0.21128  1.0000
  H   H2678     1.0  0.96065  0.93597  0.97994  1.0000
  H   H2679     1.0  0.96960  0.98308  0.12853  1.0000
  C   C3341     1.0  0.74893  0.73447  0.21946  1.0000
  H   H2680     1.0  0.86092  0.89215  0.98153  1.0000
  H   H2681     1.0  0.51965  0.68065  0.08057  1.0000
  C   C3342     1.0  0.93487  0.68771  0.21427  1.0000
  H   H2682     1.0  0.95138  0.69191  0.21490  1.0000
  C   C3343     1.0  0.80838  0.97471  0.99565  1.0000
  H   H2683     1.0  0.75436  0.78919  0.21618  1.0000
  H   H2684     1.0  0.94790  0.88872  0.97904  1.0000
  H   H2685     1.0  0.99005  0.90148  0.14158  1.0000
  P   P112      1.0  0.72923  0.71412  0.22501  1.0000
  C   C3344     1.0  0.89185  0.67890  0.21217  1.0000
  H   H2686     1.0  0.87498  0.67646  0.21129  1.0000
  H   H2687     1.0  0.98603  0.78479  0.19000  1.0000
  H   H2688     1.0  0.97835  0.79771  0.07626  1.0000
  C   C3345     1.0  0.85687  0.92662  0.98358  1.0000
  H   H2689     1.0  0.85288  0.85567  0.22671  1.0000
  C   C3346     1.0  0.89755  0.68834  0.22555  1.0000
  S   S445      1.0  0.94741  0.74017  0.22519  1.0000
  C   C3347     1.0  0.69214  0.90282  0.22816  1.0000
  C   C3348     1.0  0.79148  0.99567  0.01697  1.0000
  C   C3349     1.0  0.98221  0.89163  0.97868  1.0000
  Fe  Fe225     1.0  0.85664  0.91608  0.41896  1.0000
  S   S446      1.0  0.88193  0.93736  0.40589  1.0000
  S   S447      1.0  0.86132  0.90351  0.44522  1.0000
  Fe  Fe226     1.0  0.83416  0.91350  0.38768  1.0000
  S   S448      1.0  0.85757  0.93502  0.37282  1.0000
  S   S449      1.0  0.80749  0.89732  0.37694  1.0000
  Fe  Fe227     1.0  0.88310  0.91560  0.38599  1.0000
  S   S450      1.0  0.91419  0.90757  0.37100  1.0000
  Fe  Fe228     1.0  0.85436  0.95515  0.39396  1.0000
  C   C3350     1.0  0.84682  0.76929  0.30324  1.0000
  S   S451      1.0  0.86014  0.89253  0.39966  1.0000
  S   S452      1.0  0.82867  0.93522  0.40817  1.0000
  H   H2690     1.0  0.97536  0.82234  0.30531  1.0000
  H   H2691     1.0  0.83240  0.94175  0.45192  1.0000
  Fe  Fe229     1.0  0.60515  0.71911  0.25680  1.0000
  S   S453      1.0  0.61790  0.71996  0.28073  1.0000
  Fe  Fe230     1.0  0.56494  0.74838  0.26579  1.0000
  S   S454      1.0  0.57597  0.75206  0.29057  1.0000
  Fe  Fe231     1.0  0.60976  0.75615  0.27779  1.0000
  S   S455      1.0  0.63922  0.77409  0.28385  1.0000
  Fe  Fe232     1.0  0.58372  0.71592  0.29170  1.0000
  S   S456      1.0  0.57605  0.68727  0.31061  1.0000
  S   S457      1.0  0.57149  0.71243  0.26762  1.0000
  Fe  Fe233     1.0  0.76378  0.89134  0.28695  1.0000
  S   S458      1.0  0.78079  0.89376  0.26174  1.0000
  S   S459      1.0  0.78711  0.90434  0.30289  1.0000
  Fe  Fe234     1.0  0.72248  0.87541  0.27475  1.0000
  S   S460      1.0  0.73738  0.87852  0.24908  1.0000
  S   S461      1.0  0.68735  0.86435  0.27723  1.0000
  Fe  Fe235     1.0  0.76684  0.86212  0.25917  1.0000
  C   C3351     1.0  0.76488  0.68200  0.25942  1.0000
  Fe  Fe236     1.0  0.74990  0.91037  0.25394  1.0000
  C   C3352     1.0  0.49702  0.66413  0.28416  1.0000
  S   S462      1.0  0.75195  0.85804  0.28483  1.0000
  S   S463      1.0  0.73297  0.90891  0.27906  1.0000
  C   C3353     1.0  0.84600  0.76230  0.31973  1.0000
  C   C3354     1.0  0.88182  0.79519  0.26728  1.0000
  H   H2692     1.0  0.98847  0.80597  0.28007  1.0000
  C   C3355     1.0  0.85667  0.84371  0.26540  1.0000
  C   C3356     1.0  0.64357  0.68138  0.23885  1.0000
  C   C3357     1.0  0.56695  0.68463  0.33158  1.0000
  C   C3358     1.0  0.99233  0.92572  0.47049  1.0000
  H   H2693     1.0  0.98843  0.87889  0.37575  1.0000
  H   H2694     1.0  0.80537  0.86127  0.29236  1.0000
  C   C3359     1.0  0.85829  0.79685  0.32523  1.0000
  H   H2695     1.0  0.74031  0.79167  0.26072  1.0000
  C   C3360     1.0  0.50256  0.76081  0.29290  1.0000
  H   H2696     1.0  0.64855  0.68818  0.26293  1.0000
  C   C3361     1.0  0.88635  0.80005  0.25057  1.0000
  H   H2697     1.0  0.88515  0.69293  0.23481  1.0000
  C   C3362     1.0  0.65236  0.79942  0.28147  1.0000
  C   C3363     1.0  0.67269  0.80018  0.28744  1.0000
  C   C3364     1.0  0.68404  0.81950  0.28560  1.0000
  C   C3365     1.0  0.67497  0.83873  0.27818  1.0000
  C   C3366     1.0  0.65454  0.83803  0.27233  1.0000
  C   C3367     1.0  0.64348  0.81854  0.27374  1.0000
  H   H2698     1.0  0.69952  0.81968  0.29040  1.0000
  H   H2699     1.0  0.64711  0.85275  0.26677  1.0000
  H   H2700     1.0  0.62787  0.81844  0.26913  1.0000
  C   C3368     1.0  0.52898  0.68086  0.29015  1.0000
  C   C3369     1.0  0.74185  0.97765  0.24845  1.0000
  H   H2701     1.0  0.73568  0.96767  0.25904  1.0000
  C   C3370     1.0  0.82993  0.97007  0.33253  1.0000
  H   H2702     1.0  0.85824  0.87771  0.25726  1.0000
  C   C3371     1.0  0.80636  0.82967  0.23700  1.0000
  H   H2703     1.0  0.55055  0.71340  0.36380  1.0000
  H   H2704     1.0  0.93147  0.95324  0.41582  1.0000
  C   C3372     1.0  0.93152  0.87300  0.46778  1.0000
  C   C3373     1.0  0.73650  0.98214  0.29533  1.0000
  H   H2705     1.0  0.91005  0.79866  0.23004  1.0000
  C   C3374     1.0  0.96433  0.94108  0.40946  1.0000
  C   C3375     1.0  0.92294  0.78480  0.25200  1.0000
  S   S464      1.0  0.62159  0.70059  0.23635  1.0000
  C   C3376     1.0  0.80146  0.89997  0.35641  1.0000
  C   C3377     1.0  0.81209  0.91425  0.34470  1.0000
  C   C3378     1.0  0.80710  0.91562  0.32853  1.0000
  C   C3379     1.0  0.79173  0.90249  0.32371  1.0000
  C   C3380     1.0  0.78100  0.88827  0.33540  1.0000
  C   C3381     1.0  0.78580  0.88711  0.35166  1.0000
  H   H2706     1.0  0.82413  0.92424  0.34816  1.0000
  H   H2707     1.0  0.81515  0.92707  0.31973  1.0000
  H   H2708     1.0  0.76906  0.87814  0.33195  1.0000
  H   H2709     1.0  0.77742  0.87605  0.36062  1.0000
  C   C3382     1.0  0.93437  0.89228  0.38104  1.0000
  C   C3383     1.0  0.92937  0.87997  0.39571  1.0000
  C   C3384     1.0  0.94561  0.86686  0.40298  1.0000
  C   C3385     1.0  0.96700  0.86660  0.39591  1.0000
  C   C3386     1.0  0.97204  0.87919  0.38136  1.0000
  C   C3387     1.0  0.95567  0.89175  0.37383  1.0000
  H   H2710     1.0  0.91293  0.88022  0.40129  1.0000
  H   H2711     1.0  0.94164  0.85709  0.41419  1.0000
  H   H2712     1.0  0.92096  0.91965  0.43235  1.0000
  H   H2713     1.0  0.95953  0.90117  0.36244  1.0000
  C   C3388     1.0  0.85119  0.91532  0.46330  1.0000
  H   H2714     1.0  0.81793  0.82277  0.29331  1.0000
  H   H2715     1.0  0.87094  0.83936  0.25773  1.0000
  S   S465      1.0  0.98693  0.85001  0.40536  1.0000
  C   C3389     1.0  0.91608  0.96947  0.37325  1.0000
  H   H2716     1.0  0.68784  0.91878  0.23214  1.0000
  H   H2717     1.0  0.89504  0.78038  0.28910  1.0000
  C   C3390     1.0  0.71114  0.81506  0.23053  1.0000
  H   H2718     1.0  0.88559  0.98028  0.40904  1.0000
  C   C3391     1.0  0.80085  0.77588  0.26074  1.0000
  C   C3392     1.0  0.68975  0.79028  0.24897  1.0000
  C   C3393     1.0  0.72859  0.81020  0.23991  1.0000
  C   C3394     1.0  0.97967  0.92385  0.41221  1.0000
  C   C3395     1.0  0.80793  0.97262  0.33755  1.0000
  H   H2719     1.0  0.53982  0.74899  0.32001  1.0000
  C   C3396     1.0  0.94019  0.90700  0.32682  1.0000
  C   C3397     1.0  0.94296  0.84006  0.45525  1.0000
  C   C3398     1.0  0.84960  0.86562  0.26516  1.0000
  C   C3399     1.0  0.79208  0.98089  0.27540  1.0000
  C   C3400     1.0  0.91303  0.99176  0.36914  1.0000
  H   H2720     1.0  0.86452  0.81993  0.30468  1.0000
  H   H2721     1.0  0.67504  0.72496  0.27171  1.0000
  S   S466      1.0  0.78103  0.83168  0.24829  1.0000
  C   C3401     1.0  0.80726  0.97036  0.24420  1.0000
  C   C3402     1.0  0.55264  0.67845  0.36504  1.0000
  C   C3403     1.0  0.69148  0.80538  0.23542  1.0000
  H   H2722     1.0  0.65371  0.72425  0.31384  1.0000
  C   C3404     1.0  0.81156  0.99035  0.24921  1.0000
  C   C3405     1.0  0.74123  0.69299  0.23825  1.0000
  H   H2723     1.0  0.67734  0.80974  0.22900  1.0000
  H   H2724     1.0  0.98484  0.84782  0.44092  1.0000
  H   H2725     1.0  0.81219  0.96664  0.23192  1.0000
  C   C3406     1.0  0.88416  0.95662  0.47734  1.0000
  C   C3407     1.0  0.79302  0.97836  0.32618  1.0000
  H   H2726     1.0  0.98504  0.89112  0.42276  1.0000
  P   P113      1.0  0.85450  0.79948  0.27646  1.0000
  C   C3408     1.0  0.93743  0.92097  0.42689  1.0000
  H   H2727     1.0  0.61306  0.67087  0.32608  1.0000
  C   C3409     1.0  0.83707  0.97330  0.31611  1.0000
  H   H2728     1.0  0.79914  0.74975  0.24578  1.0000
  C   C3410     1.0  0.75638  0.97388  0.30060  1.0000
  C   C3411     1.0  0.83109  0.87188  0.27482  1.0000
  C   C3412     1.0  0.89828  0.92564  0.32533  1.0000
  C   C3413     1.0  0.90399  0.90601  0.31851  1.0000
  C   C3414     1.0  0.95247  0.90341  0.42880  1.0000
  P   P114      1.0  0.88376  0.89274  0.30956  1.0000
  C   C3415     1.0  0.86539  0.87987  0.32519  1.0000
  C   C3416     1.0  0.87008  0.91325  0.29667  1.0000
  C   C3417     1.0  0.84771  0.91343  0.29568  1.0000
  C   C3418     1.0  0.83753  0.92924  0.28546  1.0000
  C   C3419     1.0  0.84955  0.94490  0.27606  1.0000
  C   C3420     1.0  0.56190  0.70253  0.34048  1.0000
  C   C3421     1.0  0.88204  0.92925  0.28731  1.0000
  C   C3422     1.0  0.86623  0.88313  0.34153  1.0000
  C   C3423     1.0  0.85199  0.87287  0.35342  1.0000
  C   C3424     1.0  0.83682  0.85936  0.34916  1.0000
  C   C3425     1.0  0.83605  0.85580  0.33297  1.0000
  C   C3426     1.0  0.85045  0.86581  0.32105  1.0000
  C   C3427     1.0  0.89610  0.87165  0.29763  1.0000
  C   C3428     1.0  0.89935  0.87505  0.28071  1.0000
  C   C3429     1.0  0.90877  0.85847  0.27168  1.0000
  C   C3430     1.0  0.91501  0.83840  0.27945  1.0000
  C   C3431     1.0  0.91177  0.83483  0.29627  1.0000
  C   C3432     1.0  0.90233  0.85137  0.30534  1.0000
  C   C3433     1.0  0.92505  0.89669  0.31936  1.0000
  C   C3434     1.0  0.80960  0.75902  0.25176  1.0000
  C   C3435     1.0  0.84520  0.82787  0.27531  1.0000
  H   H2729     1.0  0.88192  0.93274  0.32530  1.0000
  C   C3436     1.0  0.62800  0.67695  0.32018  1.0000
  H   H2730     1.0  0.83791  0.90155  0.30278  1.0000
  H   H2731     1.0  0.82021  0.92934  0.28487  1.0000
  H   H2732     1.0  0.78361  0.77991  0.26158  1.0000
  C   C3437     1.0  0.67000  0.74586  0.23309  1.0000
  C   C3438     1.0  0.88981  0.94909  0.46218  1.0000
  H   H2733     1.0  0.87759  0.89369  0.34528  1.0000
  H   H2734     1.0  0.85214  0.87600  0.36596  1.0000
  H   H2735     1.0  0.82518  0.85229  0.35840  1.0000
  H   H2736     1.0  0.82386  0.84580  0.32967  1.0000
  H   H2737     1.0  0.84958  0.86298  0.30855  1.0000
  H   H2738     1.0  0.89457  0.89039  0.27439  1.0000
  S   S467      1.0  0.85086  0.99169  0.38865  1.0000
  H   H2739     1.0  0.92239  0.82565  0.27239  1.0000
  H   H2740     1.0  0.91662  0.81926  0.30229  1.0000
  H   H2741     1.0  0.89994  0.84841  0.31837  1.0000
  H   H2742     1.0  0.80053  0.79845  0.22971  1.0000
  H   H2743     1.0  0.84137  0.96552  0.34141  1.0000
  H   H2744     1.0  0.84089  0.74619  0.32400  1.0000
  C   C3439     1.0  0.81976  0.85634  0.28488  1.0000
  H   H2745     1.0  0.67440  0.78331  0.25295  1.0000
  C   C3440     1.0  0.50647  0.67971  0.29195  1.0000
  C   C3441     1.0  0.99175  0.93744  0.37392  1.0000
  H   H2746     1.0  0.80710  0.80163  0.27445  1.0000
  C   C3442     1.0  0.83686  0.78391  0.26658  1.0000
  C   C3443     1.0  0.51905  0.76390  0.30246  1.0000
  H   H2747     1.0  0.90090  0.88812  0.46155  1.0000
  C   C3444     1.0  0.83758  0.93420  0.46322  1.0000
  H   H2748     1.0  0.93602  0.94396  0.38427  1.0000
  C   C3445     1.0  0.91271  0.87475  0.45979  1.0000
  C   C3446     1.0  0.54187  0.66674  0.28071  1.0000
  C   C3447     1.0  0.55460  0.69943  0.35706  1.0000
  C   C3448     1.0  0.99209  0.89115  0.45938  1.0000
  H   H2749     1.0  0.70587  0.77348  0.26853  1.0000
  C   C3449     1.0  0.78833  0.96060  0.27040  1.0000
  C   C3450     1.0  0.79600  0.95538  0.25488  1.0000
  H   H2750     1.0  0.94768  0.88842  0.43553  1.0000
  H   H2751     1.0  0.75843  0.71506  0.25023  1.0000
  P   P115      1.0  0.78061  0.98845  0.29494  1.0000
  C   C3451     1.0  0.75752  0.95340  0.30936  1.0000
  C   C3452     1.0  0.73910  0.94146  0.31293  1.0000
  C   C3453     1.0  0.71937  0.94981  0.30769  1.0000
  H   H2752     1.0  0.50127  0.66430  0.37030  1.0000
  H   H2753     1.0  0.92110  0.82971  0.43942  1.0000
  H   H2754     1.0  0.95626  0.89960  0.32784  1.0000
  C   C3454     1.0  0.94340  0.93987  0.41739  1.0000
  H   H2755     1.0  0.85412  0.97123  0.31224  1.0000
  C   C3455     1.0  0.69925  0.72099  0.25164  1.0000
  C   C3456     1.0  0.97358  0.90493  0.42157  1.0000
  H   H2756     1.0  0.77576  0.68617  0.26783  1.0000
  S   S468      1.0  0.59815  0.75521  0.25307  1.0000
  H   H2757     1.0  0.62040  0.70885  0.32797  1.0000
  C   C3457     1.0  0.70748  0.78487  0.25785  1.0000
  C   C3458     1.0  0.94869  0.97549  0.38558  1.0000
  H   H2758     1.0  0.52492  0.71309  0.32115  1.0000
  H   H2759     1.0  0.77908  0.94891  0.27827  1.0000
  H   H2760     1.0  0.79233  0.94006  0.25089  1.0000
  C   C3459     1.0  0.90905  0.85929  0.44946  1.0000
  C   C3460     1.0  0.72683  0.79504  0.25344  1.0000
  C   C3461     1.0  0.83065  0.94333  0.47784  1.0000
  H   H2761     1.0  0.77274  0.94632  0.31315  1.0000
  H   H2762     1.0  0.74031  0.92549  0.31946  1.0000
  H   H2763     1.0  0.70519  0.94035  0.31023  1.0000
  C   C3462     1.0  0.75121  0.96775  0.23487  1.0000
  H   H2764     1.0  0.94583  0.93413  0.33986  1.0000
  C   C3463     1.0  0.66469  0.74087  0.24961  1.0000
  C   C3464     1.0  0.91860  0.77975  0.26864  1.0000
  H   H2765     1.0  0.67225  0.88631  0.24752  1.0000
  C   C3465     1.0  0.82220  0.97909  0.30471  1.0000
  H   H2766     1.0  0.59836  0.67309  0.26276  1.0000
  C   C3466     1.0  0.85314  0.79023  0.29769  1.0000
  H   H2767     1.0  0.91120  0.86114  0.25862  1.0000
  C   C3467     1.0  0.82098  0.84602  0.23591  1.0000
  H   H2768     1.0  0.61271  0.67131  0.28923  1.0000
  H   H2769     1.0  0.49706  0.77399  0.28453  1.0000
  H   H2770     1.0  0.81669  0.86054  0.24195  1.0000
  H   H2771     1.0  0.67977  0.78566  0.29354  1.0000
  C   C3468     1.0  0.93394  0.96132  0.38128  1.0000
  H   H2772     1.0  0.64917  0.74651  0.25524  1.0000
  C   C3469     1.0  0.73694  0.67119  0.23757  1.0000
  H   H2773     1.0  0.93861  0.78023  0.24600  1.0000
  C   C3470     1.0  0.89814  0.78495  0.27629  1.0000
  H   H2774     1.0  0.86257  0.80757  0.33377  1.0000
  C   C3471     1.0  0.84546  0.76660  0.25776  1.0000
  H   H2775     1.0  0.84156  0.95703  0.26811  1.0000
  H   H2776     1.0  0.67992  0.70099  0.29792  1.0000
  C   C3472     1.0  0.65086  0.70727  0.31330  1.0000
  C   C3473     1.0  0.75509  0.69832  0.24938  1.0000
  H   H2777     1.0  0.89932  0.92948  0.28788  1.0000
  C   C3474     1.0  0.49811  0.66992  0.35799  1.0000
  H   H2778     1.0  0.55928  0.66758  0.27969  1.0000
  C   C3475     1.0  0.81438  0.78834  0.26803  1.0000
  C   C3476     1.0  0.50934  0.75205  0.25086  1.0000
  C   C3477     1.0  0.98164  0.98346  0.40852  1.0000
  H   H2779     1.0  0.70284  0.97645  0.29460  1.0000
  H   H2780     1.0  0.89484  0.93218  0.46122  1.0000
  H   H2781     1.0  0.88112  0.95722  0.26983  1.0000
  C   C3478     1.0  0.82685  0.83448  0.28523  1.0000
  H   H2782     1.0  0.71007  0.71102  0.25900  1.0000
  C   C3479     1.0  0.96874  0.83311  0.33797  1.0000
  C   C3480     1.0  0.81196  0.81094  0.22905  1.0000
  C   C3481     1.0  0.52682  0.74668  0.31275  1.0000
  H   H2783     1.0  0.84242  0.75837  0.29491  1.0000
  C   C3482     1.0  0.85925  0.80383  0.30876  1.0000
  C   C3483     1.0  0.65382  0.67836  0.25313  1.0000
  C   C3484     1.0  0.71807  0.97014  0.29889  1.0000
  C   C3485     1.0  0.95632  0.81550  0.33632  1.0000
  C   C3486     1.0  0.93398  0.81673  0.34056  1.0000
  C   C3487     1.0  0.92397  0.83539  0.34676  1.0000
  C   C3488     1.0  0.93630  0.85277  0.34878  1.0000
  C   C3489     1.0  0.95862  0.85157  0.34457  1.0000
  H   H2784     1.0  0.98146  0.71857  0.24282  1.0000
  H   H2785     1.0  0.90434  0.95850  0.37056  1.0000
  H   H2786     1.0  0.53667  0.69250  0.29617  1.0000
  H   H2787     1.0  0.97967  0.92610  0.37855  1.0000
  H   H2788     1.0  0.82530  0.88876  0.27444  1.0000
  H   H2789     1.0  0.86264  0.76243  0.25654  1.0000
  C   C3490     1.0  0.88826  0.96320  0.44822  1.0000
  H   H2790     1.0  0.87377  0.80706  0.24330  1.0000
  H   H2791     1.0  0.96400  0.80064  0.33212  1.0000
  H   H2792     1.0  0.92453  0.80297  0.33947  1.0000
  H   H2793     1.0  0.90677  0.83621  0.35044  1.0000
  H   H2794     1.0  0.92863  0.86697  0.35407  1.0000
  C   C3491     1.0  0.94712  0.85603  0.46519  1.0000
  C   C3492     1.0  0.80002  0.98147  0.30963  1.0000
  H   H2795     1.0  0.95421  0.82625  0.45358  1.0000
  C   C3493     1.0  0.85162  0.77610  0.33072  1.0000
  S   S469      1.0  0.53265  0.76364  0.25701  1.0000
  P   P116      1.0  0.97157  0.96475  0.39615  1.0000
  C   C3494     1.0  0.83190  0.75442  0.25025  1.0000
  H   H2796     1.0  0.89238  0.95732  0.43646  1.0000
  H   H2797     1.0  0.89444  0.86083  0.44324  1.0000
  C   C3495     1.0  0.98657  0.73468  0.23871  1.0000
  H   H2798     1.0  0.85077  0.77071  0.34351  1.0000
  C   C3496     1.0  0.92407  0.84182  0.44732  1.0000
  C   C3497     1.0  0.99222  0.81715  0.30330  1.0000
  C   C3498     1.0  0.91345  0.93588  0.33276  1.0000
  C   C3499     1.0  0.66553  0.69419  0.30425  1.0000
  H   H2799     1.0  0.92343  0.70051  0.23679  1.0000
  H   H2800     1.0  0.90877  0.95061  0.33852  1.0000
  C   C3500     1.0  0.51828  0.72631  0.31334  1.0000
  H   H2801     1.0  0.83874  0.74149  0.24311  1.0000
  C   C3501     1.0  0.93439  0.92657  0.33352  1.0000
  H   H2802     1.0  0.92980  0.88138  0.31452  1.0000
  C   C3502     1.0  0.85762  0.90571  0.47818  1.0000
  H   H2803     1.0  0.52617  0.77951  0.30158  1.0000
  C   C3503     1.0  0.63213  0.69861  0.32129  1.0000
  C   C3504     1.0  0.67938  0.72868  0.25891  1.0000
  H   H2804     1.0  0.74356  0.81812  0.23694  1.0000
  C   C3505     1.0  0.87180  0.94497  0.27705  1.0000
  H   H2805     1.0  0.56355  0.71874  0.33461  1.0000
  H   H2806     1.0  0.96797  0.86479  0.34701  1.0000
  H   H2807     1.0  0.93039  0.92243  0.47574  1.0000
  H   H2808     1.0  0.98579  0.87164  0.31560  1.0000
  H   H2809     1.0  0.93101  0.77132  0.27549  1.0000
  H   H2810     1.0  0.77601  0.98017  0.33032  1.0000
  H   H2811     1.0  0.68312  0.84990  0.23951  1.0000
  H   H2812     1.0  0.80241  0.96987  0.35028  1.0000
  C   C3506     1.0  0.90686  0.79511  0.24301  1.0000
  C   C3507     1.0  0.99332  0.83820  0.46527  1.0000
  C   C3508     1.0  0.70465  0.72575  0.23498  1.0000
  H   H2813     1.0  0.52271  0.71920  0.25095  1.0000
  S   S470      1.0  0.75307  0.93888  0.23408  1.0000
  C   C3509     1.0  0.50157  0.72305  0.30383  1.0000
  H   H2814     1.0  0.82806  0.98162  0.29210  1.0000
  S   S471      1.0  0.54295  0.67560  0.38592  1.0000
  H   H2815     1.0  0.94155  0.95854  0.46393  1.0000
  C   C3510     1.0  0.50881  0.73000  0.24859  1.0000
  P   P117      1.0  0.97184  0.85490  0.47498  1.0000
  H   H2816     1.0  0.81991  0.95772  0.47762  1.0000
  C   C3511     1.0  0.68966  0.86380  0.23223  1.0000
  C   C3512     1.0  0.88593  0.99727  0.40514  1.0000
  C   C3513     1.0  0.99177  0.95759  0.38023  1.0000
  C   C3514     1.0  0.88061  0.98471  0.44942  1.0000
  C   C3515     1.0  0.66136  0.67253  0.30302  1.0000
  C   C3516     1.0  0.93823  0.95542  0.47691  1.0000
  C   C3517     1.0  0.68338  0.88453  0.23683  1.0000
  H   H2817     1.0  0.93386  0.88485  0.47599  1.0000
  C   C3518     1.0  0.97299  0.74901  0.22954  1.0000
  C   C3519     1.0  0.98021  0.88251  0.47346  1.0000
  C   C3520     1.0  0.87401  0.99215  0.46457  1.0000
  H   H2818     1.0  0.72611  0.66662  0.22926  1.0000
  C   C3521     1.0  0.80426  0.99551  0.26482  1.0000
  H   H2819     1.0  0.87933  0.99538  0.43852  1.0000
  C   C3522     1.0  0.50186  0.66471  0.32944  1.0000
  Fe  Fe237     1.0  0.84349  0.93493  0.53458  1.0000
  S   S472      1.0  0.87734  0.94368  0.53682  1.0000
  S   S473      1.0  0.82966  0.94679  0.51071  1.0000
  Fe  Fe238     1.0  0.83905  0.91079  0.56863  1.0000
  S   S474      1.0  0.87312  0.91699  0.57250  1.0000
  S   S475      1.0  0.82209  0.88934  0.58942  1.0000
  Fe  Fe239     1.0  0.86556  0.95092  0.56201  1.0000
  Fe  Fe240     1.0  0.88242  0.90941  0.54710  1.0000
  S   S476      1.0  0.91330  0.89204  0.53741  1.0000
  S   S477      1.0  0.83079  0.94542  0.55933  1.0000
  S   S478      1.0  0.84907  0.89986  0.54370  1.0000
  H   H2820     1.0  0.87608  0.83071  0.69766  1.0000
  Fe  Fe241     1.0  0.60357  0.75531  0.69759  1.0000
  H   H2821     1.0  0.51903  0.76854  0.68232  1.0000
  S   S479      1.0  0.63085  0.77746  0.68598  1.0000
  Fe  Fe242     1.0  0.57835  0.71613  0.68986  1.0000
  S   S480      1.0  0.56350  0.71128  0.71566  1.0000
  S   S481      1.0  0.56618  0.69031  0.67530  1.0000
  Fe  Fe243     1.0  0.55759  0.74722  0.71436  1.0000
  C   C3523     1.0  0.96537  0.78685  0.70761  1.0000
  C   C3524     1.0  0.75274  0.99058  0.60125  1.0000
  H   H2822     1.0  0.51950  0.70141  0.67430  1.0000
  S   S482      1.0  0.57092  0.75241  0.68812  1.0000
  S   S483      1.0  0.61174  0.71905  0.69757  1.0000
  Fe  Fe244     1.0  0.71180  0.87687  0.69590  1.0000
  S   S484      1.0  0.67883  0.86112  0.70204  1.0000
  Fe  Fe245     1.0  0.74658  0.90013  0.67248  1.0000
  S   S485      1.0  0.76967  0.90022  0.69151  1.0000
  S   S486      1.0  0.75433  0.91765  0.64731  1.0000
  Fe  Fe246     1.0  0.76011  0.86598  0.69895  1.0000
  H   H2823     1.0  0.92206  0.91524  0.50545  1.0000
  Fe  Fe247     1.0  0.74045  0.91121  0.70766  1.0000
  H   H2824     1.0  0.95585  0.89300  0.62599  1.0000
  S   S487      1.0  0.73894  0.86514  0.67864  1.0000
  S   S488      1.0  0.71753  0.91246  0.68830  1.0000
  H   H2825     1.0  0.79105  0.77226  0.69084  1.0000
  C   C3525     1.0  0.87203  0.85531  0.65838  1.0000
  H   H2826     1.0  0.89610  0.83180  0.62560  1.0000
  C   C3526     1.0  0.87714  0.83978  0.64736  1.0000
  H   H2827     1.0  0.53289  0.66851  0.49646  1.0000
  H   H2828     1.0  0.85986  0.85231  0.66845  1.0000
  H   H2829     1.0  0.87704  0.87067  0.60655  1.0000
  H   H2830     1.0  0.95933  0.72959  0.70249  1.0000
  C   C3527     1.0  0.56721  0.68297  0.65503  1.0000
  H   H2831     1.0  0.98060  0.94158  0.55277  1.0000
  H   H2832     1.0  0.91805  0.99508  0.55051  1.0000
  S   S489      1.0  0.99506  0.89671  0.57607  1.0000
  C   C3528     1.0  0.58017  0.68677  0.62639  1.0000
  C   C3529     1.0  0.57982  0.69345  0.64214  1.0000
  C   C3530     1.0  0.52084  0.73524  0.67675  1.0000
  C   C3531     1.0  0.97431  0.89586  0.48602  1.0000
  H   H2833     1.0  0.59003  0.69500  0.61656  1.0000
  H   H2834     1.0  0.58933  0.70668  0.64429  1.0000
  C   C3532     1.0  0.64384  0.80084  0.69075  1.0000
  C   C3533     1.0  0.63634  0.81268  0.70382  1.0000
  C   C3534     1.0  0.64721  0.83097  0.70702  1.0000
  C   C3535     1.0  0.66607  0.83753  0.69750  1.0000
  C   C3536     1.0  0.67390  0.82537  0.68467  1.0000
  C   C3537     1.0  0.66273  0.80741  0.68121  1.0000
  H   H2835     1.0  0.62193  0.80798  0.71134  1.0000
  H   H2836     1.0  0.85033  0.99336  0.63319  1.0000
  H   H2837     1.0  0.68845  0.82998  0.67735  1.0000
  H   H2838     1.0  0.66885  0.79843  0.67111  1.0000
  C   C3538     1.0  0.98056  0.91728  0.48457  1.0000
  H   H2839     1.0  0.67386  0.77009  0.70096  1.0000
  C   C3539     1.0  0.71858  0.68507  0.71789  1.0000
  S   S490      1.0  0.78156  0.83494  0.70307  1.0000
  C   C3540     1.0  0.88739  0.86510  0.59642  1.0000
  H   H2840     1.0  0.87835  0.88692  0.66483  1.0000
  H   H2841     1.0  0.71330  0.66526  0.67260  1.0000
  S   S491      1.0  0.88129  0.97492  0.57512  1.0000
  C   C3541     1.0  0.88585  0.81905  0.70472  1.0000
  H   H2842     1.0  0.96957  0.95707  0.52611  1.0000
  C   C3542     1.0  0.65249  0.67632  0.68594  1.0000
  P   P118      1.0  0.80806  0.98286  0.62455  1.0000
  H   H2843     1.0  0.96865  0.75717  0.67508  1.0000
  C   C3543     1.0  0.80419  0.89810  0.60578  1.0000
  C   C3544     1.0  0.80107  0.88420  0.62010  1.0000
  C   C3545     1.0  0.78624  0.89013  0.63306  1.0000
  C   C3546     1.0  0.77387  0.90974  0.63164  1.0000
  C   C3547     1.0  0.77689  0.92354  0.61728  1.0000
  C   C3548     1.0  0.79211  0.91787  0.60450  1.0000
  H   H2844     1.0  0.81020  0.86879  0.62118  1.0000
  H   H2845     1.0  0.78427  0.87951  0.64410  1.0000
  H   H2846     1.0  0.76732  0.93868  0.61598  1.0000
  H   H2847     1.0  0.79406  0.92848  0.59346  1.0000
  C   C3549     1.0  0.93625  0.89478  0.54762  1.0000
  C   C3550     1.0  0.95642  0.88616  0.54151  1.0000
  C   C3551     1.0  0.97469  0.88671  0.55006  1.0000
  C   C3552     1.0  0.97279  0.89605  0.56475  1.0000
  C   C3553     1.0  0.95278  0.90518  0.57060  1.0000
  C   C3554     1.0  0.93457  0.90468  0.56205  1.0000
  H   H2848     1.0  0.95780  0.87894  0.53018  1.0000
  C   C3555     1.0  0.81079  0.80994  0.72048  1.0000
  H   H2849     1.0  0.95144  0.91270  0.58178  1.0000
  H   H2850     1.0  0.91921  0.91167  0.56674  1.0000
  C   C3556     1.0  0.83762  0.93406  0.49265  1.0000
  C   C3557     1.0  0.78886  0.98249  0.60972  1.0000
  H   H2851     1.0  0.73621  0.99673  0.60380  1.0000
  H   H2852     1.0  0.96476  0.88987  0.49691  1.0000
  H   H2853     1.0  0.85645  0.90763  0.50399  1.0000
  H   H2854     1.0  0.90059  0.90742  0.59867  1.0000
  C   C3558     1.0  0.94949  0.92643  0.61778  1.0000
  C   C3559     1.0  0.77074  0.85826  0.59444  1.0000
  C   C3560     1.0  0.76439  0.87881  0.58753  1.0000
  C   C3561     1.0  0.74452  0.88871  0.59281  1.0000
  C   C3562     1.0  0.73112  0.87822  0.60520  1.0000
  C   C3563     1.0  0.73784  0.85800  0.61273  1.0000
  C   C3564     1.0  0.75739  0.84772  0.60683  1.0000
  P   P119      1.0  0.72087  0.84454  0.62902  1.0000
  C   C3565     1.0  0.73640  0.83021  0.64425  1.0000
  C   C3566     1.0  0.70371  0.86355  0.64016  1.0000
  C   C3567     1.0  0.68372  0.85746  0.64802  1.0000
  C   C3568     1.0  0.67139  0.87151  0.65789  1.0000
  C   C3569     1.0  0.67893  0.89167  0.65999  1.0000
  C   C3570     1.0  0.69877  0.89784  0.65218  1.0000
  C   C3571     1.0  0.71127  0.88370  0.64253  1.0000
  C   C3572     1.0  0.72670  0.81452  0.65547  1.0000
  C   C3573     1.0  0.73776  0.80496  0.66837  1.0000
  C   C3574     1.0  0.75854  0.81105  0.67017  1.0000
  C   C3575     1.0  0.76831  0.82660  0.65906  1.0000
  C   C3576     1.0  0.75721  0.83633  0.64625  1.0000
  C   C3577     1.0  0.70499  0.82649  0.62008  1.0000
  C   C3578     1.0  0.68592  0.83443  0.61338  1.0000
  C   C3579     1.0  0.67347  0.82046  0.60650  1.0000
  C   C3580     1.0  0.68016  0.79856  0.60605  1.0000
  C   C3581     1.0  0.69941  0.79066  0.61236  1.0000
  C   C3582     1.0  0.71188  0.80460  0.61927  1.0000
  H   H2855     1.0  0.78628  0.85080  0.59036  1.0000
  H   H2856     1.0  0.77507  0.88716  0.57822  1.0000
  H   H2857     1.0  0.73966  0.90466  0.58744  1.0000
  H   H2858     1.0  0.71571  0.88610  0.60901  1.0000
  H   H2859     1.0  0.76254  0.83178  0.61201  1.0000
  H   H2860     1.0  0.67793  0.84160  0.64705  1.0000
  H   H2861     1.0  0.65635  0.86645  0.66441  1.0000
  H   H2862     1.0  0.66966  0.90224  0.66804  1.0000
  H   H2863     1.0  0.70486  0.91332  0.65398  1.0000
  H   H2864     1.0  0.72706  0.88830  0.63724  1.0000
  H   H2865     1.0  0.71031  0.81023  0.65457  1.0000
  H   H2866     1.0  0.72997  0.79335  0.67726  1.0000
  H   H2867     1.0  0.76680  0.80444  0.68050  1.0000
  H   H2868     1.0  0.78403  0.83196  0.66091  1.0000
  H   H2869     1.0  0.76452  0.84929  0.63839  1.0000
  H   H2870     1.0  0.68061  0.85140  0.61355  1.0000
  H   H2871     1.0  0.65861  0.82661  0.60153  1.0000
  H   H2872     1.0  0.67044  0.78774  0.60077  1.0000
  H   H2873     1.0  0.70467  0.77372  0.61188  1.0000
  H   H2874     1.0  0.72687  0.79828  0.62394  1.0000
  H   H2875     1.0  0.84729  0.97226  0.60372  1.0000
  C   C3583     1.0  0.92721  0.93102  0.50025  1.0000
  C   C3584     1.0  0.94354  0.72641  0.70853  1.0000
  C   C3585     1.0  0.96626  0.84506  0.49598  1.0000
  C   C3586     1.0  0.93195  0.98369  0.55065  1.0000
  C   C3587     1.0  0.77684  0.74122  0.69583  1.0000
  C   C3588     1.0  0.94044  0.70619  0.71718  1.0000
  C   C3589     1.0  0.56789  0.66960  0.62323  1.0000
  C   C3590     1.0  0.76117  0.72923  0.70532  1.0000
  H   H2876     1.0  0.95587  0.82274  0.54110  1.0000
  H   H2877     1.0  0.76582  0.98216  0.68845  1.0000
  C   C3591     1.0  0.90624  0.73760  0.71620  1.0000
  H   H2878     1.0  0.93173  0.79171  0.63820  1.0000
  C   C3592     1.0  0.92272  0.85614  0.58312  1.0000
  C   C3593     1.0  0.91311  0.85206  0.56937  1.0000
  C   C3594     1.0  0.89073  0.85456  0.56910  1.0000
  C   C3595     1.0  0.87787  0.86089  0.58267  1.0000
  H   H2879     1.0  0.94010  0.85468  0.58265  1.0000
  H   H2880     1.0  0.92310  0.84789  0.55862  1.0000
  H   H2881     1.0  0.88341  0.85220  0.55820  1.0000
  H   H2882     1.0  0.86052  0.86314  0.58232  1.0000
  C   C3596     1.0  0.85109  0.91510  0.49272  1.0000
  H   H2883     1.0  0.75993  0.71239  0.70332  1.0000
  H   H2884     1.0  0.71893  0.97143  0.70839  1.0000
  H   H2885     1.0  0.66021  0.70970  0.68597  1.0000
  C   C3597     1.0  0.94327  0.97764  0.53624  1.0000
  C   C3598     1.0  0.74750  0.73895  0.71730  1.0000
  Fe  Fe248     1.0  0.59622  0.71673  0.72305  1.0000
  C   C3599     1.0  0.96718  0.95350  0.55204  1.0000
  H   H2886     1.0  0.92933  0.81746  0.52170  1.0000
  H   H2887     1.0  0.96954  0.81009  0.63968  1.0000
  C   C3600     1.0  0.92531  0.78056  0.64803  1.0000
  C   C3601     1.0  0.85690  0.93924  0.61075  1.0000
  C   C3602     1.0  0.76749  0.99082  0.61281  1.0000
  H   H2888     1.0  0.96323  0.93183  0.62299  1.0000
  C   C3603     1.0  0.89252  0.84384  0.63419  1.0000
  C   C3604     1.0  0.82563  0.95853  0.62353  1.0000
  C   C3605     1.0  0.82124  0.93967  0.63381  1.0000
  C   C3606     1.0  0.76695  0.96948  0.66526  1.0000
  H   H2889     1.0  0.89232  0.73837  0.65519  1.0000
  C   C3607     1.0  0.79046  0.99650  0.67139  1.0000
  C   C3608     1.0  0.99519  0.77195  0.68329  1.0000
  H   H2890     1.0  0.87046  0.93914  0.60163  1.0000
  H   H2891     1.0  0.87202  0.98356  0.49032  1.0000
  C   C3609     1.0  0.91141  0.76497  0.64495  1.0000
  S   S492      1.0  0.73271  0.87654  0.71646  1.0000
  C   C3610     1.0  0.76507  0.77286  0.70983  1.0000
  C   C3611     1.0  0.88243  0.87483  0.65631  1.0000
  H   H2892     1.0  0.75407  0.95856  0.66899  1.0000
  C   C3612     1.0  0.90314  0.75045  0.65756  1.0000
  C   C3613     1.0  0.94386  0.82587  0.51758  1.0000
  H   H2893     1.0  0.98913  0.84212  0.53162  1.0000
  C   C3614     1.0  0.98596  0.82718  0.61888  1.0000
  C   C3615     1.0  0.55499  0.66576  0.65189  1.0000
  H   H2894     1.0  0.70512  0.69400  0.71261  1.0000
  H   H2895     1.0  0.85605  0.99543  0.51908  1.0000
  C   C3616     1.0  0.91263  0.78875  0.70630  1.0000
  C   C3617     1.0  0.95831  0.77469  0.69600  1.0000
  H   H2896     1.0  0.93934  0.95855  0.60803  1.0000
  C   C3618     1.0  0.75929  0.98240  0.58643  1.0000
  C   C3619     1.0  0.70064  0.73277  0.72554  1.0000
  H   H2897     1.0  0.89193  0.97717  0.51350  1.0000
  C   C3620     1.0  0.65859  0.74658  0.71823  1.0000
  H   H2898     1.0  0.63552  0.67973  0.68937  1.0000
  C   C3621     1.0  0.73201  0.69505  0.72720  1.0000
  C   C3622     1.0  0.89789  0.87892  0.64320  1.0000
  C   C3623     1.0  0.84364  0.95813  0.61201  1.0000
  C   C3624     1.0  0.91422  0.91249  0.60411  1.0000
  C   C3625     1.0  0.94532  0.90439  0.61937  1.0000
  C   C3626     1.0  0.98466  0.84435  0.60681  1.0000
  H   H2899     1.0  0.93606  0.83102  0.49302  1.0000
  H   H2900     1.0  0.90142  0.80463  0.68408  1.0000
  H   H2901     1.0  0.58267  0.66913  0.56747  1.0000
  H   H2902     1.0  0.78752  0.73359  0.68673  1.0000
  H   H2903     1.0  0.86895  0.82472  0.64890  1.0000
  C   C3627     1.0  0.85232  0.92051  0.62089  1.0000
  P   P120      1.0  0.93585  0.98963  0.51679  1.0000
  C   C3628     1.0  0.97348  0.76708  0.68392  1.0000
  C   C3629     1.0  0.79424  0.98351  0.64464  1.0000
  H   H2904     1.0  0.69916  0.70260  0.67768  1.0000
  C   C3630     1.0  0.87664  0.97815  0.47853  1.0000
  C   C3631     1.0  0.80079  0.99689  0.65568  1.0000
  C   C3632     1.0  0.51114  0.71537  0.67940  1.0000
  C   C3633     1.0  0.96080  0.96223  0.53705  1.0000
  C   C3634     1.0  0.51109  0.75333  0.68384  1.0000
  H   H2905     1.0  0.83068  0.90617  0.64014  1.0000
  H   H2906     1.0  0.92476  0.94405  0.52321  1.0000
  C   C3635     1.0  0.94768  0.83373  0.50132  1.0000
  H   H2907     1.0  0.96078  0.95266  0.57783  1.0000
  H   H2908     1.0  0.99258  0.80079  0.71601  1.0000
  C   C3636     1.0  0.93189  0.93502  0.48357  1.0000
  H   H2909     1.0  0.95378  0.69414  0.71782  1.0000
  C   C3637     1.0  0.93968  0.97195  0.48691  1.0000
  C   C3638     1.0  0.68839  0.68936  0.67925  1.0000
  S   S493      1.0  0.74462  0.93633  0.72589  1.0000
  C   C3639     1.0  0.77710  0.96998  0.64954  1.0000
  C   C3640     1.0  0.91048  0.78865  0.72321  1.0000
  C   C3641     1.0  0.83457  0.92078  0.63248  1.0000
  C   C3642     1.0  0.96823  0.82315  0.63015  1.0000
  H   H2910     1.0  0.81187  0.96866  0.59176  1.0000
  H   H2911     1.0  0.57202  0.66613  0.70712  1.0000
  C   C3643     1.0  0.72565  0.97817  0.71813  1.0000
  C   C3644     1.0  0.51250  0.67778  0.71412  1.0000
  H   H2912     1.0  0.77180  0.95948  0.64127  1.0000
  C   C3645     1.0  0.79541  0.97474  0.59465  1.0000
  C   C3646     1.0  0.92775  0.89722  0.61239  1.0000
  H   H2913     1.0  0.94416  0.98763  0.48134  1.0000
  H   H2914     1.0  0.74786  0.98215  0.57750  1.0000
  C   C3647     1.0  0.78065  0.97462  0.58311  1.0000
  P   P121      1.0  0.92218  0.86879  0.61455  1.0000
  C   C3648     1.0  0.90293  0.86349  0.63196  1.0000
  H   H2915     1.0  0.90561  0.89422  0.64181  1.0000
  H   H2916     1.0  0.90223  0.73998  0.68280  1.0000
  C   C3649     1.0  0.90996  0.86272  0.59681  1.0000
  H   H2917     1.0  0.86225  0.90571  0.61955  1.0000
  C   C3650     1.0  0.92650  0.74235  0.70808  1.0000
  C   C3651     1.0  0.77884  0.76299  0.69813  1.0000
  C   C3652     1.0  0.97745  0.83978  0.52322  1.0000
  H   H2918     1.0  0.72874  0.82557  0.70573  1.0000
  C   C3653     1.0  0.92877  0.94747  0.51031  1.0000
  C   C3654     1.0  0.93828  0.97470  0.56558  1.0000
  H   H2919     1.0  0.83478  0.98892  0.48541  1.0000
  H   H2920     1.0  0.89278  0.74954  0.71602  1.0000
  C   C3655     1.0  0.95878  0.82884  0.52852  1.0000
  H   H2921     1.0  0.97609  0.92740  0.49437  1.0000
  C   C3656     1.0  0.66646  0.69336  0.68394  1.0000
  C   C3657     1.0  0.96549  0.85723  0.60585  1.0000
  C   C3658     1.0  0.94892  0.83585  0.62907  1.0000
  H   H2922     1.0  0.96484  0.87059  0.59651  1.0000
  H   H2923     1.0  0.93545  0.83245  0.63794  1.0000
  C   C3659     1.0  0.98098  0.84813  0.50709  1.0000
  C   C3660     1.0  0.93607  0.94148  0.60936  1.0000
  C   C3661     1.0  0.94725  0.85274  0.61667  1.0000
  H   H2924     1.0  0.52242  0.68837  0.70581  1.0000
  H   H2925     1.0  0.63970  0.68722  0.71857  1.0000
  C   C3662     1.0  0.69633  0.66834  0.67642  1.0000
  H   H2926     1.0  0.90835  0.94615  0.59569  1.0000
  H   H2927     1.0  0.90707  0.76410  0.63279  1.0000
  H   H2928     1.0  0.80698  0.99327  0.50785  1.0000
  C   C3663     1.0  0.89087  0.99342  0.51723  1.0000
  C   C3664     1.0  0.74958  0.76086  0.71949  1.0000
  P   P122      1.0  0.93020  0.76841  0.69670  1.0000
  C   C3665     1.0  0.95595  0.95974  0.56627  1.0000
  H   H2929     1.0  0.80732  0.93916  0.64262  1.0000
  C   C3666     1.0  0.90324  0.71742  0.72490  1.0000
  H   H2930     1.0  0.64236  0.75204  0.71547  1.0000
  C   C3667     1.0  0.92313  0.76676  0.67639  1.0000
  H   H2931     1.0  0.94169  0.79388  0.66595  1.0000
  H   H2932     1.0  0.53626  0.73638  0.66955  1.0000
  C   C3668     1.0  0.91850  0.93450  0.60249  1.0000
  C   C3669     1.0  0.93103  0.78160  0.66371  1.0000
  C   C3670     1.0  0.90888  0.75137  0.67324  1.0000
  H   H2933     1.0  0.92920  0.97913  0.57662  1.0000
  H   H2934     1.0  0.76649  0.78985  0.71141  1.0000
  C   C3671     1.0  0.70442  0.80605  0.71912  1.0000
  C   C3672     1.0  0.77363  0.98272  0.67620  1.0000
  H   H2935     1.0  0.64091  0.84013  0.71700  1.0000
  C   C3673     1.0  0.93499  0.96813  0.50373  1.0000
  C   C3674     1.0  0.88374  0.81871  0.72154  1.0000
  S   S494      1.0  0.58958  0.75278  0.72362  1.0000
  H   H2936     1.0  0.78580  0.96835  0.57159  1.0000
  H   H2937     1.0  0.71062  0.75844  0.70722  1.0000
  C   C3675     1.0  0.90027  0.80417  0.69709  1.0000
  H   H2938     1.0  0.95432  0.79237  0.71736  1.0000
  S   S495      1.0  0.52524  0.76284  0.72444  1.0000
  C   C3676     1.0  0.92036  0.70175  0.72545  1.0000
  C   C3677     1.0  0.67635  0.75687  0.71013  1.0000
  C   C3678     1.0  0.69727  0.75011  0.71377  1.0000
  H   H2939     1.0  0.80880  0.79768  0.71249  1.0000
  C   C3679     1.0  0.79921  0.83012  0.71858  1.0000
  H   H2940     1.0  0.99531  0.85687  0.50320  1.0000
  C   C3680     1.0  0.98710  0.79169  0.70691  1.0000
  H   H2941     1.0  0.69641  0.80368  0.70858  1.0000
  H   H2942     1.0  0.99017  0.87986  0.54533  1.0000
  C   C3681     1.0  0.72264  0.81834  0.71752  1.0000
  H   H2943     1.0  0.62254  0.66577  0.56242  1.0000
  H   H2944     1.0  0.88495  0.94561  0.48820  1.0000
  H   H2945     1.0  0.79340  0.86156  0.72749  1.0000
  H   H2946     1.0  0.87237  0.83004  0.72750  1.0000
  C   C3682     1.0  0.52106  0.66809  0.72812  1.0000
  C   C3683     1.0  0.73869  0.96477  0.72818  1.0000
  H   H2947     1.0  0.57393  0.67116  0.47857  1.0000
  H   H2948     1.0  0.86778  0.89092  0.47851  1.0000
  Fe  Fe249     1.0  0.94052  0.89332  0.89302  1.0000
  S   S496      1.0  0.91140  0.87338  0.89578  1.0000
  S   S497      1.0  0.94302  0.92967  0.88807  1.0000
  Fe  Fe250     1.0  0.97103  0.85372  0.89950  1.0000
  S   S498      1.0  0.94439  0.83038  0.90325  1.0000
  C   C3684     1.0  0.49668  0.69300  0.79152  1.0000
  Fe  Fe251     1.0  0.93165  0.84916  0.88125  1.0000
  S   S499      1.0  0.92657  0.83693  0.85688  1.0000
  Fe  Fe252     1.0  0.92631  0.85625  0.91760  1.0000
  S   S500      1.0  0.90717  0.85484  0.94242  1.0000
  S   S501      1.0  0.95966  0.87094  0.87694  1.0000
  S   S502      1.0  0.95397  0.87769  0.91543  1.0000
  C   C3685     1.0  0.95155  0.83909  0.97518  1.0000
  Fe  Fe253     1.0  0.87543  0.76200  0.79910  1.0000
  S   S503      1.0  0.89224  0.78260  0.77864  1.0000
  S   S504      1.0  0.87577  0.76717  0.82589  1.0000
  Fe  Fe254     1.0  0.85309  0.73511  0.77621  1.0000
  S   S505      1.0  0.86912  0.75432  0.75421  1.0000
  S   S506      1.0  0.82622  0.71267  0.77115  1.0000
  Fe  Fe255     1.0  0.89975  0.75144  0.76698  1.0000
  S   S507      1.0  0.93231  0.74091  0.75351  1.0000
  Fe  Fe256     1.0  0.86054  0.78389  0.76748  1.0000
  S   S508      1.0  0.84584  0.81680  0.75831  1.0000
  S   S509      1.0  0.88443  0.73018  0.78818  1.0000
  S   S510      1.0  0.84324  0.76535  0.78879  1.0000
  H   H2949     1.0  0.72835  0.66418  0.76349  1.0000
  C   C3686     1.0  0.98191  0.89934  0.94518  1.0000
  C   C3687     1.0  0.69777  0.67804  0.77301  1.0000
  H   H2950     1.0  0.66241  0.68656  0.87304  1.0000
  C   C3688     1.0  0.82780  0.82127  0.74304  1.0000
  C   C3689     1.0  0.72812  0.66854  0.78875  1.0000
  C   C3690     1.0  0.78360  0.66511  0.76945  1.0000
  C   C3691     1.0  0.74929  0.68930  0.82272  1.0000
  H   H2951     1.0  0.99370  0.94127  0.89362  1.0000
  H   H2952     1.0  0.93935  0.75171  0.78655  1.0000
  C   C3692     1.0  0.94153  0.98895  0.84810  1.0000
  H   H2953     1.0  0.77322  0.73014  0.77439  1.0000
  C   C3693     1.0  0.51949  0.71595  0.77253  1.0000
  C   C3694     1.0  0.79545  0.68407  0.76628  1.0000
  C   C3695     1.0  0.81704  0.67215  0.78819  1.0000
  H   H2954     1.0  0.53724  0.67147  0.73047  1.0000
  C   C3696     1.0  0.71609  0.67525  0.80266  1.0000
  C   C3697     1.0  0.95852  0.75144  0.74877  1.0000
  C   C3698     1.0  0.96398  0.77105  0.75388  1.0000
  H   H2955     1.0  0.95191  0.78064  0.76073  1.0000
  C   C3699     1.0  0.91197  0.81754  0.84865  1.0000
  C   C3700     1.0  0.89778  0.80389  0.85818  1.0000
  C   C3701     1.0  0.88686  0.78861  0.85102  1.0000
  C   C3702     1.0  0.88986  0.78685  0.83426  1.0000
  C   C3703     1.0  0.90403  0.80055  0.82473  1.0000
  C   C3704     1.0  0.91501  0.81575  0.83190  1.0000
  H   H2956     1.0  0.89525  0.80505  0.87106  1.0000
  H   H2957     1.0  0.87600  0.77806  0.85852  1.0000
  H   H2958     1.0  0.90657  0.79940  0.81185  1.0000
  H   H2959     1.0  0.92595  0.82619  0.82440  1.0000
  C   C3705     1.0  0.91850  0.94542  0.88853  1.0000
  C   C3706     1.0  0.89871  0.93566  0.88979  1.0000
  C   C3707     1.0  0.87945  0.94852  0.88871  1.0000
  C   C3708     1.0  0.87988  0.97118  0.88667  1.0000
  C   C3709     1.0  0.89955  0.98100  0.88604  1.0000
  C   C3710     1.0  0.91884  0.96811  0.88690  1.0000
  H   H2960     1.0  0.89827  0.91822  0.89097  1.0000
  H   H2961     1.0  0.86424  0.94088  0.88921  1.0000
  C   C3711     1.0  0.86452  0.97049  0.93739  1.0000
  H   H2962     1.0  0.93402  0.97579  0.88603  1.0000
  H   H2963     1.0  0.97771  0.76070  0.78481  1.0000
  C   C3712     1.0  0.92055  0.85155  0.96045  1.0000
  H   H2964     1.0  0.96785  0.83194  0.97512  1.0000
  H   H2965     1.0  0.95066  0.83857  0.94939  1.0000
  C   C3713     1.0  0.49973  0.66839  0.82818  1.0000
  C   C3714     1.0  0.78877  0.77414  0.75201  1.0000
  S   S511      1.0  0.60779  0.69646  0.74513  1.0000
  C   C3715     1.0  0.76336  0.69506  0.80896  1.0000
  H   H2966     1.0  0.91815  0.68633  0.73253  1.0000
  H   H2967     1.0  0.68452  0.68798  0.81205  1.0000
  H   H2968     1.0  0.84680  0.98716  0.91855  1.0000
  C   C3716     1.0  0.50119  0.74991  0.73256  1.0000
  C   C3717     1.0  0.98019  0.99072  0.93395  1.0000
  H   H2969     1.0  0.72904  0.89649  0.75050  1.0000
  C   C3718     1.0  0.94284  0.75949  0.82598  1.0000
  H   H2970     1.0  0.98317  0.84469  0.81882  1.0000
  C   C3719     1.0  0.99010  0.84123  0.84369  1.0000
  H   H2971     1.0  0.94801  0.89387  0.94930  1.0000
  C   C3720     1.0  0.50021  0.72732  0.73471  1.0000
  H   H2972     1.0  0.54571  0.69962  0.75890  1.0000
  H   H2973     1.0  0.91968  0.77680  0.73058  1.0000
  H   H2974     1.0  0.98809  0.79458  0.86851  1.0000
  C   C3721     1.0  0.97454  0.73936  0.73979  1.0000
  H   H2975     1.0  0.52316  0.73190  0.76672  1.0000
  C   C3722     1.0  0.90937  0.85706  0.97511  1.0000
  H   H2976     1.0  0.71711  0.85893  0.75366  1.0000
  C   C3723     1.0  0.63116  0.67872  0.74382  1.0000
  C   C3724     1.0  0.83329  0.98953  0.95886  1.0000
  H   H2977     1.0  0.81897  0.85398  0.74867  1.0000
  H   H2978     1.0  0.69965  0.79367  0.75969  1.0000
  H   H2979     1.0  0.99081  0.72725  0.83011  1.0000
  H   H2980     1.0  0.51281  0.66907  0.81868  1.0000
  H   H2981     1.0  0.76573  0.90390  0.75639  1.0000
  H   H2982     1.0  0.98174  0.90234  0.93222  1.0000
  C   C3725     1.0  0.77124  0.78927  0.75109  1.0000
  C   C3726     1.0  0.99154  0.82700  0.85761  1.0000
  H   H2983     1.0  0.74688  0.83137  0.72974  1.0000
  H   H2984     1.0  0.91705  0.75099  0.81281  1.0000
  H   H2985     1.0  0.79639  0.76756  0.74117  1.0000
  H   H2986     1.0  0.92056  0.74249  0.89854  1.0000
  C   C3727     1.0  0.91132  0.91801  0.94583  1.0000
  H   H2987     1.0  0.97178  0.97454  0.88672  1.0000
  C   C3728     1.0  0.63695  0.66577  0.75767  1.0000
  C   C3729     1.0  0.77457  0.87035  0.76360  1.0000
  C   C3730     1.0  0.75308  0.72800  0.75519  1.0000
  H   H2988     1.0  0.96870  0.72627  0.86059  1.0000
  C   C3731     1.0  0.96467  0.76429  0.82515  1.0000
  C   C3732     1.0  0.86580  0.96669  0.95408  1.0000
  C   C3733     1.0  0.93135  0.74746  0.88802  1.0000
  H   H2989     1.0  0.92496  0.92567  0.92142  1.0000
  C   C3734     1.0  0.98098  0.81161  0.82920  1.0000
  C   C3735     1.0  0.96278  0.89509  0.95483  1.0000
  H   H2990     1.0  0.99410  0.76835  0.80926  1.0000
  H   H2991     1.0  0.70422  0.71051  0.83204  1.0000
  C   C3736     1.0  0.94184  0.84289  0.96054  1.0000
  C   C3737     1.0  0.53208  0.69771  0.76800  1.0000
  C   C3738     1.0  0.98484  0.83354  0.82949  1.0000
  H   H2992     1.0  0.79138  0.71255  0.79938  1.0000
  H   H2993     1.0  0.90093  0.91357  0.97120  1.0000
  C   C3739     1.0  0.97497  0.97417  0.94622  1.0000
  C   C3740     1.0  0.87713  0.85471  0.80729  1.0000
  C   C3741     1.0  0.86605  0.83576  0.81128  1.0000
  C   C3742     1.0  0.85431  0.83238  0.82636  1.0000
  C   C3743     1.0  0.85360  0.84796  0.83746  1.0000
  C   C3744     1.0  0.86529  0.86673  0.83376  1.0000
  C   C3745     1.0  0.87664  0.87023  0.81842  1.0000
  P   P123      1.0  0.86357  0.88743  0.84771  1.0000
  C   C3746     1.0  0.84098  0.90564  0.84273  1.0000
  C   C3747     1.0  0.86045  0.87622  0.86853  1.0000
  C   C3748     1.0  0.85122  0.88916  0.88058  1.0000
  C   C3749     1.0  0.84974  0.88089  0.89683  1.0000
  C   C3750     1.0  0.85765  0.85974  0.90117  1.0000
  C   C3751     1.0  0.86729  0.84694  0.88927  1.0000
  C   C3752     1.0  0.86901  0.85527  0.87305  1.0000
  C   C3753     1.0  0.84385  0.92300  0.83074  1.0000
  C   C3754     1.0  0.82627  0.93696  0.82672  1.0000
  C   C3755     1.0  0.80567  0.93348  0.83444  1.0000
  C   C3756     1.0  0.80260  0.91592  0.84611  1.0000
  C   C3757     1.0  0.82016  0.90193  0.85017  1.0000
  C   C3758     1.0  0.88819  0.90155  0.84638  1.0000
  C   C3759     1.0  0.90817  0.89036  0.84305  1.0000
  C   C3760     1.0  0.92742  0.90037  0.84396  1.0000
  C   C3761     1.0  0.92687  0.92173  0.84803  1.0000
  C   C3762     1.0  0.90702  0.93313  0.85105  1.0000
  C   C3763     1.0  0.88774  0.92298  0.85054  1.0000
  H   H2994     1.0  0.88610  0.85732  0.79554  1.0000
  H   H2995     1.0  0.86663  0.82358  0.80274  1.0000
  H   H2996     1.0  0.84595  0.81752  0.82946  1.0000
  H   H2997     1.0  0.84405  0.84521  0.84894  1.0000
  H   H2998     1.0  0.88510  0.88494  0.81505  1.0000
  H   H2999     1.0  0.84560  0.90580  0.87747  1.0000
  H   H3000     1.0  0.84292  0.89104  0.90611  1.0000
  H   H3001     1.0  0.85700  0.85350  0.91379  1.0000
  H   H3002     1.0  0.87417  0.83084  0.89267  1.0000
  H   H3003     1.0  0.87752  0.84555  0.86412  1.0000
  H   H3004     1.0  0.85965  0.92572  0.82448  1.0000
  C   C3764     1.0  0.76051  0.88741  0.75825  1.0000
  H   H3005     1.0  0.67581  0.71722  0.85414  1.0000
  H   H3006     1.0  0.78658  0.91307  0.85193  1.0000
  H   H3007     1.0  0.81747  0.88819  0.85904  1.0000
  H   H3008     1.0  0.90887  0.87365  0.84029  1.0000
  H   H3009     1.0  0.94273  0.89123  0.84204  1.0000
  H   H3010     1.0  0.94176  0.92918  0.84939  1.0000
  H   H3011     1.0  0.90656  0.94950  0.85465  1.0000
  H   H3012     1.0  0.87258  0.93166  0.85394  1.0000
  C   C3765     1.0  0.69851  0.69700  0.84023  1.0000
  H   H3013     1.0  0.94564  0.95562  0.92808  1.0000
  C   C3766     1.0  0.78764  0.77694  0.78075  1.0000
  C   C3767     1.0  0.76993  0.79190  0.77990  1.0000
  C   C3768     1.0  0.76136  0.79790  0.76507  1.0000
  H   H3014     1.0  0.76160  0.68914  0.79747  1.0000
  P   P124      1.0  0.73844  0.81719  0.76399  1.0000
  C   C3769     1.0  0.72028  0.81244  0.78209  1.0000
  C   C3770     1.0  0.74721  0.84463  0.76192  1.0000
  C   C3771     1.0  0.73975  0.88321  0.75493  1.0000
  C   C3772     1.0  0.81653  0.84155  0.74092  1.0000
  H   H3015     1.0  0.89421  0.80324  0.74382  1.0000
  H   H3016     1.0  0.74310  0.69167  0.84853  1.0000
  C   C3773     1.0  0.68269  0.72192  0.73316  1.0000
  C   C3774     1.0  0.70934  0.82978  0.78965  1.0000
  C   C3775     1.0  0.69521  0.82577  0.80357  1.0000
  C   C3776     1.0  0.69191  0.80448  0.81006  1.0000
  C   C3777     1.0  0.70275  0.78713  0.80263  1.0000
  C   C3778     1.0  0.71687  0.79109  0.78870  1.0000
  C   C3779     1.0  0.72471  0.81298  0.74656  1.0000
  C   C3780     1.0  0.85001  0.97584  0.96498  1.0000
  C   C3781     1.0  0.80211  0.84591  0.72888  1.0000
  C   C3782     1.0  0.78381  0.71573  0.82472  1.0000
  H   H3017     1.0  0.76578  0.79442  0.73942  1.0000
  C   C3783     1.0  0.70638  0.80058  0.74805  1.0000
  H   H3018     1.0  0.94525  0.79281  0.86417  1.0000
  H   H3019     1.0  0.79731  0.72568  0.82547  1.0000
  H   H3020     1.0  0.79435  0.77245  0.79216  1.0000
  H   H3021     1.0  0.76311  0.79896  0.79075  1.0000
  H   H3022     1.0  0.81189  0.96841  0.89597  1.0000
  H   H3023     1.0  0.77939  0.83605  0.76922  1.0000
  C   C3784     1.0  0.69461  0.68336  0.80154  1.0000
  C   C3785     1.0  0.82497  0.80549  0.73269  1.0000
  C   C3786     1.0  0.78042  0.70834  0.80998  1.0000
  H   H3024     1.0  0.79166  0.69588  0.75645  1.0000
  H   H3025     1.0  0.71158  0.84640  0.78487  1.0000
  H   H3026     1.0  0.68676  0.83924  0.80929  1.0000
  H   H3027     1.0  0.68090  0.80145  0.82082  1.0000
  H   H3028     1.0  0.70016  0.77063  0.80763  1.0000
  H   H3029     1.0  0.72505  0.77755  0.78296  1.0000
  H   H3030     1.0  0.69055  0.67823  0.76172  1.0000
  C   C3787     1.0  0.73312  0.86191  0.75667  1.0000
  H   H3031     1.0  0.93260  0.75932  0.83726  1.0000
  C   C3788     1.0  0.93586  0.94672  0.93765  1.0000
  C   C3789     1.0  0.89609  0.80358  0.73076  1.0000
  C   C3790     1.0  0.50192  0.71367  0.78426  1.0000
  C   C3791     1.0  0.99567  0.74660  0.73600  1.0000
  C   C3792     1.0  0.92401  0.92986  0.93377  1.0000
  C   C3793     1.0  0.75305  0.69657  0.83757  1.0000
  H   H3032     1.0  0.81093  0.75671  0.76734  1.0000
  C   C3794     1.0  0.95925  0.76048  0.86077  1.0000
  C   C3795     1.0  0.95862  0.73848  0.86658  1.0000
  P   P125      1.0  0.72772  0.67130  0.82187  1.0000
  C   C3796     1.0  0.94642  0.75530  0.79728  1.0000
  C   C3797     1.0  0.92154  0.94047  0.96567  1.0000
  C   C3798     1.0  0.68243  0.70086  0.85271  1.0000
  H   H3033     1.0  0.90273  0.90448  0.94283  1.0000
  C   C3799     1.0  0.93176  0.76935  0.88223  1.0000
  H   H3034     1.0  0.97227  0.98025  0.85699  1.0000
  C   C3800     1.0  0.91034  0.92312  0.96181  1.0000
  H   H3035     1.0  0.51444  0.71720  0.73146  1.0000
  C   C3801     1.0  0.98528  0.77805  0.75043  1.0000
  H   H3036     1.0  0.99254  0.85830  0.84408  1.0000
  C   C3802     1.0  0.68552  0.68473  0.78676  1.0000
  C   C3803     1.0  0.84762  0.98381  0.93146  1.0000
  H   H3037     1.0  0.92133  0.78137  0.88822  1.0000
  C   C3804     1.0  0.94472  0.73202  0.88017  1.0000
  C   C3805     1.0  0.96806  0.76033  0.79632  1.0000
  H   H3038     1.0  0.79075  0.87361  0.76604  1.0000
  H   H3039     1.0  0.87926  0.95682  0.95849  1.0000
  C   C3806     1.0  0.97722  0.76472  0.81019  1.0000
  C   C3807     1.0  0.94550  0.77582  0.86859  1.0000
  H   H3040     1.0  0.94424  0.71503  0.88458  1.0000
  C   C3808     1.0  0.77015  0.70982  0.83852  1.0000
  C   C3809     1.0  0.52695  0.67709  0.77507  1.0000
  H   H3041     1.0  0.77308  0.71519  0.85003  1.0000
  C   C3810     1.0  0.93385  0.75486  0.81210  1.0000
  H   H3042     1.0  0.94018  0.97323  0.84379  1.0000
  C   C3811     1.0  0.74967  0.68288  0.73336  1.0000
  H   H3043     1.0  0.99380  0.88896  0.90272  1.0000
  C   C3812     1.0  0.93485  0.95207  0.95368  1.0000
  H   H3044     1.0  0.97631  0.80627  0.81819  1.0000
  H   H3045     1.0  0.87679  0.96341  0.92901  1.0000
  C   C3813     1.0  0.70713  0.67583  0.83828  1.0000
  C   C3814     1.0  0.73192  0.72748  0.75082  1.0000
  C   C3815     1.0  0.71451  0.72995  0.76269  1.0000
  C   C3816     1.0  0.71828  0.73231  0.77864  1.0000
  C   C3817     1.0  0.73939  0.73245  0.78287  1.0000
  C   C3818     1.0  0.75678  0.73025  0.77114  1.0000
  C   C3819     1.0  0.71913  0.67020  0.77398  1.0000
  C   C3820     1.0  0.76801  0.84901  0.76541  1.0000
  H   H3046     1.0  0.75718  0.96405  0.74873  1.0000
  P   P126      1.0  0.97705  0.76879  0.84313  1.0000
  C   C3821     1.0  0.79990  0.98188  0.89584  1.0000
  H   H3047     1.0  0.90575  0.98346  0.94744  1.0000
  C   C3822     1.0  0.79704  0.76808  0.76679  1.0000
  H   H3048     1.0  0.76686  0.72653  0.74629  1.0000
  C   C3823     1.0  0.81233  0.68782  0.77556  1.0000
  P   P127      1.0  0.94931  0.97470  0.95845  1.0000
  C   C3824     1.0  0.98761  0.80512  0.85740  1.0000
  C   C3825     1.0  0.67487  0.68361  0.86337  1.0000
  P   P128      1.0  0.72772  0.72359  0.73015  1.0000
  C   C3826     1.0  0.69625  0.79723  0.73436  1.0000
  H   H3049     1.0  0.69801  0.73000  0.75986  1.0000
  H   H3050     1.0  0.70477  0.73388  0.78774  1.0000
  H   H3051     1.0  0.74232  0.73428  0.79521  1.0000
  H   H3052     1.0  0.97068  0.72410  0.73587  1.0000
  H   H3053     1.0  0.83382  0.78993  0.73404  1.0000
  C   C3827     1.0  0.98236  0.79717  0.84317  1.0000
  H   H3054     1.0  0.82983  0.67464  0.79556  1.0000
  S   S512      1.0  0.85573  0.98679  0.88427  1.0000
  C   C3828     1.0  0.50915  0.67469  0.78662  1.0000
  H   H3055     1.0  0.79206  0.94431  0.83127  1.0000
  H   H3056     1.0  0.68182  0.78810  0.73555  1.0000
  H   H3057     1.0  0.62714  0.66692  0.76902  1.0000
  H   H3058     1.0  0.76067  0.69021  0.74013  1.0000
  H   H3059     1.0  0.85477  0.93013  0.97090  1.0000
  H   H3060     1.0  0.82859  0.95045  0.81755  1.0000
  H   H3061     1.0  0.78584  0.97324  0.92002  1.0000
  C   C3829     1.0  0.74709  0.97409  0.74083  1.0000
  H   H3062     1.0  0.98622  0.94328  0.95780  1.0000
  H   H3063     1.0  0.66878  0.69037  0.78602  1.0000
  C   C3830     1.0  0.98919  0.97505  0.88540  1.0000
  H   H3064     1.0  0.98938  0.79302  0.75471  1.0000
  C   C3831     1.0  0.73274  0.82181  0.73118  1.0000
  C   C3832     1.0  0.79971  0.99701  0.88231  1.0000
  C   C3833     1.0  0.78526  0.98466  0.90938  1.0000
  H   H3065     1.0  0.88779  0.71410  0.73156  1.0000
  C   C3834     1.0  0.83203  0.99331  0.94218  1.0000
  C   C3835     1.0  0.98994  0.95655  0.94880  1.0000
  H   H3066     1.0  0.68482  0.70784  0.74170  1.0000
  C   C3836     1.0  0.96283  0.89181  0.97158  1.0000
  C   C3837     1.0  0.95963  0.99293  0.85581  1.0000
  H   H3067     1.0  0.89288  0.86366  0.97519  1.0000
  H   H3068     1.0  0.64791  0.72109  0.73592  1.0000
  C   C3838     1.0  0.64396  0.67723  0.72924  1.0000
  H   H3069     1.0  0.73916  0.76868  0.72865  1.0000
  C   C3839     1.0  0.66176  0.72911  0.72974  1.0000
  C   C3840     1.0  0.74253  0.99624  0.74347  1.0000
  H   H3070     1.0  0.91974  0.94471  0.97802  1.0000
  H   H3071     1.0  0.81166  0.99530  0.87209  1.0000
  H   H3072     1.0  0.99514  0.83306  0.86873  1.0000
