data_image0
_chemical_formula_structural       HCSH2C2HCFeS2FeS2FeSFeS2C6H3C2HC2HC6H3CHCPC2HCH3CHSH4CH2CHC3HCHC2H3C2HCHC2H2CHCH3C2HC2HC4H2C2H2CHC2HCH2C2HCHC6PC4H2C9H4CH3CH3CHCHC3SH2SCH3CFeSCS2FeSFeSHSFeS2FeS2FeSFeS3FeS2HSCFeSFeS3C6H4CHC6H4C6HC6H3CPH2C7H4CSCSHCH4C2H2CH2C2H3C3HC2H2CHCHC2HC3H2C3HSH3CH3CSCHC6HC4H3CH2C4H2CHC3HPCHC8PC18H20C4HCH3C2H2C2HC3HCH2CPFeHC7PCHC8HSC2H2CH6CH2C2H3CHC3SH3C2H4CHC3H4C2HC2HCHCHC3HC2H2CHC3H2CH3C4PC15HC3HCH10CH5CH2C3HFeC5HCHCH3FeC2SHC2H3CHC3PCHCHCHFeC3H2CH2C2H3C2H2CH2CHCH3C2H4SHSCHSHFeS2CFeHSCHCHSH3SC3H3C2FeS2FeS2FeSFeS3FeS2FeS2FeSFeS3H3FeC3HC6H4C5H5C4H4CHC6H4C3FeC2HCHC10H4C6H5C3H2SC2HC4HC2H2CHC4PC8HC4HC2H7CHCH3CH3C3PC9HC2H8C2HCH2PC5HC11HCH2CHC3PCH6C6HCH2FeHC2H4CHC2H3CPHC3HCHCHCPCH4C2HC3H7C4HC2H2CH3C5HC3H2CHC2H2CFeCHSH4CH3C9HCPC6HC3SHC2H2CH2CHC3HCHC4HCH2C2SHC2FeSHSHSC2HC2HCH3SC2H5CHCHC4H2SC2H2CH5C2HSCFeC3HC4PCHCSFeSCHFeC4SCH2C7H4C6H4CH2CH5C3H2SHFeCHC2HC2HC2H2CH2PH5C5HC2H2C2SCHCSH4SC2SC2SHC2SC3HC4H2C2H4C4HCH3C5HFeHCHCHC4H2CH8C3H4CPCHCH2CHC3FeSCFeSFeS3HC2FeS2CH2C3FeS2FeS2FeSFeS3PC6H4C6H4CSHCFeCS2C5H3CH2CHCHC5HC8H4CHCH3CHC2PC10HC7H2CH17C6PC8HC5HCHCH8CHCHCH3C2H2PCHC2HCHC3H2CSCHC3HCHC6HC2H4CHC3HCH2CH3C2H3PHCH2CH2C2HCHCHC6HC2HC2HC2HC2HC2HC3HC2HCH2CH2PH2C2HCHCHCH4CHCSHCH2C3H2CH2CH3CH2CH2CSHCH5C2HCHC2H3C2SC3FeS2FeSFeSFeS3FeS2FeS2FeSFeS3Fe2SCSC6H4C4H3C6H5C7H4CH3C4HC3HC7H4C2HSHC7HPCH3C4HPHC6H5C3H2CH3CPC2HC2HC2HC4SC4HC6H2CSH2FeH5CHCH5C3H2C2HC4H5C4H4C2H2CHC4HC2H2CH4C2HCSCH3CH2C3PC3HC7HC4H3CH5C3H2C5HCHC2H2CPCH2C3SC2SC2H2C2HCHC6H3CFe2CH4CH9C3H2CHCHCSC2HCH2CSHCH4SH2CHPH2FeH5CHCH2CH2CHSC2FeS2C2HFe2SCSFeS2FeS2FeSFeS3FeS2HCHFeS2FeSFeSFeS3H2CSC4H2CHC6H4C6H4PC3H2CH3C6H4C2HC3H3C2PC4H3CH2CH2PH2SCHCSCHC2H5CHC3H4CHFeH2C4H2CHPHCPHCHCH2C3FeHCH4C2HC3H3C2H3C2SC3HC2H3C3H2CHCHC4HSC2HC6PC8HC11H10PH3CH2C10SCH7CHC12PC15HCH16C2H5C2HC3HSCH4C4H3C4H2SC5H4C3H2C2PC7H3C4HCHCHC4H4CHC6HCH2CHCH2C2HC2HFe2CSCHPSCHFeSHS2FeS2FeS2FeHFeS3CSC4H2C6H4C2HC2H2C3HCH2CHC9H4C7HCHC2H2CPCHC2HCHCHC2HCH3CH2C2H2C3HCH3C3H3SCHCHCH2CPCHCHC2HC11H3CH2C2HCH3CH6C3HCH2CHCH2SC2PH2CHC3HC3H2C2SPC6H3CHFeCSHC10H10SCHC3SCSC2HCHC2H2CHCFeC2HC3HC2HC2H5C2HCSHCHC2HCHCHCFeHCHCHCHCFeC3HCHC2HC3H4C3HCHCH2C4H2CHCHC2HC3HC5H3CHFeSFeS2FeSFeS3HCHCFeS2FeS2FeSFeS3FeS2FeSHFeSFeS3PC2H2C8H4C6H2CFeC4H2C2H2CHCSHSCHC7H4C6H4C4H2C6H8C8HCHSC2H3CH6C2H3CH4C2H2PH2C2HCH4C2H3CHCHCHC6PC18H21CHSC2FeHC4H3CH2C11FeHCHC3HCHCH3CH3SC3SCHCHCHC2HCH3CFeHC3H2C3HCHC2H2C4HCH2C3H5C8H2CH3C3HPH2CHC4HC3H2C4HPHCH2CHCHC2HCHC4H2C2HC2SC2H2CSCHSHCHC2HC3H2CH2C2HPHC4PHCHCSC2H3C3PHC5H4C2H2CHC2HC2HC7HCH3C2HC6H6C4H8C2HCH2C3PHC2HCHCHCFeS2HC2HCFeSC2FeS2FeS2FeSFeS3HC2HC2H2CHC5HCH3C6H5C5H4C11PC14HCSCH12CH3CH2CSH2C2HCHC5HC2HCH3C2H2C3HCH3C3PCH2C2HCHC5H2C4H4C2PHC4HCSHC2HCHC3PCHC5H3C2H3CHCH3CSCHC2H3C2HCH3C8PC2HC5H2CHC3HC2H6CHCH2CHCH2PC3H2CH2C2HC2HCHC2H2CH3CHCH3C2HCHC2H2SC4FeCFeSHCFeS2FeS2FeCFeS2HC2H3CHC5H7C3H3C6H3CH2C2HCHSC6H3C2HCH6CHC5H2SCHCH5CH2C4PC2H2C9SHSC2SCH3SC2H2CHC2HC2H2C6PHPC5H7CH3CFeCHC5H7C3HC5HCPH2CHSFeSHSCHC3HC3FeC3SC4HC2H2CH2CH4C3H5SPC2H2CH3CH4CH2CHCHC2FeS2FeS2FeSFeS3HFeS2CFeS3FeCFeSHFeS2FeCSFeHFeHS4FeCFeSFeS3CHFeSHSC7H5C2HCFeHC3H2C6H4C6H3C6H4C6H4C4H3C3FeH4CHSHC2H6C6PC18H22C2PHC6H2CHCH4C3PC5SC6H4CH7CH2PC4H3C7H2C2H7C3HCSHC6PC2HSC2HC11H5C2H4CH6C2H3C2PC12H3C4H4C7PC2SH2C2H2CHC7H8CHCH2CH2SCFeCHSH2CSC2HC2H2C2H3C4H2CHC2SHSPSHCHCSH4CH2FeHC3HC6HCHCSCH5C2H2PFe2HC2HC3HC3HC6H2C3HC3SCHSHCHCH2C2PC4HCH4CH2C2H2C2H3CHCFeCHC6H2C3H4C3H2SC4HCH2CH3C2HCHCHCHC2HCH6C2H3C4HC2HCHC5H3C5HCPHC3HCH2CHFeHCHCPCSCFeS2FeSFeSH2CS2HFeS2FeS2FeSFeS3FeS2FeS2FeSFeS3H3CHC4HC6SH3C2H3CHCFeC7H2C6H6CHC6H4C6H4C2HSC3HC2H2CH2CFeH4C2FeH2CHCH4CHCSC3HC2HC2HCHC5HC2SCSFeC5HC2HC3HFeHC3H3CH2C4HCHCHCHPHCHSFeHC3HPC6PH3CH7CH6C4H2C2H6CH2C2HCHCH2CH2C2HC2HC3HC2HC2HC2PC4HSC9HC3H3CH8CH2C2H4CSH2C4SH4C3HCHC3SCH2SH2CHC2HC3HC3H3CHC2HFeH2CHC2H2C3PC2H3C2HCH3CHCHC2HFeC2H2CHCHCHC9HC4HPCPH3SH3C7HCHC2HCHCHCH6C3H2C2H3C2HC2FeCHC2HCHCH4SHSH2CHCH3C2PCHCH2FeSC5H3C2HFeC5HCHCSFeHCH2C3H4CHCHSHC3HC2HSHS2HC2HC2HCH3CHCH2C6HFeHC2H2C3HCSC3FeC3HSCH4CHC2HC2H2SC2H2C3HCSC2HC4H2PHC3HC3H4C3HC8H4CHC3H3CHC2FeHC2H4C3H2C4H2C3H2C6HC4HCH2C4HCHCPH3CHC2SCHCH2CHC5HC2H2C2SHCPH4PHC5H2CHCHCSCHCH2C2HC3H2SC3H2C2SCFeS2FeSFeSHCSCHCSH2S2C3HSHCH2CSH3C2FeSFe2S2FeS2FeSHSPHC4HCH2CHC2H2C2SCH3C2FeC2HC7H4C4H2C2HC2H2CFeC7H4C6H4SC5H2PSCHCPHFeC2H2C2HC2HCSHSC2H2C3FeSC3HCHCHSHC2HC2H3SHCHC2H4SHC6PC3H3C12H6CHCH11CH2C3HC8HCHC2PCH2S2C2H7C2HC4H2C3H8C3HCHSC2H2CFeC3HSC3H3C2FeHFeH2C3HPC4HC3HCSCSHCHC3FeCHC4HCH2C2H2C6PC18H23SHSH2C2H3CHC3HC3HC6HC2HCHSHC2HSH2CH2CHCHC2H4CH3C2HFeCHCHCHC3H2SHFeSHFeSFeCSHFeS2FeS2FeSHS2C3HFeH2C5H2CHC5H2CHSH3C6H4CH4C3HPCHC4PC16HC4H9C2H2CH4CHCH2PCHCH2CHC7HSC2SC2H2C5H5C2H3C6H3C2HCHPC9HC8HSC2H3FeHCHC3H7CHCHCH3CHCH2FeCH3C3HC4HC5H2CH3C2H2CH8C2SC2H3C5HCH2CSC2PC2HC2H4C5FeHSCH2FeHSH3CFeS2FeS2FeSFeS5HFeS2FeSHFeS2FeSFeS3C2SHC2HCH2C3HC6H4C6H6C5H3CH3FeC8H3C2HPHC6H5CH3PCSFeHCHCH6C3SCHCH2CH2CH6CH3CHC2HC4PC18H16CH2C4HC2PCH2CHCH2C2H4C6PC15HC3SCH15C6PC18H17C6SC2SC4H2CH2CHCPC2FeH2CHC2HC4HCFeSHSCFeC4HC5SHCHC5HCHC2H3CH3CH5C3HC2SC2SHC2HC2HC3H3CH2FeH2CHCH4C3H2CH2FeHCFeS2FeSFeHS2C2H2SFeS2FeSHFeSFeS3FeS2FeS2FeHFeS3C7H4PSHC2H2CHC8H4C3H3CSHC3SC3H8C2H3C2HC3HC2H2CH2C6HC2PCH2C15HC2H2CHSCHCH2CH7C3HCH2C5H3C3H3CH2CH2C2HC2H2C2H3CHCHC2HC2SC3H2PHC6PHCH2C2H2CSH2C9PC12H7CH8C4PCHC6H2C6HC4HCFeH3SCH4SH5C2HCHPC8H2CHC4HCHC2H7C2HCHCHCH3CFeC6H3PC2HCH2CHC4H4C3H3C2HC2H4C3HCHCHCHCHCHCHCHC3HSHCH2FeS2HC3S2FeHSFeS2HCHSHCHC7H4C3HC2H2CHCH2CH7C7H3CHCPC6HC2HC2SH2C3H3C2H2C2H3C3PCHC4HC4FeCHC5HC3H2CHC3HC2HC2H3CHCH4FeHC2SHCHC2H2C2FeCH2FeCH2SCFeHCFeC2H3CHCHSHPH3C3PC3HSCHC4HC3H3CSH4CH2CH2S2CHFeHC2HCFeC3SHCHC3HC6HC2H2CHCSFeHSC2H2CFeS2FeS2FeSFeS3H2CHCH4CFeS2FeCFeHSHCHCHFeH3C4H5C7H4C6H2SH3CHSH3CHC6H6C3HCHC3HSH2CHC5HC6HC2H4CHCHC2SHCH2CH2C6PC4HCHC7H3CHCH4FeCHCHSH4CH3C2H2C5PC10HC8HCH3CHC2HC2SC4H3CH2CH2C4HPC2HCH2C4HCSHC4HC2H2C2HCHCPH2CHC2H2CPHC3HC2HC2SHCH2CHCSCHC3H8PH3CSCHCHCHC2H2C4HCHCH3CFeSHSHC2HSC2HC4HFeSCFe2S3CHC4SH2S2C2HSFeSCHFeS2FeS2FeS2FeS2FeSFeS3FeCSCSC9H5C5H3C6H5C6H5C4HSFeH4C6H4C2HC2H2C2H3CFeCHCFeCH3CSHC3H2CHC3H2PC2HCH5FeHCHCSHSC3HC2H2C3FeCHC2SC2HC3H2C3H2C3H4CHC7PC14H18C2HCHC2HC6PCHC7HCH3CH6CH3CH2CHC2HC3HCH2C2H2SCHC3HCPHC3HCPHCHC2HCHCH2C2HC2H2CPC2H3CH2C3H4CH2CSCHCHC3HC3SCH2CHSCHCHC4FeCH4CHCHC2H2FeHCH3CH2CHC2HCFeC2HCSCSCFeCH3FeS2C2HFeHCHS2FeS2FeSCFeSFeS3H2FeS2FeS2FeSFeS3H2CHC5H3C3HCH3SC7H4C7H4C2HC2H4C5H2CH2C4HC6PC4H2CH3C5H9C4H2C9PC18H20CHCHC3H2CSC5H2CH2FeH2CHCH2C2H3C4SCH2C3PC2H6C5HCFeC3H3CH7C6HCH4C9PC4H2C4HC7H6C3H3CHCH5C2H3PHC2H5CPH2C13HCH2C2H2FeC2HCH5CH2C2H3C2H3C3H2SHCFeS2FeS2FeSFeS3FeSCFeS2Fe2SCSCHC6H4C5H3C6HCH2PHC3HC9H4SCHC3H2CH4C6SC2HCH3C3H3C3PCH3CH3PH4C4HC3HPCPH2SH3C5H2C2H2C2HCH2C2FeC2HSC2HCH2CH2CH2CH2CHC2H2C9PC18H20SCH3C3H2CH3C2H3CH2CHCHCH3C3HC2HC4H2C4SHCH2
_chemical_formula_sum              "H3456 C4320 S576 Fe288 P144"
_cell_length_a       69.3669
_cell_length_b       69.0118
_cell_length_c       71.1192
_cell_angle_alpha    78.8455
_cell_angle_beta     78.3584
_cell_angle_gamma    78.8679

_space_group_name_H-M_alt    "P 1"
_space_group_IT_number       1

loop_
  _space_group_symop_operation_xyz
  'x, y, z'

loop_
  _atom_site_type_symbol
  _atom_site_label
  _atom_site_symmetry_multiplicity
  _atom_site_fract_x
  _atom_site_fract_y
  _atom_site_fract_z
  _atom_site_occupancy
  H   H1        1.0  0.14744  0.45325  0.16273  1.0000
  C   C1        1.0  0.09676  0.45573  0.17258  1.0000
  S   S1        1.0  0.29329  0.33924  0.05435  1.0000
  H   H2        1.0  0.09743  0.46360  0.15780  1.0000
  H   H3        1.0  0.31219  0.34459  0.08581  1.0000
  C   C2        1.0  0.23958  0.43083  0.02866  1.0000
  C   C3        1.0  0.14709  0.46930  0.15998  1.0000
  H   H4        1.0  0.04237  0.45925  0.99811  1.0000
  C   C4        1.0  0.27922  0.36472  0.01312  1.0000
  Fe  Fe1       1.0  0.19683  0.42698  0.14980  1.0000
  S   S2        1.0  0.22739  0.43565  0.14478  1.0000
  S   S3        1.0  0.17888  0.42416  0.18034  1.0000
  Fe  Fe2       1.0  0.19695  0.43040  0.10656  1.0000
  S   S4        1.0  0.22738  0.43912  0.09845  1.0000
  S   S5        1.0  0.18227  0.42916  0.08134  1.0000
  Fe  Fe3       1.0  0.23527  0.41471  0.12266  1.0000
  S   S6        1.0  0.26480  0.39358  0.12078  1.0000
  Fe  Fe4       1.0  0.21669  0.45930  0.12101  1.0000
  S   S7        1.0  0.20548  0.40431  0.12942  1.0000
  S   S8        1.0  0.18572  0.45208  0.12744  1.0000
  C   C5        1.0  0.28964  0.39520  0.99417  1.0000
  C   C6        1.0  0.16162  0.40731  0.18775  1.0000
  C   C7        1.0  0.16169  0.39236  0.17699  1.0000
  C   C8        1.0  0.14767  0.37923  0.18317  1.0000
  C   C9        1.0  0.28747  0.44610  0.07301  1.0000
  C   C10       1.0  0.14720  0.45177  0.09626  1.0000
  H   H5        1.0  0.26602  0.39407  0.01919  1.0000
  H   H6        1.0  0.17264  0.39079  0.16398  1.0000
  H   H7        1.0  0.14775  0.36775  0.17471  1.0000
  C   C11       1.0  0.19255  0.33299  0.21189  1.0000
  C   C12       1.0  0.12879  0.46418  0.09477  1.0000
  H   H8        1.0  0.22899  0.41958  0.05871  1.0000
  C   C13       1.0  0.12286  0.47087  0.07660  1.0000
  C   C14       1.0  0.13358  0.38090  0.20019  1.0000
  H   H9        1.0  0.16110  0.39636  0.11141  1.0000
  C   C15       1.0  0.28587  0.35451  0.07271  1.0000
  C   C16       1.0  0.26729  0.36711  0.07368  1.0000
  C   C17       1.0  0.26069  0.37925  0.08825  1.0000
  C   C18       1.0  0.27268  0.37889  0.10198  1.0000
  C   C19       1.0  0.29136  0.36650  0.10088  1.0000
  C   C20       1.0  0.29791  0.35429  0.08635  1.0000
  H   H10       1.0  0.25785  0.36731  0.06323  1.0000
  H   H11       1.0  0.24623  0.38865  0.08903  1.0000
  H   H12       1.0  0.30071  0.36615  0.11144  1.0000
  C   C21       1.0  0.27121  0.47309  0.09107  1.0000
  H   H13       1.0  0.15201  0.44730  0.11015  1.0000
  C   C22       1.0  0.27435  0.43442  0.04133  1.0000
  P   P1        1.0  0.29631  0.43701  0.05001  1.0000
  C   C23       1.0  0.27718  0.38555  0.00966  1.0000
  C   C24       1.0  0.15927  0.44507  0.07976  1.0000
  H   H14       1.0  0.09248  0.43740  0.11556  1.0000
  C   C25       1.0  0.13367  0.39565  0.21111  1.0000
  H   H15       1.0  0.29226  0.15891  0.20529  1.0000
  H   H16       1.0  0.31910  0.25217  0.09653  1.0000
  H   H17       1.0  0.07188  0.46207  0.09527  1.0000
  C   C26       1.0  0.31026  0.39763  0.04379  1.0000
  H   H18       1.0  0.10164  0.38113  0.16969  1.0000
  S   S9        1.0  0.11623  0.36419  0.20743  1.0000
  H   H19       1.0  0.21166  0.36178  0.17029  1.0000
  H   H20       1.0  0.27958  0.42942  0.12195  1.0000
  H   H21       1.0  0.10280  0.46225  0.21717  1.0000
  H   H22       1.0  0.26963  0.35724  0.02519  1.0000
  C   C27       1.0  0.06729  0.45973  0.11095  1.0000
  H   H23       1.0  0.29255  0.41695  0.09106  1.0000
  H   H24       1.0  0.08455  0.35375  0.18857  1.0000
  C   C28       1.0  0.30640  0.36301  0.98585  1.0000
  H   H25       1.0  0.02896  0.39386  0.19424  1.0000
  C   C29       1.0  0.15290  0.45105  0.06171  1.0000
  C   C30       1.0  0.20061  0.33838  0.19229  1.0000
  C   C31       1.0  0.29985  0.47307  0.02450  1.0000
  H   H26       1.0  0.20267  0.32791  0.18223  1.0000
  C   C32       1.0  0.25551  0.43769  0.01522  1.0000
  H   H27       1.0  0.16212  0.44586  0.04890  1.0000
  C   C33       1.0  0.10042  0.46515  0.18694  1.0000
  C   C34       1.0  0.09577  0.43546  0.21073  1.0000
  H   H28       1.0  0.16106  0.41650  0.13668  1.0000
  H   H29       1.0  0.07473  0.47150  0.98586  1.0000
  H   H30       1.0  0.29579  0.33724  0.00453  1.0000
  C   C35       1.0  0.27894  0.46624  0.07339  1.0000
  C   C36       1.0  0.04995  0.47110  0.11937  1.0000
  H   H31       1.0  0.28598  0.22893  0.17051  1.0000
  C   C37       1.0  0.29086  0.17414  0.19748  1.0000
  H   H32       1.0  0.12948  0.38698  0.10762  1.0000
  C   C38       1.0  0.27104  0.20673  0.19029  1.0000
  C   C39       1.0  0.25864  0.42675  0.05456  1.0000
  H   H33       1.0  0.29929  0.39976  0.03443  1.0000
  H   H34       1.0  0.04553  0.42143  0.17488  1.0000
  C   C40       1.0  0.31213  0.41299  0.05334  1.0000
  H   H35       1.0  0.25979  0.42199  0.06979  1.0000
  C   C41       1.0  0.20570  0.35745  0.18553  1.0000
  H   H36       1.0  0.30982  0.28365  0.11026  1.0000
  H   H37       1.0  0.28774  0.41132  0.99178  1.0000
  H   H38       1.0  0.12991  0.42797  0.15759  1.0000
  C   C42       1.0  0.04647  0.46485  0.98276  1.0000
  C   C43       1.0  0.20279  0.37111  0.19837  1.0000
  H   H39       1.0  0.31532  0.25065  0.16721  1.0000
  C   C44       1.0  0.30595  0.20078  0.17526  1.0000
  C   C45       1.0  0.04448  0.46865  0.13960  1.0000
  H   H40       1.0  0.11943  0.46914  0.10759  1.0000
  C   C46       1.0  0.14768  0.40881  0.20492  1.0000
  C   C47       1.0  0.27169  0.45991  0.10857  1.0000
  C   C48       1.0  0.27271  0.18703  0.20016  1.0000
  C   C49       1.0  0.28761  0.21363  0.17794  1.0000
  H   H41       1.0  0.05217  0.45346  0.16703  1.0000
  H   H42       1.0  0.08991  0.41051  0.20011  1.0000
  C   C50       1.0  0.27986  0.43982  0.10839  1.0000
  C   C51       1.0  0.29394  0.35345  0.00136  1.0000
  H   H43       1.0  0.30786  0.28287  0.14563  1.0000
  H   H44       1.0  0.22600  0.42964  0.02393  1.0000
  C   C52       1.0  0.24125  0.42517  0.04828  1.0000
  H   H45       1.0  0.28532  0.44411  0.01082  1.0000
  C   C53       1.0  0.30732  0.18090  0.18489  1.0000
  C   C54       1.0  0.27297  0.43923  0.02147  1.0000
  H   H46       1.0  0.09779  0.39846  0.12848  1.0000
  C   C55       1.0  0.13490  0.46422  0.06006  1.0000
  H   H47       1.0  0.25997  0.18174  0.20994  1.0000
  H   H48       1.0  0.25692  0.21668  0.19227  1.0000
  C   C56       1.0  0.31161  0.26902  0.13972  1.0000
  C   C57       1.0  0.19470  0.36581  0.21795  1.0000
  H   H49       1.0  0.03126  0.47778  0.14614  1.0000
  C   C58       1.0  0.06473  0.47162  0.97589  1.0000
  H   H50       1.0  0.25432  0.44165  0.99996  1.0000
  C   C59       1.0  0.07596  0.36843  0.18498  1.0000
  C   C60       1.0  0.05555  0.37197  0.19213  1.0000
  C   C61       1.0  0.04469  0.39110  0.18817  1.0000
  C   C62       1.0  0.05425  0.40675  0.17719  1.0000
  C   C63       1.0  0.07484  0.40339  0.17001  1.0000
  C   C64       1.0  0.08561  0.38407  0.17412  1.0000
  P   P2        1.0  0.08800  0.42405  0.15852  1.0000
  C   C65       1.0  0.11136  0.41451  0.14428  1.0000
  C   C66       1.0  0.07328  0.44253  0.14301  1.0000
  C   C67       1.0  0.07896  0.44557  0.12265  1.0000
  C   C68       1.0  0.31001  0.45495  0.03316  1.0000
  H   H51       1.0  0.01960  0.45969  0.97558  1.0000
  H   H52       1.0  0.31656  0.31523  0.98177  1.0000
  C   C69       1.0  0.05627  0.45468  0.15138  1.0000
  C   C70       1.0  0.12941  0.41922  0.14668  1.0000
  C   C71       1.0  0.14725  0.41252  0.13497  1.0000
  C   C72       1.0  0.14727  0.40104  0.12081  1.0000
  C   C73       1.0  0.12943  0.39586  0.11863  1.0000
  C   C74       1.0  0.11154  0.40243  0.13043  1.0000
  C   C75       1.0  0.09259  0.43608  0.17720  1.0000
  C   C76       1.0  0.09239  0.42591  0.19632  1.0000
  C   C77       1.0  0.09987  0.45504  0.20603  1.0000
  H   H53       1.0  0.31766  0.35398  0.97687  1.0000
  H   H54       1.0  0.31403  0.17883  0.14417  1.0000
  H   H55       1.0  0.26503  0.46513  0.12223  1.0000
  H   H56       1.0  0.14003  0.47297  0.13136  1.0000
  C   C78       1.0  0.31267  0.26949  0.11981  1.0000
  H   H57       1.0  0.04821  0.36004  0.20120  1.0000
  H   H58       1.0  0.15567  0.46964  0.18730  1.0000
  H   H59       1.0  0.27768  0.47665  0.06015  1.0000
  C   C79       1.0  0.31783  0.25171  0.11207  1.0000
  H   H60       1.0  0.20637  0.38605  0.19301  1.0000
  H   H61       1.0  0.28371  0.47624  0.02727  1.0000
  H   H62       1.0  0.18844  0.31827  0.21680  1.0000
  C   C80       1.0  0.28745  0.43285  0.09072  1.0000
  H   H63       1.0  0.13031  0.46919  0.04601  1.0000
  C   C81       1.0  0.31583  0.25076  0.15187  1.0000
  H   H64       1.0  0.14765  0.42026  0.21339  1.0000
  C   C82       1.0  0.30431  0.38400  0.98205  1.0000
  C   C83       1.0  0.24563  0.12041  0.38371  1.0000
  C   C84       1.0  0.20313  0.12201  0.38102  1.0000
  S   S10       1.0  0.14524  0.12726  0.43664  1.0000
  H   H65       1.0  0.20097  0.08240  0.34286  1.0000
  H   H66       1.0  0.06013  0.05050  0.44475  1.0000
  S   S11       1.0  0.10156  0.09757  0.45149  1.0000
  C   C85       1.0  0.25739  0.10387  0.37596  1.0000
  H   H67       1.0  0.99279  0.10025  0.42717  1.0000
  H   H68       1.0  0.19394  0.98652  0.40416  1.0000
  H   H69       1.0  0.99810  0.39695  0.44476  1.0000
  C   C86       1.0  0.18946  0.34669  0.22489  1.0000
  Fe  Fe5       1.0  0.29865  0.12158  0.27109  1.0000
  S   S12       1.0  0.26712  0.11552  0.27694  1.0000
  C   C87       1.0  0.22301  0.25131  0.33135  1.0000
  S   S13       1.0  0.27406  0.09581  0.32097  1.0000
  S   S14       1.0  0.31891  0.98136  0.26170  1.0000
  Fe  Fe6       1.0  0.27898  0.08529  0.29225  1.0000
  S   S15       1.0  0.26542  0.05781  0.29256  1.0000
  Fe  Fe7       1.0  0.26449  0.12648  0.30524  1.0000
  S   S16       1.0  0.23460  0.14487  0.31502  1.0000
  H   H70       1.0  0.09549  0.42754  0.22550  1.0000
  S   S17       1.0  0.29519  0.13480  0.29832  1.0000
  Fe  Fe8       1.0  0.14296  0.22912  0.38276  1.0000
  S   S18       1.0  0.16527  0.22103  0.40295  1.0000
  S   S19       1.0  0.11894  0.21035  0.38592  1.0000
  Fe  Fe9       1.0  0.15981  0.26631  0.36128  1.0000
  S   S20       1.0  0.18374  0.26101  0.37973  1.0000
  S   S21       1.0  0.15792  0.29392  0.33805  1.0000
  Fe  Fe10      1.0  0.18740  0.22875  0.37598  1.0000
  S   S22       1.0  0.21827  0.21035  0.37055  1.0000
  Fe  Fe11      1.0  0.15963  0.25359  0.40499  1.0000
  S   S23       1.0  0.15373  0.26435  0.43412  1.0000
  S   S24       1.0  0.16538  0.23463  0.35552  1.0000
  S   S25       1.0  0.13535  0.26135  0.38675  1.0000
  Fe  Fe12      1.0  0.07252  0.38874  0.26806  1.0000
  S   S26       1.0  0.05096  0.36728  0.28035  1.0000
  S   S27       1.0  0.07495  0.41623  0.27940  1.0000
  H   H71       1.0  0.00597  0.01392  0.36601  1.0000
  S   S28       1.0  0.07266  0.34331  0.24372  1.0000
  C   C88       1.0  0.25258  0.01909  0.33556  1.0000
  Fe  Fe13      1.0  0.04787  0.36888  0.24917  1.0000
  S   S29       1.0  0.01895  0.37636  0.23725  1.0000
  Fe  Fe14      1.0  0.07770  0.34363  0.27396  1.0000
  S   S30       1.0  0.08319  0.31465  0.29474  1.0000
  S   S31       1.0  0.06777  0.39211  0.23732  1.0000
  S   S32       1.0  0.09953  0.36506  0.26426  1.0000
  C   C89       1.0  0.13705  0.29950  0.32621  1.0000
  C   C90       1.0  0.13439  0.31735  0.31302  1.0000
  C   C91       1.0  0.11784  0.32227  0.30345  1.0000
  C   C92       1.0  0.10392  0.30926  0.30684  1.0000
  C   C93       1.0  0.10662  0.29136  0.32000  1.0000
  C   C94       1.0  0.12311  0.28649  0.32971  1.0000
  H   H72       1.0  0.14501  0.32755  0.31038  1.0000
  H   H73       1.0  0.11599  0.33603  0.29333  1.0000
  H   H74       1.0  0.09595  0.28116  0.32264  1.0000
  H   H75       1.0  0.12509  0.27265  0.33980  1.0000
  C   C95       1.0  0.03150  0.06489  0.39533  1.0000
  H   H76       1.0  0.12287  0.39695  0.22425  1.0000
  C   C96       1.0  0.23062  0.16282  0.33066  1.0000
  C   C97       1.0  0.21107  0.17227  0.33639  1.0000
  C   C98       1.0  0.20712  0.18690  0.34853  1.0000
  C   C99       1.0  0.22276  0.19219  0.35509  1.0000
  C   C100      1.0  0.24236  0.18276  0.34935  1.0000
  C   C101      1.0  0.24631  0.16817  0.33709  1.0000
  H   H77       1.0  0.19889  0.16820  0.33148  1.0000
  H   H78       1.0  0.19197  0.19392  0.35294  1.0000
  H   H79       1.0  0.25453  0.18682  0.35437  1.0000
  H   H80       1.0  0.26145  0.16106  0.33265  1.0000
  C   C102      1.0  0.30423  0.00141  0.27255  1.0000
  C   C103      1.0  0.31263  0.01863  0.27140  1.0000
  C   C104      1.0  0.30107  0.03571  0.27828  1.0000
  C   C105      1.0  0.28082  0.03590  0.28575  1.0000
  C   C106      1.0  0.27245  0.01856  0.28717  1.0000
  C   C107      1.0  0.28419  0.00124  0.28081  1.0000
  H   H81       1.0  0.25675  0.01866  0.29279  1.0000
  C   C108      1.0  0.99780  0.41777  0.26579  1.0000
  C   C109      1.0  0.01959  0.45573  0.30677  1.0000
  C   C110      1.0  0.01945  0.43514  0.30852  1.0000
  C   C111      1.0  0.03626  0.42271  0.29996  1.0000
  C   C112      1.0  0.05327  0.43085  0.29008  1.0000
  C   C113      1.0  0.05342  0.45128  0.28882  1.0000
  H   H82       1.0  0.20196  0.18472  0.27475  1.0000
  H   H83       1.0  0.03604  0.40693  0.30097  1.0000
  H   H84       1.0  0.11521  0.29602  0.25525  1.0000
  C   C114      1.0  0.17945  0.23191  0.44887  1.0000
  P   P3        1.0  0.22087  0.11835  0.39732  1.0000
  H   H85       1.0  0.00481  0.32688  0.31892  1.0000
  H   H86       1.0  0.19763  0.18096  0.44304  1.0000
  C   C115      1.0  0.15347  0.07848  0.36595  1.0000
  C   C116      1.0  0.13753  0.14980  0.42190  1.0000
  C   C117      1.0  0.11738  0.15652  0.42066  1.0000
  C   C118      1.0  0.11161  0.17498  0.40924  1.0000
  C   C119      1.0  0.12604  0.18660  0.39899  1.0000
  C   C120      1.0  0.14617  0.17944  0.39969  1.0000
  C   C121      1.0  0.15182  0.16133  0.41143  1.0000
  H   H87       1.0  0.10623  0.14755  0.42846  1.0000
  H   H88       1.0  0.09601  0.18038  0.40860  1.0000
  H   H89       1.0  0.15745  0.18782  0.39114  1.0000
  H   H90       1.0  0.16729  0.15646  0.41265  1.0000
  C   C122      1.0  0.26973  0.02372  0.33993  1.0000
  S   S33       1.0  0.06275  0.01021  0.43819  1.0000
  C   C123      1.0  0.99123  0.11690  0.46307  1.0000
  S   S34       1.0  0.31019  0.13716  0.24098  1.0000
  H   H91       1.0  0.08545  0.27100  0.41923  1.0000
  C   C124      1.0  0.99453  0.04860  0.39660  1.0000
  H   H92       1.0  0.23644  0.23352  0.24639  1.0000
  H   H93       1.0  0.17825  0.16191  0.29111  1.0000
  H   H94       1.0  0.19768  0.18831  0.40756  1.0000
  H   H95       1.0  0.06652  0.45763  0.28133  1.0000
  C   C125      1.0  0.17787  0.17558  0.29664  1.0000
  C   C126      1.0  0.00527  0.40997  0.43909  1.0000
  H   H96       1.0  0.07598  0.03387  0.39714  1.0000
  H   H97       1.0  0.04027  0.03531  0.41084  1.0000
  C   C127      1.0  0.09663  0.07638  0.41038  1.0000
  H   H98       1.0  0.06553  0.46655  0.38440  1.0000
  H   H99       1.0  0.09365  0.99279  0.46126  1.0000
  C   C128      1.0  0.18884  0.07828  0.35431  1.0000
  C   C129      1.0  0.19678  0.24191  0.26592  1.0000
  H   H100      1.0  0.28128  0.18100  0.24588  1.0000
  H   H101      1.0  0.29969  0.12361  0.35607  1.0000
  H   H102      1.0  0.27755  0.98813  0.28147  1.0000
  C   C130      1.0  0.22151  0.09396  0.41243  1.0000
  C   C131      1.0  0.99703  0.02359  0.37595  1.0000
  C   C132      1.0  0.20200  0.16892  0.43450  1.0000
  H   H103      1.0  0.01400  0.34243  0.26839  1.0000
  C   C133      1.0  0.20721  0.15768  0.40339  1.0000
  C   C134      1.0  0.13133  0.31911  0.23830  1.0000
  H   H104      1.0  0.99069  0.33280  0.35267  1.0000
  H   H105      1.0  0.24352  0.03027  0.32663  1.0000
  C   C135      1.0  0.21489  0.23456  0.30137  1.0000
  H   H106      1.0  0.18085  0.05358  0.40062  1.0000
  C   C136      1.0  0.16369  0.19766  0.32024  1.0000
  H   H107      1.0  0.22506  0.11980  0.35469  1.0000
  C   C137      1.0  0.07059  0.19023  0.46431  1.0000
  C   C138      1.0  0.16420  0.24775  0.45300  1.0000
  H   H108      1.0  0.22417  0.04101  0.44404  1.0000
  C   C139      1.0  0.98750  0.10404  0.41343  1.0000
  C   C140      1.0  0.20185  0.17308  0.41452  1.0000
  C   C141      1.0  0.25359  0.13819  0.38114  1.0000
  H   H109      1.0  0.25153  0.09011  0.37742  1.0000
  H   H110      1.0  0.15495  0.08299  0.45789  1.0000
  C   C142      1.0  0.21328  0.13795  0.41209  1.0000
  C   C143      1.0  0.00928  0.12311  0.45314  1.0000
  C   C144      1.0  0.14695  0.32971  0.23701  1.0000
  H   H111      1.0  0.23186  0.18349  0.29295  1.0000
  S   S35       1.0  0.99881  0.47235  0.31609  1.0000
  H   H112      1.0  0.14861  0.37535  0.46313  1.0000
  H   H113      1.0  0.21874  0.11894  0.43914  1.0000
  H   H114      1.0  0.04244  0.43419  0.25040  1.0000
  C   C145      1.0  0.27691  0.10497  0.36630  1.0000
  H   H115      1.0  0.01021  0.13111  0.43840  1.0000
  H   H116      1.0  0.02676  0.07763  0.43245  1.0000
  H   H117      1.0  0.14975  0.02382  0.43040  1.0000
  C   C146      1.0  0.03657  0.46369  0.29680  1.0000
  S   S36       1.0  0.98917  0.41231  0.40654  1.0000
  C   C147      1.0  0.01523  0.37799  0.34423  1.0000
  H   H118      1.0  0.02690  0.46966  0.34330  1.0000
  C   C148      1.0  0.01047  0.99158  0.43970  1.0000
  C   C149      1.0  0.20644  0.25983  0.32254  1.0000
  C   C150      1.0  0.25972  0.98521  0.35294  1.0000
  C   C151      1.0  0.18047  0.23847  0.25879  1.0000
  C   C152      1.0  0.20938  0.12218  0.36096  1.0000
  C   C153      1.0  0.17786  0.27169  0.23968  1.0000
  H   H119      1.0  0.15304  0.20119  0.33304  1.0000
  C   C154      1.0  0.17734  0.06222  0.38701  1.0000
  C   C155      1.0  0.21379  0.13390  0.43213  1.0000
  C   C156      1.0  0.01595  0.41675  0.45066  1.0000
  C   C157      1.0  0.28179  0.00927  0.35099  1.0000
  H   H120      1.0  0.30067  0.03938  0.23484  1.0000
  H   H121      1.0  0.13724  0.28679  0.28005  1.0000
  H   H122      1.0  0.14468  0.08788  0.42607  1.0000
  C   C158      1.0  0.08053  0.09203  0.41194  1.0000
  H   H123      1.0  0.02005  0.46696  0.24854  1.0000
  H   H124      1.0  0.20980  0.08205  0.46387  1.0000
  C   C159      1.0  0.25713  0.18012  0.27021  1.0000
  C   C160      1.0  0.23937  0.19043  0.27920  1.0000
  C   C161      1.0  0.23141  0.20960  0.27065  1.0000
  C   C162      1.0  0.24192  0.21859  0.25315  1.0000
  H   H125      1.0  0.28606  0.09215  0.36047  1.0000
  H   H126      1.0  0.20688  0.16126  0.38791  1.0000
  C   C163      1.0  0.13723  0.03125  0.38023  1.0000
  H   H127      1.0  0.07764  0.19843  0.45095  1.0000
  C   C164      1.0  0.99260  0.04583  0.44374  1.0000
  C   C165      1.0  0.17062  0.39005  0.27546  1.0000
  C   C166      1.0  0.26739  0.18903  0.25271  1.0000
  H   H128      1.0  0.26299  0.16524  0.27696  1.0000
  P   P4        1.0  0.00555  0.06561  0.40613  1.0000
  C   C167      1.0  0.01279  0.43710  0.41301  1.0000
  H   H129      1.0  0.17489  0.22439  0.26331  1.0000
  C   C168      1.0  0.07113  0.23800  0.45956  1.0000
  C   C169      1.0  0.19145  0.18849  0.28749  1.0000
  C   C170      1.0  0.09918  0.34493  0.34137  1.0000
  C   C171      1.0  0.11515  0.33851  0.35151  1.0000
  C   C172      1.0  0.11320  0.32471  0.36868  1.0000
  C   C173      1.0  0.09522  0.31741  0.37579  1.0000
  C   C174      1.0  0.07926  0.32339  0.36543  1.0000
  C   C175      1.0  0.08134  0.33730  0.34821  1.0000
  P   P5        1.0  0.05609  0.31398  0.37512  1.0000
  C   C176      1.0  0.03967  0.31830  0.35742  1.0000
  C   C177      1.0  0.06131  0.28715  0.38174  1.0000
  C   C178      1.0  0.04718  0.27678  0.39469  1.0000
  C   C179      1.0  0.05124  0.25592  0.39962  1.0000
  C   C180      1.0  0.06930  0.24532  0.39147  1.0000
  C   C181      1.0  0.08309  0.25553  0.37811  1.0000
  C   C182      1.0  0.07908  0.27630  0.37313  1.0000
  C   C183      1.0  0.01906  0.32463  0.36256  1.0000
  C   C184      1.0  0.00655  0.32779  0.34870  1.0000
  C   C185      1.0  0.01445  0.32438  0.32972  1.0000
  C   C186      1.0  0.03479  0.31740  0.32471  1.0000
  C   C187      1.0  0.04730  0.31412  0.33856  1.0000
  C   C188      1.0  0.04490  0.32663  0.39562  1.0000
  C   C189      1.0  0.03506  0.34644  0.39240  1.0000
  C   C190      1.0  0.02651  0.35660  0.40805  1.0000
  C   C191      1.0  0.02815  0.34718  0.42702  1.0000
  C   C192      1.0  0.03850  0.32765  0.43033  1.0000
  C   C193      1.0  0.04697  0.31743  0.41468  1.0000
  H   H130      1.0  0.10088  0.35531  0.32782  1.0000
  H   H131      1.0  0.12927  0.34372  0.34574  1.0000
  H   H132      1.0  0.12581  0.31929  0.37620  1.0000
  H   H133      1.0  0.09398  0.30670  0.38912  1.0000
  H   H134      1.0  0.06940  0.34205  0.33985  1.0000
  H   H135      1.0  0.03302  0.28480  0.40084  1.0000
  H   H136      1.0  0.04036  0.24790  0.40961  1.0000
  H   H137      1.0  0.07263  0.22917  0.39527  1.0000
  H   H138      1.0  0.09690  0.24730  0.37145  1.0000
  H   H139      1.0  0.08987  0.28373  0.36241  1.0000
  H   H140      1.0  0.01251  0.32698  0.37724  1.0000
  H   H141      1.0  0.20023  0.12679  0.33302  1.0000
  H   H142      1.0  0.30766  0.04895  0.27712  1.0000
  H   H143      1.0  0.04090  0.31442  0.31007  1.0000
  H   H144      1.0  0.06296  0.30835  0.33451  1.0000
  H   H145      1.0  0.03406  0.35404  0.37776  1.0000
  H   H146      1.0  0.01880  0.37189  0.40547  1.0000
  H   H147      1.0  0.02495  0.07045  0.46795  1.0000
  H   H148      1.0  0.04009  0.32053  0.44503  1.0000
  H   H149      1.0  0.05526  0.30250  0.41748  1.0000
  C   C194      1.0  0.17495  0.13030  0.35602  1.0000
  C   C195      1.0  0.16864  0.12978  0.37600  1.0000
  C   C196      1.0  0.18267  0.12545  0.38843  1.0000
  C   C197      1.0  0.00147  0.99329  0.42348  1.0000
  H   H150      1.0  0.19231  0.37687  0.22744  1.0000
  C   C198      1.0  0.23856  0.08518  0.42068  1.0000
  H   H151      1.0  0.16414  0.13398  0.34631  1.0000
  H   H152      1.0  0.15292  0.13321  0.38189  1.0000
  H   H153      1.0  0.17759  0.12512  0.40388  1.0000
  C   C199      1.0  0.19528  0.12624  0.34855  1.0000
  C   C200      1.0  0.18824  0.21940  0.46397  1.0000
  H   H154      1.0  0.25118  0.09302  0.41828  1.0000
  H   H155      1.0  0.24498  0.15138  0.38655  1.0000
  C   C201      1.0  0.99145  0.04207  0.46395  1.0000
  C   C202      1.0  0.17852  0.37160  0.26935  1.0000
  H   H156      1.0  0.13412  0.10413  0.39394  1.0000
  C   C203      1.0  0.16399  0.18016  0.31301  1.0000
  C   C204      1.0  0.15571  0.30922  0.26669  1.0000
  C   C205      1.0  0.20796  0.14932  0.44332  1.0000
  H   H157      1.0  0.16601  0.09191  0.33721  1.0000
  C   C206      1.0  0.10713  0.23546  0.45229  1.0000
  H   H158      1.0  0.99549  0.39133  0.36749  1.0000
  H   H159      1.0  0.18165  0.10549  0.45122  1.0000
  C   C207      1.0  0.17102  0.25336  0.24579  1.0000
  P   P6        1.0  0.20881  0.22294  0.28307  1.0000
  Fe  Fe15      1.0  0.09285  0.36655  0.23446  1.0000
  H   H160      1.0  0.00631  0.42889  0.31605  1.0000
  C   C208      1.0  0.11841  0.02653  0.41292  1.0000
  C   C209      1.0  0.20613  0.31044  0.29561  1.0000
  C   C210      1.0  0.22463  0.30175  0.28640  1.0000
  C   C211      1.0  0.22954  0.30532  0.26610  1.0000
  C   C212      1.0  0.21583  0.31733  0.25499  1.0000
  C   C213      1.0  0.19707  0.32582  0.26415  1.0000
  C   C214      1.0  0.19247  0.32251  0.28457  1.0000
  P   P7        1.0  0.17843  0.33988  0.25010  1.0000
  C   C215      1.0  0.16765  0.36286  0.25949  1.0000
  H   H161      1.0  0.08586  0.34293  0.40982  1.0000
  C   C216      1.0  0.13223  0.01360  0.37699  1.0000
  C   C217      1.0  0.14802  0.07281  0.43371  1.0000
  C   C218      1.0  0.07149  0.04113  0.45233  1.0000
  C   C219      1.0  0.06551  0.04705  0.39279  1.0000
  C   C220      1.0  0.11615  0.08044  0.40353  1.0000
  C   C221      1.0  0.14899  0.37305  0.25557  1.0000
  C   C222      1.0  0.14105  0.39141  0.26182  1.0000
  C   C223      1.0  0.15189  0.39996  0.27168  1.0000
  H   H162      1.0  0.02172  0.03681  0.37844  1.0000
  S   S37       1.0  0.03890  0.44225  0.45722  1.0000
  C   C224      1.0  0.19416  0.27517  0.24659  1.0000
  C   C225      1.0  0.09002  0.22880  0.46387  1.0000
  H   H163      1.0  0.17916  0.39683  0.28284  1.0000
  H   H164      1.0  0.08793  0.06252  0.37370  1.0000
  C   C226      1.0  0.15911  0.32510  0.25134  1.0000
  H   H165      1.0  0.18907  0.25808  0.30140  1.0000
  H   H166      1.0  0.20221  0.30769  0.31136  1.0000
  H   H167      1.0  0.23515  0.29227  0.29501  1.0000
  H   H168      1.0  0.24397  0.29873  0.25898  1.0000
  H   H169      1.0  0.19366  0.05662  0.43034  1.0000
  H   H170      1.0  0.17811  0.32893  0.29197  1.0000
  C   C227      1.0  0.00499  0.05900  0.43213  1.0000
  H   H171      1.0  0.13761  0.00845  0.36312  1.0000
  H   H172      1.0  0.27728  0.99822  0.46612  1.0000
  C   C228      1.0  0.01062  0.38888  0.35961  1.0000
  C   C229      1.0  0.12779  0.30371  0.25384  1.0000
  H   H173      1.0  0.19937  0.28939  0.24191  1.0000
  H   H174      1.0  0.12657  0.39916  0.25875  1.0000
  H   H175      1.0  0.14582  0.41435  0.27620  1.0000
  C   C230      1.0  0.01695  0.06751  0.44103  1.0000
  H   H176      1.0  0.05489  0.26007  0.44017  1.0000
  C   C231      1.0  0.99805  0.36527  0.24944  1.0000
  C   C232      1.0  0.27301  0.13928  0.37123  1.0000
  C   C233      1.0  0.20237  0.25157  0.30758  1.0000
  S   S38       1.0  0.04844  0.12742  0.45003  1.0000
  H   H177      1.0  0.07129  0.12396  0.40860  1.0000
  H   H178      1.0  0.02810  0.40290  0.26120  1.0000
  H   H179      1.0  0.29020  0.10281  0.23461  1.0000
  C   C234      1.0  0.00232  0.98139  0.45758  1.0000
  C   C235      1.0  0.07578  0.02058  0.45162  1.0000
  H   H180      1.0  0.10426  0.00028  0.42096  1.0000
  H   H181      1.0  0.19639  0.27246  0.32777  1.0000
  H   H182      1.0  0.10558  0.13152  0.39648  1.0000
  H   H183      1.0  0.16463  0.30507  0.27806  1.0000
  C   C236      1.0  0.15747  0.06777  0.38404  1.0000
  H   H184      1.0  0.99198  0.40380  0.27044  1.0000
  C   C237      1.0  0.17732  0.21054  0.31117  1.0000
  C   C238      1.0  0.07220  0.06318  0.37963  1.0000
  C   C239      1.0  0.19148  0.20596  0.29487  1.0000
  H   H185      1.0  0.07632  0.43046  0.38351  1.0000
  H   H186      1.0  0.25288  0.05936  0.43800  1.0000
  H   H187      1.0  0.00360  0.37232  0.33982  1.0000
  H   H188      1.0  0.23451  0.99646  0.33798  1.0000
  C   C240      1.0  0.15650  0.03427  0.45434  1.0000
  C   C241      1.0  0.05740  0.17767  0.46320  1.0000
  H   H189      1.0  0.17037  0.28328  0.22976  1.0000
  C   C242      1.0  0.03831  0.08116  0.38225  1.0000
  C   C243      1.0  0.05862  0.08026  0.37443  1.0000
  H   H190      1.0  0.22198  0.98994  0.37686  1.0000
  C   C244      1.0  0.00329  0.42045  0.42045  1.0000
  H   H191      1.0  0.14073  0.36707  0.24728  1.0000
  C   C245      1.0  0.01378  0.45325  0.25310  1.0000
  H   H192      1.0  0.18491  0.22965  0.43398  1.0000
  C   C246      1.0  0.02641  0.43483  0.25416  1.0000
  C   C247      1.0  0.01595  0.06352  0.46120  1.0000
  C   C248      1.0  0.04526  0.04791  0.40060  1.0000
  H   H193      1.0  0.17679  0.22400  0.31698  1.0000
  C   C249      1.0  0.11348  0.00893  0.40960  1.0000
  C   C250      1.0  0.28467  0.12269  0.36385  1.0000
  H   H194      1.0  0.02384  0.99803  0.43840  1.0000
  H   H195      1.0  0.19180  0.08993  0.41023  1.0000
  C   C251      1.0  0.14016  0.29858  0.26785  1.0000
  H   H196      1.0  0.03849  0.36568  0.32281  1.0000
  C   C252      1.0  0.99313  0.45397  0.25824  1.0000
  C   C253      1.0  0.02538  0.43346  0.44321  1.0000
  C   C254      1.0  0.23955  0.06612  0.43195  1.0000
  H   H197      1.0  0.02806  0.09457  0.37817  1.0000
  H   H198      1.0  0.06385  0.09289  0.36446  1.0000
  C   C255      1.0  0.29315  0.07102  0.23543  1.0000
  H   H199      1.0  0.22570  0.25720  0.34349  1.0000
  H   H200      1.0  0.20824  0.14614  0.45879  1.0000
  H   H201      1.0  0.20824  0.06347  0.37464  1.0000
  C   C256      1.0  0.03489  0.37437  0.33457  1.0000
  C   C257      1.0  0.04989  0.38196  0.34003  1.0000
  C   C258      1.0  0.04526  0.39330  0.35522  1.0000
  C   C259      1.0  0.02553  0.39664  0.36497  1.0000
  P   P8        1.0  0.06416  0.40259  0.36353  1.0000
  C   C260      1.0  0.06577  0.38864  0.38763  1.0000
  C   C261      1.0  0.08813  0.39962  0.34777  1.0000
  C   C262      1.0  0.10577  0.39237  0.35549  1.0000
  C   C263      1.0  0.12415  0.38952  0.34312  1.0000
  C   C264      1.0  0.12513  0.39426  0.32298  1.0000
  C   C265      1.0  0.10780  0.40240  0.31523  1.0000
  C   C266      1.0  0.08941  0.40536  0.32758  1.0000
  C   C267      1.0  0.05677  0.39712  0.40432  1.0000
  C   C268      1.0  0.05889  0.38642  0.42281  1.0000
  C   C269      1.0  0.06957  0.36700  0.42480  1.0000
  C   C270      1.0  0.07784  0.35811  0.40829  1.0000
  C   C271      1.0  0.07577  0.36882  0.38980  1.0000
  C   C272      1.0  0.05693  0.42916  0.36358  1.0000
  C   C273      1.0  0.04329  0.44052  0.35195  1.0000
  C   C274      1.0  0.03755  0.46103  0.35222  1.0000
  H   H202      1.0  0.03179  0.45600  0.41831  1.0000
  C   C275      1.0  0.05938  0.45930  0.37528  1.0000
  C   C276      1.0  0.06536  0.43881  0.37484  1.0000
  C   C277      1.0  0.08173  0.04959  0.46304  1.0000
  H   H203      1.0  0.27747  0.07047  0.24098  1.0000
  C   C278      1.0  0.00594  0.03652  0.38321  1.0000
  H   H204      1.0  0.06495  0.37889  0.33232  1.0000
  H   H205      1.0  0.02173  0.40522  0.37681  1.0000
  H   H206      1.0  0.10549  0.38898  0.37102  1.0000
  H   H207      1.0  0.13765  0.38363  0.34916  1.0000
  H   H208      1.0  0.13933  0.39183  0.31342  1.0000
  H   H209      1.0  0.10854  0.40642  0.29963  1.0000
  H   H210      1.0  0.07614  0.41192  0.32135  1.0000
  H   H211      1.0  0.04814  0.41196  0.40318  1.0000
  H   H212      1.0  0.05226  0.39329  0.43559  1.0000
  H   H213      1.0  0.07124  0.35879  0.43915  1.0000
  C   C279      1.0  0.08658  0.25951  0.43189  1.0000
  H   H214      1.0  0.08218  0.36178  0.37715  1.0000
  H   H215      1.0  0.03703  0.43364  0.34261  1.0000
  H   H216      1.0  0.29520  0.01286  0.35421  1.0000
  H   H217      1.0  0.21989  0.31981  0.23930  1.0000
  H   H218      1.0  0.05445  0.17615  0.44919  1.0000
  C   C280      1.0  0.14316  0.17144  0.46432  1.0000
  H   H219      1.0  0.02169  0.35521  0.43908  1.0000
  H   H220      1.0  0.15827  0.25073  0.24054  1.0000
  C   C281      1.0  0.27685  0.99008  0.35747  1.0000
  C   C282      1.0  0.25984  0.20832  0.24424  1.0000
  C   C283      1.0  0.19294  0.06763  0.37225  1.0000
  H   H221      1.0  0.19329  0.36446  0.27192  1.0000
  Fe  Fe16      1.0  0.30515  0.10292  0.31162  1.0000
  C   C284      1.0  0.12041  0.00241  0.39170  1.0000
  C   C285      1.0  0.16913  0.08367  0.35116  1.0000
  C   C286      1.0  0.24759  0.99992  0.34197  1.0000
  C   C287      1.0  0.08374  0.11188  0.40673  1.0000
  C   C288      1.0  0.15401  0.07009  0.45177  1.0000
  H   H222      1.0  0.00809  0.00070  0.40957  1.0000
  C   C289      1.0  0.20356  0.26039  0.25970  1.0000
  H   H223      1.0  0.11348  0.17945  0.45794  1.0000
  C   C290      1.0  0.22341  0.05578  0.43532  1.0000
  H   H224      1.0  0.13828  0.08263  0.36324  1.0000
  H   H225      1.0  0.27384  0.03844  0.33440  1.0000
  H   H226      1.0  0.27894  0.15312  0.36908  1.0000
  Fe  Fe17      1.0  0.07512  0.11721  0.46543  1.0000
  C   C291      1.0  0.01838  0.41716  0.26042  1.0000
  C   C292      1.0  0.20525  0.08356  0.41611  1.0000
  S   S39       1.0  0.31090  0.09020  0.28381  1.0000
  H   H227      1.0  0.24801  0.22749  0.33255  1.0000
  C   C293      1.0  0.14583  0.05630  0.42595  1.0000
  C   C294      1.0  0.15071  0.03693  0.43616  1.0000
  H   H228      1.0  0.11302  0.03118  0.42703  1.0000
  H   H229      1.0  0.06559  0.08880  0.41779  1.0000
  H   H230      1.0  0.09366  0.06126  0.41506  1.0000
  C   C295      1.0  0.02418  0.44332  0.42423  1.0000
  H   H231      1.0  0.14650  0.03951  0.36860  1.0000
  C   C296      1.0  0.11922  0.10049  0.39846  1.0000
  C   C297      1.0  0.30831  0.99455  0.46841  1.0000
  C   C298      1.0  0.13050  0.03779  0.39833  1.0000
  P   P9        1.0  0.13729  0.06035  0.40288  1.0000
  C   C299      1.0  0.06944  0.25329  0.44361  1.0000
  H   H232      1.0  0.24105  0.21258  0.30649  1.0000
  C   C300      1.0  0.10307  0.11610  0.39996  1.0000
  H   H233      1.0  0.15356  0.17011  0.32019  1.0000
  C   C301      1.0  0.23153  0.22609  0.31034  1.0000
  H   H234      1.0  0.21607  0.26339  0.26506  1.0000
  Fe  Fe18      1.0  0.11968  0.11751  0.45884  1.0000
  C   C302      1.0  0.04539  0.47039  0.36405  1.0000
  C   C303      1.0  0.20624  0.06457  0.42754  1.0000
  C   C304      1.0  0.09047  0.00861  0.46148  1.0000
  H   H235      1.0  0.31160  0.00654  0.45652  1.0000
  H   H236      1.0  0.11667  0.98860  0.38930  1.0000
  C   C305      1.0  0.23563  0.23456  0.32514  1.0000
  H   H237      1.0  0.14922  0.34183  0.22500  1.0000
  H   H238      1.0  0.01180  0.44490  0.39845  1.0000
  C   C306      1.0  0.99970  0.34855  0.26403  1.0000
  C   C307      1.0  0.10532  0.25070  0.43636  1.0000
  H   H239      1.0  0.12165  0.32320  0.22747  1.0000
  H   H240      1.0  0.15918  0.01939  0.46264  1.0000
  H   H241      1.0  0.05776  0.23307  0.46837  1.0000
  C   C308      1.0  0.12352  0.18153  0.46696  1.0000
  C   C309      1.0  0.99168  0.09038  0.40029  1.0000
  H   H242      1.0  0.16038  0.33865  0.46684  1.0000
  H   H243      1.0  0.12192  0.22882  0.45526  1.0000
  C   C310      1.0  0.15798  0.05086  0.46222  1.0000
  H   H244      1.0  0.11859  0.25552  0.42734  1.0000
  H   H245      1.0  0.31698  0.00417  0.31870  1.0000
  C   C311      1.0  0.02606  0.11913  0.46234  1.0000
  H   H246      1.0  0.07795  0.06536  0.46392  1.0000
  C   C312      1.0  0.30033  0.08916  0.23197  1.0000
  H   H247      1.0  0.14809  0.16185  0.45335  1.0000
  H   H248      1.0  0.01707  0.40898  0.46525  1.0000
  H   H249      1.0  0.20040  0.20752  0.46061  1.0000
  C   C313      1.0  0.18411  0.10513  0.46588  1.0000
  C   C314      1.0  0.30628  0.05348  0.23206  1.0000
  H   H250      1.0  0.26802  0.21534  0.23085  1.0000
  H   H251      1.0  0.98754  0.08571  0.37220  1.0000
  H   H252      1.0  0.28668  0.97907  0.36565  1.0000
  H   H253      1.0  0.00935  0.98038  0.47005  1.0000
  S   S40       1.0  0.09334  0.13891  0.47014  1.0000
  H   H254      1.0  0.99857  0.11946  0.53534  1.0000
  S   S41       1.0  0.07540  0.09909  0.49516  1.0000
  C   C315      1.0  0.19954  0.36231  0.56611  1.0000
  H   H255      1.0  0.27853  0.99557  0.57829  1.0000
  S   S42       1.0  0.08599  0.13141  0.52735  1.0000
  H   H256      1.0  0.04125  0.47411  0.53278  1.0000
  Fe  Fe19      1.0  0.05786  0.41352  0.52155  1.0000
  S   S43       1.0  0.03095  0.41174  0.54491  1.0000
  S   S44       1.0  0.09038  0.40580  0.52332  1.0000
  C   C316      1.0  0.01673  0.35032  0.70609  1.0000
  Fe  Fe20      1.0  0.01872  0.39969  0.52340  1.0000
  H   H257      1.0  0.06011  0.45514  0.62635  1.0000
  S   S45       1.0  0.04681  0.39891  0.50122  1.0000
  C   C317      1.0  0.19378  0.10777  0.59583  1.0000
  H   H258      1.0  0.01984  0.13861  0.50904  1.0000
  C   C318      1.0  0.12971  0.37385  0.49123  1.0000
  H   H259      1.0  0.03011  0.40069  0.67210  1.0000
  S   S46       1.0  0.27487  0.13841  0.64932  1.0000
  H   H260      1.0  0.11257  0.31004  0.49832  1.0000
  H   H261      1.0  0.03912  0.31386  0.60228  1.0000
  H   H262      1.0  0.25755  0.10264  0.65637  1.0000
  S   S47       1.0  0.04693  0.44468  0.50785  1.0000
  C   C319      1.0  0.04582  0.28924  0.57318  1.0000
  C   C320      1.0  0.08839  0.99650  0.54099  1.0000
  C   C321      1.0  0.26586  0.05299  0.65396  1.0000
  H   H263      1.0  0.14825  0.31662  0.49684  1.0000
  H   H264      1.0  0.14589  0.26307  0.47562  1.0000
  H   H265      1.0  0.12010  0.25207  0.55119  1.0000
  C   C322      1.0  0.00916  0.27059  0.61988  1.0000
  C   C323      1.0  0.19996  0.09196  0.47300  1.0000
  Fe  Fe21      1.0  0.06288  0.35617  0.65091  1.0000
  S   S48       1.0  0.08542  0.34202  0.62795  1.0000
  S   S49       1.0  0.03014  0.36531  0.64796  1.0000
  Fe  Fe22      1.0  0.09480  0.36040  0.67373  1.0000
  S   S50       1.0  0.11957  0.34589  0.65300  1.0000
  S   S51       1.0  0.09831  0.37220  0.70061  1.0000
  Fe  Fe23      1.0  0.10367  0.36474  0.62952  1.0000
  S   S52       1.0  0.12215  0.37945  0.60296  1.0000
  Fe  Fe24      1.0  0.09952  0.32400  0.65293  1.0000
  S   S53       1.0  0.11169  0.29082  0.65440  1.0000
  S   S54       1.0  0.08023  0.38088  0.65011  1.0000
  S   S55       1.0  0.07565  0.33666  0.67609  1.0000
  Fe  Fe25      1.0  0.15458  0.18736  0.56810  1.0000
  S   S56       1.0  0.18413  0.17566  0.55193  1.0000
  S   S57       1.0  0.12839  0.17093  0.57762  1.0000
  Fe  Fe26      1.0  0.16635  0.22680  0.56959  1.0000
  S   S58       1.0  0.19739  0.21847  0.55296  1.0000
  S   S59       1.0  0.15339  0.25852  0.57543  1.0000
  Fe  Fe27      1.0  0.18233  0.20619  0.53378  1.0000
  S   S60       1.0  0.19349  0.20626  0.50158  1.0000
  Fe  Fe28      1.0  0.19761  0.18833  0.57225  1.0000
  S   S61       1.0  0.22722  0.16879  0.57815  1.0000
  S   S62       1.0  0.15146  0.21685  0.54851  1.0000
  S   S63       1.0  0.16759  0.19762  0.59040  1.0000
  H   H266      1.0  0.17168  0.16605  0.47364  1.0000
  H   H267      1.0  0.04282  0.44950  0.56338  1.0000
  H   H268      1.0  0.25005  0.00343  0.60424  1.0000
  Fe  Fe29      1.0  0.03378  0.42994  0.48919  1.0000
  C   C324      1.0  0.01003  0.37092  0.70375  1.0000
  C   C325      1.0  0.30752  0.01462  0.62029  1.0000
  C   C326      1.0  0.02240  0.46416  0.60410  1.0000
  H   H269      1.0  0.07332  0.45077  0.53846  1.0000
  C   C327      1.0  0.12214  0.28139  0.63242  1.0000
  C   C328      1.0  0.13121  0.26125  0.63293  1.0000
  C   C329      1.0  0.14052  0.25378  0.61561  1.0000
  C   C330      1.0  0.14091  0.26647  0.59767  1.0000
  C   C331      1.0  0.13140  0.28642  0.59723  1.0000
  C   C332      1.0  0.12200  0.29382  0.61443  1.0000
  H   H270      1.0  0.13131  0.25147  0.64678  1.0000
  H   H271      1.0  0.14774  0.23836  0.61619  1.0000
  H   H272      1.0  0.13148  0.29637  0.58354  1.0000
  H   H273      1.0  0.11500  0.30928  0.61374  1.0000
  C   C333      1.0  0.01335  0.34825  0.65043  1.0000
  C   C334      1.0  0.01622  0.32909  0.66137  1.0000
  C   C335      1.0  0.00228  0.31615  0.66327  1.0000
  C   C336      1.0  0.19035  0.10446  0.50378  1.0000
  C   C337      1.0  0.20798  0.14060  0.51291  1.0000
  H   H274      1.0  0.15901  0.12806  0.47216  1.0000
  H   H275      1.0  0.02906  0.32434  0.66856  1.0000
  H   H276      1.0  0.00457  0.30138  0.67180  1.0000
  H   H277      1.0  0.05196  0.36476  0.53512  1.0000
  H   H278      1.0  0.10898  0.20499  0.59312  1.0000
  C   C338      1.0  0.15205  0.39892  0.70796  1.0000
  C   C339      1.0  0.15257  0.39072  0.69119  1.0000
  C   C340      1.0  0.13624  0.38260  0.68872  1.0000
  C   C341      1.0  0.11904  0.38277  0.70290  1.0000
  H   H279      1.0  0.30133  0.18957  0.67850  1.0000
  H   H280      1.0  0.20487  0.34471  0.59351  1.0000
  H   H281      1.0  0.16570  0.39064  0.68004  1.0000
  H   H282      1.0  0.13705  0.37592  0.67600  1.0000
  C   C342      1.0  0.00594  0.42839  0.59071  1.0000
  H   H283      1.0  0.00894  0.32125  0.70774  1.0000
  C   C343      1.0  0.26172  0.14669  0.62944  1.0000
  C   C344      1.0  0.24282  0.15869  0.63223  1.0000
  C   C345      1.0  0.23199  0.16565  0.61676  1.0000
  C   C346      1.0  0.24005  0.16080  0.59827  1.0000
  C   C347      1.0  0.25897  0.14882  0.59550  1.0000
  C   C348      1.0  0.26971  0.14173  0.61097  1.0000
  H   H284      1.0  0.23652  0.16263  0.64645  1.0000
  H   H285      1.0  0.21748  0.17483  0.61913  1.0000
  H   H286      1.0  0.26537  0.14502  0.58125  1.0000
  H   H287      1.0  0.28423  0.13256  0.60857  1.0000
  C   C349      1.0  0.15455  0.30784  0.54739  1.0000
  C   C350      1.0  0.07203  0.33915  0.57432  1.0000
  C   C351      1.0  0.02895  0.30399  0.57112  1.0000
  Fe  Fe30      1.0  0.01879  0.44186  0.52932  1.0000
  C   C352      1.0  0.04418  0.31649  0.53841  1.0000
  C   C353      1.0  0.25780  0.01531  0.59572  1.0000
  H   H288      1.0  0.07498  0.27706  0.55854  1.0000
  C   C354      1.0  0.11608  0.26188  0.52139  1.0000
  H   H289      1.0  0.14974  0.34988  0.57805  1.0000
  C   C355      1.0  0.02826  0.31766  0.55389  1.0000
  C   C356      1.0  0.07934  0.99702  0.56046  1.0000
  C   C357      1.0  0.05350  0.44323  0.63626  1.0000
  C   C358      1.0  0.27389  0.01085  0.58105  1.0000
  C   C359      1.0  0.09828  0.39704  0.54582  1.0000
  C   C360      1.0  0.08521  0.39137  0.56295  1.0000
  C   C361      1.0  0.09242  0.38514  0.58070  1.0000
  C   C362      1.0  0.11254  0.38510  0.58120  1.0000
  C   C363      1.0  0.12549  0.39054  0.56402  1.0000
  C   C364      1.0  0.11845  0.39620  0.54638  1.0000
  H   H290      1.0  0.06958  0.39208  0.56258  1.0000
  H   H291      1.0  0.08233  0.38108  0.59399  1.0000
  H   H292      1.0  0.14101  0.39048  0.56436  1.0000
  H   H293      1.0  0.12859  0.40049  0.53317  1.0000
  C   C365      1.0  0.09865  0.14378  0.53934  1.0000
  C   C366      1.0  0.08922  0.14759  0.55785  1.0000
  C   C367      1.0  0.09846  0.15643  0.56893  1.0000
  C   C368      1.0  0.11720  0.16194  0.56158  1.0000
  C   C369      1.0  0.12659  0.15893  0.54266  1.0000
  C   C370      1.0  0.11734  0.14964  0.53153  1.0000
  H   H294      1.0  0.07480  0.14318  0.56393  1.0000
  H   H295      1.0  0.09117  0.15863  0.58349  1.0000
  H   H296      1.0  0.14116  0.16309  0.53694  1.0000
  H   H297      1.0  0.12466  0.14687  0.51715  1.0000
  H   H298      1.0  0.23712  0.08969  0.52349  1.0000
  C   C371      1.0  0.98950  0.26685  0.62438  1.0000
  C   C372      1.0  0.09171  0.02780  0.55959  1.0000
  C   C373      1.0  0.11435  0.29751  0.50996  1.0000
  H   H299      1.0  0.20550  0.13398  0.59766  1.0000
  H   H300      1.0  0.17854  0.11549  0.59674  1.0000
  S   S64       1.0  0.10933  0.04764  0.48664  1.0000
  C   C374      1.0  0.19933  0.06546  0.54958  1.0000
  C   C375      1.0  0.99646  0.35428  0.64141  1.0000
  H   H301      1.0  0.07090  0.98554  0.56853  1.0000
  C   C376      1.0  0.25927  0.08903  0.65031  1.0000
  C   C377      1.0  0.25245  0.03474  0.60008  1.0000
  C   C378      1.0  0.21892  0.15564  0.51287  1.0000
  C   C379      1.0  0.13684  0.33873  0.55806  1.0000
  H   H302      1.0  0.17775  0.32130  0.57962  1.0000
  C   C380      1.0  0.14105  0.42120  0.64703  1.0000
  C   C381      1.0  0.14968  0.34500  0.47829  1.0000
  H   H303      1.0  0.26485  0.06963  0.67690  1.0000
  H   H304      1.0  0.29928  0.07576  0.59980  1.0000
  C   C382      1.0  0.06659  0.17975  0.49923  1.0000
  H   H305      1.0  0.24042  0.03155  0.55870  1.0000
  C   C383      1.0  0.01944  0.38733  0.59944  1.0000
  C   C384      1.0  0.02990  0.40106  0.60337  1.0000
  C   C385      1.0  0.02280  0.42168  0.59973  1.0000
  C   C386      1.0  0.00298  0.05104  0.47270  1.0000
  P   P10       1.0  0.03634  0.43911  0.60536  1.0000
  C   C387      1.0  0.04118  0.43269  0.63002  1.0000
  C   C388      1.0  0.05884  0.43907  0.58750  1.0000
  C   C389      1.0  0.07777  0.43290  0.59282  1.0000
  C   C390      1.0  0.09493  0.43413  0.57871  1.0000
  C   C391      1.0  0.09330  0.44092  0.55918  1.0000
  C   C392      1.0  0.07452  0.44629  0.55370  1.0000
  C   C393      1.0  0.05733  0.44536  0.56780  1.0000
  C   C394      1.0  0.07720  0.21460  0.59582  1.0000
  H   H306      1.0  0.19988  0.14199  0.50112  1.0000
  C   C395      1.0  0.04930  0.42282  0.66816  1.0000
  C   C396      1.0  0.03640  0.41283  0.66228  1.0000
  C   C397      1.0  0.03216  0.41787  0.64339  1.0000
  C   C398      1.0  0.18165  0.22237  0.48334  1.0000
  H   H307      1.0  0.12400  0.09359  0.55020  1.0000
  C   C399      1.0  0.30449  0.11252  0.56059  1.0000
  C   C400      1.0  0.13098  0.19742  0.49160  1.0000
  H   H308      1.0  0.02468  0.37143  0.60293  1.0000
  H   H309      1.0  0.04334  0.39555  0.60962  1.0000
  H   H310      1.0  0.11641  0.24690  0.51860  1.0000
  H   H311      1.0  0.07947  0.42674  0.60768  1.0000
  H   H312      1.0  0.10951  0.42907  0.58283  1.0000
  H   H313      1.0  0.10659  0.44122  0.54816  1.0000
  H   H314      1.0  0.19151  0.38300  0.54101  1.0000
  C   C401      1.0  0.06092  0.30176  0.54022  1.0000
  H   H315      1.0  0.10104  0.32128  0.57336  1.0000
  C   C402      1.0  0.06180  0.28820  0.55753  1.0000
  H   H316      1.0  0.05302  0.41848  0.68266  1.0000
  H   H317      1.0  0.23985  0.11662  0.59674  1.0000
  H   H318      1.0  0.02204  0.40992  0.63935  1.0000
  C   C403      1.0  0.00384  0.14335  0.51149  1.0000
  H   H319      1.0  0.06863  0.33643  0.59005  1.0000
  H   H320      1.0  0.20351  0.03594  0.56654  1.0000
  H   H321      1.0  0.17490  0.41013  0.55989  1.0000
  C   C404      1.0  0.01415  0.25595  0.59056  1.0000
  C   C405      1.0  0.02169  0.26507  0.60295  1.0000
  C   C406      1.0  0.16873  0.30709  0.55911  1.0000
  P   P11       1.0  0.04636  0.27180  0.59570  1.0000
  C   C407      1.0  0.05164  0.28371  0.61412  1.0000
  C   C408      1.0  0.06599  0.25050  0.59335  1.0000
  C   C409      1.0  0.08599  0.25333  0.59059  1.0000
  C   C410      1.0  0.10138  0.23696  0.59037  1.0000
  C   C411      1.0  0.04656  0.30447  0.61354  1.0000
  C   C412      1.0  0.05107  0.31345  0.62774  1.0000
  C   C413      1.0  0.06061  0.30182  0.64264  1.0000
  C   C414      1.0  0.06554  0.28116  0.64344  1.0000
  C   C415      1.0  0.06088  0.27207  0.62939  1.0000
  H   H322      1.0  0.06766  0.44595  0.65977  1.0000
  C   C416      1.0  0.18913  0.37444  0.59711  1.0000
  C   C417      1.0  0.20890  0.11815  0.59657  1.0000
  H   H323      1.0  0.02340  0.25204  0.57720  1.0000
  H   H324      1.0  0.11281  0.36800  0.51985  1.0000
  H   H325      1.0  0.08972  0.26817  0.58919  1.0000
  H   H326      1.0  0.11675  0.23919  0.58859  1.0000
  H   H327      1.0  0.04713  0.32948  0.62721  1.0000
  H   H328      1.0  0.06426  0.30877  0.65358  1.0000
  H   H329      1.0  0.07322  0.27225  0.65486  1.0000
  H   H330      1.0  0.06472  0.25598  0.63044  1.0000
  C   C418      1.0  0.22742  0.36749  0.65799  1.0000
  C   C419      1.0  0.19861  0.35919  0.58627  1.0000
  H   H331      1.0  0.00173  0.04852  0.48838  1.0000
  C   C420      1.0  0.99032  0.37846  0.70127  1.0000
  H   H332      1.0  0.10885  0.03919  0.53219  1.0000
  H   H333      1.0  0.12702  0.20803  0.50166  1.0000
  P   P12       1.0  0.18632  0.36945  0.62338  1.0000
  C   C421      1.0  0.17676  0.34601  0.63109  1.0000
  C   C422      1.0  0.28455  0.02587  0.57059  1.0000
  C   C423      1.0  0.22793  0.36542  0.61898  1.0000
  C   C424      1.0  0.04217  0.98082  0.49594  1.0000
  C   C425      1.0  0.17450  0.11773  0.49647  1.0000
  H   H334      1.0  0.22100  0.06186  0.59209  1.0000
  C   C426      1.0  0.15651  0.17388  0.47566  1.0000
  C   C427      1.0  0.18240  0.33234  0.64720  1.0000
  C   C428      1.0  0.17582  0.31377  0.65212  1.0000
  C   C429      1.0  0.16359  0.30869  0.64103  1.0000
  C   C430      1.0  0.15790  0.32221  0.62505  1.0000
  C   C431      1.0  0.16424  0.34084  0.62024  1.0000
  C   C432      1.0  0.16867  0.38947  0.63316  1.0000
  C   C433      1.0  0.14818  0.38909  0.63603  1.0000
  C   C434      1.0  0.13440  0.40495  0.64277  1.0000
  C   C435      1.0  0.23316  0.08757  0.59512  1.0000
  C   C436      1.0  0.17526  0.40616  0.63693  1.0000
  H   H335      1.0  0.18080  0.29452  0.55983  1.0000
  C   C437      1.0  0.16148  0.42182  0.64408  1.0000
  H   H336      1.0  0.16099  0.24040  0.50248  1.0000
  H   H337      1.0  0.30532  0.15493  0.67178  1.0000
  C   C438      1.0  0.21078  0.04775  0.55717  1.0000
  H   H338      1.0  0.22851  0.36473  0.60382  1.0000
  C   C439      1.0  0.12850  0.34060  0.51003  1.0000
  C   C440      1.0  0.15112  0.33805  0.56960  1.0000
  C   C441      1.0  0.11760  0.30031  0.52806  1.0000
  P   P13       1.0  0.19409  0.10420  0.52823  1.0000
  C   C442      1.0  0.99183  0.13250  0.52635  1.0000
  H   H339      1.0  0.18020  0.30326  0.66453  1.0000
  H   H340      1.0  0.15828  0.29439  0.64491  1.0000
  H   H341      1.0  0.14820  0.31843  0.61661  1.0000
  H   H342      1.0  0.15921  0.35129  0.60811  1.0000
  H   H343      1.0  0.14280  0.37654  0.63310  1.0000
  H   H344      1.0  0.16448  0.12789  0.50532  1.0000
  C   C443      1.0  0.22918  0.15467  0.52811  1.0000
  C   C444      1.0  0.00365  0.33722  0.70627  1.0000
  C   C445      1.0  0.05817  0.35142  0.56362  1.0000
  C   C446      1.0  0.05769  0.43817  0.65521  1.0000
  C   C447      1.0  0.21797  0.07748  0.59344  1.0000
  C   C448      1.0  0.11374  0.27831  0.50662  1.0000
  H   H345      1.0  0.19558  0.37055  0.66143  1.0000
  C   C449      1.0  0.20963  0.36767  0.63175  1.0000
  H   H346      1.0  0.07396  0.19948  0.59807  1.0000
  H   H347      1.0  0.09277  0.04005  0.56664  1.0000
  Fe  Fe31      1.0  0.10325  0.08118  0.48157  1.0000
  H   H348      1.0  0.06908  0.01816  0.51099  1.0000
  C   C450      1.0  0.07509  0.19161  0.48240  1.0000
  C   C451      1.0  0.28902  0.98986  0.47382  1.0000
  H   H349      1.0  0.12082  0.28571  0.55733  1.0000
  H   H350      1.0  0.99186  0.30811  0.53658  1.0000
  H   H351      1.0  0.04365  0.32734  0.52519  1.0000
  H   H352      1.0  0.01642  0.30519  0.58298  1.0000
  C   C452      1.0  0.06169  0.23094  0.59620  1.0000
  H   H353      1.0  0.25739  0.10459  0.56178  1.0000
  C   C453      1.0  0.31654  0.14150  0.69823  1.0000
  C   C454      1.0  0.26471  0.05401  0.63439  1.0000
  H   H354      1.0  0.04346  0.03060  0.49046  1.0000
  H   H355      1.0  0.14222  0.30356  0.68745  1.0000
  H   H356      1.0  0.02629  0.00699  0.48038  1.0000
  C   C455      1.0  0.22847  0.10815  0.59615  1.0000
  P   P14       1.0  0.25815  0.07443  0.59728  1.0000
  H   H357      1.0  0.23697  0.16677  0.52847  1.0000
  C   C456      1.0  0.26333  0.04991  0.58993  1.0000
  C   C457      1.0  0.14312  0.36566  0.47622  1.0000
  C   C458      1.0  0.06675  0.98680  0.51324  1.0000
  H   H358      1.0  0.13420  0.33929  0.69134  1.0000
  C   C459      1.0  0.22958  0.07809  0.53290  1.0000
  H   H359      1.0  0.10633  0.01162  0.51598  1.0000
  C   C460      1.0  0.30920  0.15761  0.68501  1.0000
  H   H360      1.0  0.25540  0.10474  0.62211  1.0000
  C   C461      1.0  0.25793  0.09013  0.63077  1.0000
  P   P15       1.0  0.09203  0.20811  0.48364  1.0000
  C   C462      1.0  0.19106  0.38068  0.55660  1.0000
  H   H361      1.0  0.19191  0.33582  0.65595  1.0000
  H   H362      1.0  0.22721  0.36840  0.67308  1.0000
  H   H363      1.0  0.00099  0.44420  0.58634  1.0000
  H   H364      1.0  0.11194  0.27609  0.49243  1.0000
  C   C463      1.0  0.09052  0.33074  0.56477  1.0000
  C   C464      1.0  0.14801  0.11987  0.57134  1.0000
  H   H365      1.0  0.07396  0.01303  0.58470  1.0000
  C   C465      1.0  0.20743  0.12428  0.52818  1.0000
  C   C466      1.0  0.22866  0.13853  0.54335  1.0000
  C   C467      1.0  0.21781  0.12343  0.54344  1.0000
  H   H366      1.0  0.14522  0.12870  0.58296  1.0000
  H   H367      1.0  0.11833  0.11256  0.57758  1.0000
  H   H368      1.0  0.17762  0.12639  0.56098  1.0000
  H   H369      1.0  0.18326  0.06708  0.55333  1.0000
  H   H370      1.0  0.23622  0.13809  0.55537  1.0000
  H   H371      1.0  0.21736  0.11122  0.55553  1.0000
  H   H372      1.0  0.28204  0.12546  0.54280  1.0000
  C   C468      1.0  0.14272  0.32865  0.70113  1.0000
  C   C469      1.0  0.08127  0.34691  0.53372  1.0000
  C   C470      1.0  0.99514  0.15981  0.49947  1.0000
  C   C471      1.0  0.18175  0.39598  0.56723  1.0000
  H   H373      1.0  0.01424  0.27813  0.62955  1.0000
  C   C472      1.0  0.99451  0.25207  0.59522  1.0000
  C   C473      1.0  0.08574  0.21717  0.50675  1.0000
  H   H374      1.0  0.11858  0.40435  0.64505  1.0000
  H   H375      1.0  0.25989  0.36238  0.61582  1.0000
  C   C474      1.0  0.18075  0.39291  0.58741  1.0000
  H   H376      1.0  0.28829  0.05643  0.56708  1.0000
  H   H377      1.0  0.15685  0.08968  0.52891  1.0000
  H   H378      1.0  0.25942  0.36423  0.65041  1.0000
  C   C475      1.0  0.07669  0.23707  0.50789  1.0000
  C   C476      1.0  0.07293  0.24423  0.52561  1.0000
  C   C477      1.0  0.07840  0.23168  0.54224  1.0000
  C   C478      1.0  0.08729  0.21186  0.54129  1.0000
  C   C479      1.0  0.09079  0.20458  0.52368  1.0000
  H   H379      1.0  0.16663  0.43436  0.64754  1.0000
  C   C480      1.0  0.30929  0.09849  0.57664  1.0000
  C   C481      1.0  0.06277  0.35524  0.54335  1.0000
  C   C482      1.0  0.20865  0.08084  0.53744  1.0000
  H   H380      1.0  0.31860  0.12641  0.69512  1.0000
  H   H381      1.0  0.07336  0.30107  0.52829  1.0000
  C   C483      1.0  0.10085  0.02729  0.54026  1.0000
  H   H382      1.0  0.17298  0.40482  0.59535  1.0000
  C   C484      1.0  0.06160  0.00748  0.50718  1.0000
  C   C485      1.0  0.12267  0.36138  0.50814  1.0000
  H   H383      1.0  0.20657  0.35038  0.55787  1.0000
  H   H384      1.0  0.13038  0.43319  0.65280  1.0000
  C   C486      1.0  0.26036  0.07262  0.62261  1.0000
  Fe  Fe32      1.0  0.09550  0.11949  0.49900  1.0000
  C   C487      1.0  0.13605  0.10007  0.55290  1.0000
  H   H385      1.0  0.04649  0.22813  0.59916  1.0000
  S   S65       1.0  0.00045  0.46655  0.54517  1.0000
  H   H386      1.0  0.06616  0.25964  0.52635  1.0000
  H   H387      1.0  0.07603  0.23738  0.55578  1.0000
  H   H388      1.0  0.09176  0.20212  0.55414  1.0000
  H   H389      1.0  0.09791  0.18924  0.52318  1.0000
  C   C488      1.0  0.14864  0.33504  0.71626  1.0000
  H   H390      1.0  0.21547  0.08131  0.49714  1.0000
  H   H391      1.0  0.30775  0.01945  0.60485  1.0000
  H   H392      1.0  0.19098  0.40710  0.63442  1.0000
  C   C489      1.0  0.00674  0.10273  0.49128  1.0000
  C   C490      1.0  0.05362  0.16701  0.49803  1.0000
  C   C491      1.0  0.27615  0.08947  0.58286  1.0000
  C   C492      1.0  0.16638  0.11854  0.55881  1.0000
  C   C493      1.0  0.20312  0.09161  0.49189  1.0000
  C   C494      1.0  0.15458  0.09821  0.54067  1.0000
  C   C495      1.0  0.09934  0.01163  0.53106  1.0000
  C   C496      1.0  0.17141  0.11798  0.47762  1.0000
  C   C497      1.0  0.20953  0.36873  0.65132  1.0000
  H   H393      1.0  0.26779  0.04016  0.62865  1.0000
  C   C498      1.0  0.14721  0.30851  0.69900  1.0000
  P   P16       1.0  0.11976  0.32475  0.53220  1.0000
  C   C499      1.0  0.16988  0.10752  0.54349  1.0000
  C   C500      1.0  0.26327  0.07048  0.66190  1.0000
  C   C501      1.0  0.27173  0.10292  0.56620  1.0000
  C   C502      1.0  0.15037  0.18678  0.48935  1.0000
  C   C503      1.0  0.09547  0.33494  0.54440  1.0000
  C   C504      1.0  0.24556  0.36517  0.64522  1.0000
  H   H394      1.0  0.26943  0.03860  0.66289  1.0000
  C   C505      1.0  0.16695  0.32210  0.57032  1.0000
  C   C506      1.0  0.28578  0.11459  0.55525  1.0000
  C   C507      1.0  0.08106  0.01261  0.56972  1.0000
  S   S66       1.0  0.12363  0.09967  0.48821  1.0000
  H   H395      1.0  0.12469  0.35121  0.55765  1.0000
  C   C508      1.0  0.00246  0.46733  0.61344  1.0000
  C   C509      1.0  0.14259  0.33252  0.49524  1.0000
  H   H396      1.0  0.03732  0.10584  0.48867  1.0000
  H   H397      1.0  0.01554  0.32944  0.55262  1.0000
  C   C510      1.0  0.19835  0.08756  0.59385  1.0000
  H   H398      1.0  0.15624  0.29602  0.53886  1.0000
  H   H399      1.0  0.00581  0.09490  0.50609  1.0000
  C   C511      1.0  0.13811  0.32333  0.54734  1.0000
  H   H400      1.0  0.20684  0.37543  0.70585  1.0000
  C   C512      1.0  0.09700  0.21764  0.59296  1.0000
  C   C513      1.0  0.13283  0.11075  0.56834  1.0000
  C   C514      1.0  0.11824  0.26475  0.53971  1.0000
  H   H401      1.0  0.04390  0.35810  0.57097  1.0000
  C   C515      1.0  0.11882  0.28389  0.54311  1.0000
  H   H402      1.0  0.18661  0.07964  0.59294  1.0000
  C   C516      1.0  0.30442  0.99503  0.62865  1.0000
  C   C517      1.0  0.27933  0.04530  0.57499  1.0000
  C   C518      1.0  0.24581  0.36413  0.62573  1.0000
  C   C519      1.0  0.29526  0.08682  0.58759  1.0000
  H   H403      1.0  0.24048  0.03768  0.61207  1.0000
  C   C520      1.0  0.31052  0.02798  0.63174  1.0000
  H   H404      1.0  0.99516  0.45475  0.62083  1.0000
  H   H405      1.0  0.21903  0.16841  0.50127  1.0000
  C   C521      1.0  0.11716  0.19438  0.48088  1.0000
  C   C522      1.0  0.09648  0.03754  0.47287  1.0000
  S   S67       1.0  0.17290  0.40949  0.70991  1.0000
  H   H406      1.0  0.29736  0.02220  0.55960  1.0000
  C   C523      1.0  0.16608  0.23795  0.48759  1.0000
  C   C524      1.0  0.15786  0.29478  0.71190  1.0000
  Fe  Fe33      1.0  0.30336  0.11544  0.64833  1.0000
  S   S68       1.0  0.30948  0.09391  0.67552  1.0000
  H   H407      1.0  0.99426  0.36889  0.63270  1.0000
  S   S69       1.0  0.31058  0.09125  0.62987  1.0000
  H   H408      1.0  0.07281  0.24724  0.49514  1.0000
  S   S70       1.0  0.00442  0.42961  0.50944  1.0000
  C   C525      1.0  0.03724  0.00137  0.48987  1.0000
  C   C526      1.0  0.24098  0.06043  0.54063  1.0000
  H   H409      1.0  0.08452  0.35011  0.51800  1.0000
  C   C527      1.0  0.23158  0.04526  0.55275  1.0000
  C   C528      1.0  0.00213  0.39407  0.59133  1.0000
  H   H410      1.0  0.16168  0.04885  0.47664  1.0000
  C   C529      1.0  0.04691  0.01469  0.49555  1.0000
  H   H411      1.0  0.11229  0.00771  0.47950  1.0000
  H   H412      1.0  0.31527  0.12178  0.55236  1.0000
  H   H413      1.0  0.12478  0.38990  0.48992  1.0000
  S   S71       1.0  0.00452  0.37183  0.53200  1.0000
  C   C530      1.0  0.30391  0.98906  0.64864  1.0000
  C   C531      1.0  0.30695  0.17710  0.68883  1.0000
  H   H414      1.0  0.16075  0.18884  0.49803  1.0000
  H   H415      1.0  0.00438  0.16799  0.48770  1.0000
  H   H416      1.0  0.25712  0.05847  0.53725  1.0000
  H   H417      1.0  0.14464  0.35061  0.71798  1.0000
  H   H418      1.0  0.03973  0.15544  0.47892  1.0000
  C   C532      1.0  0.02469  0.10886  0.48138  1.0000
  H   H419      1.0  0.31659  0.04310  0.70712  1.0000
  C   C533      1.0  0.10090  0.01707  0.47195  1.0000
  H   H420      1.0  0.03215  0.34453  0.70748  1.0000
  C   C534      1.0  0.98998  0.10678  0.48221  1.0000
  C   C535      1.0  0.30672  0.00247  0.66012  1.0000
  C   C536      1.0  0.31181  0.18047  0.70597  1.0000
  C   C537      1.0  0.15753  0.25073  0.47240  1.0000
  H   H421      1.0  0.07033  0.17971  0.51326  1.0000
  H   H422      1.0  0.02027  0.38100  0.70358  1.0000
  S   S72       1.0  0.31292  0.03842  0.66694  1.0000
  C   C538      1.0  0.31016  0.02194  0.65172  1.0000
  C   C539      1.0  0.99551  0.41460  0.58678  1.0000
  H   H423      1.0  0.30611  0.99779  0.67561  1.0000
  H   H424      1.0  0.17887  0.35658  0.71463  1.0000
  C   C540      1.0  0.04897  0.16602  0.48004  1.0000
  H   H425      1.0  0.16125  0.27913  0.71027  1.0000
  H   H426      1.0  0.04787  0.15728  0.51099  1.0000
  H   H427      1.0  0.31275  0.04306  0.62520  1.0000
  H   H428      1.0  0.30968  0.19565  0.70883  1.0000
  H   H429      1.0  0.99405  0.38337  0.58829  1.0000
  C   C541      1.0  0.20521  0.36522  0.71950  1.0000
  C   C542      1.0  0.11857  0.39081  0.71976  1.0000
  H   H430      1.0  0.98874  0.24503  0.58564  1.0000
  S   S73       1.0  0.30116  0.97861  0.61363  1.0000
  C   C543      1.0  0.31907  0.16430  0.71942  1.0000
  Fe  Fe34      1.0  0.31936  0.07026  0.65618  1.0000
  C   C544      1.0  0.31962  0.29576  0.79587  1.0000
  C   C545      1.0  0.23121  0.38871  0.86692  1.0000
  C   C546      1.0  0.16371  0.30112  0.72716  1.0000
  H   H431      1.0  0.25482  0.41624  0.78429  1.0000
  C   C547      1.0  0.24883  0.37874  0.85710  1.0000
  C   C548      1.0  0.31126  0.40268  0.73880  1.0000
  C   C549      1.0  0.01010  0.47566  0.85547  1.0000
  C   C550      1.0  0.24035  0.37090  0.89771  1.0000
  P   P17       1.0  0.21385  0.40562  0.85309  1.0000
  C   C551      1.0  0.31234  0.40785  0.90444  1.0000
  H   H432      1.0  0.26881  0.44368  0.82117  1.0000
  C   C552      1.0  0.31183  0.39567  0.93901  1.0000
  S   S74       1.0  0.19532  0.43243  0.78236  1.0000
  Fe  Fe35      1.0  0.16940  0.41797  0.78112  1.0000
  S   S75       1.0  0.15069  0.40331  0.80761  1.0000
  C   C553      1.0  0.22256  0.45239  0.80911  1.0000
  H   H433      1.0  0.19872  0.29792  0.75478  1.0000
  Fe  Fe36      1.0  0.21292  0.41191  0.76164  1.0000
  C   C554      1.0  0.15900  0.43393  0.87623  1.0000
  C   C555      1.0  0.19101  0.27941  0.78227  1.0000
  C   C556      1.0  0.18622  0.34222  0.74280  1.0000
  C   C557      1.0  0.11104  0.37484  0.77359  1.0000
  S   S76       1.0  0.09956  0.45275  0.87185  1.0000
  C   C558      1.0  0.14365  0.34756  0.75910  1.0000
  H   H434      1.0  0.29966  0.32996  0.95332  1.0000
  H   H435      1.0  0.28818  0.36765  0.91908  1.0000
  C   C559      1.0  0.15457  0.30537  0.78588  1.0000
  C   C560      1.0  0.25661  0.38517  0.78254  1.0000
  C   C561      1.0  0.26130  0.40105  0.78941  1.0000
  C   C562      1.0  0.27505  0.39733  0.80233  1.0000
  C   C563      1.0  0.28393  0.37775  0.80894  1.0000
  C   C564      1.0  0.27891  0.36181  0.80243  1.0000
  C   C565      1.0  0.26557  0.36554  0.78906  1.0000
  H   H436      1.0  0.27908  0.40973  0.80705  1.0000
  H   H437      1.0  0.28525  0.34664  0.80764  1.0000
  H   H438      1.0  0.26218  0.35315  0.78373  1.0000
  H   H439      1.0  0.29149  0.43297  0.95319  1.0000
  C   C566      1.0  0.11326  0.43989  0.85312  1.0000
  C   C567      1.0  0.11755  0.41902  0.85725  1.0000
  C   C568      1.0  0.12904  0.40807  0.84311  1.0000
  C   C569      1.0  0.13642  0.41789  0.82472  1.0000
  C   C570      1.0  0.13214  0.43878  0.82041  1.0000
  C   C571      1.0  0.12058  0.44984  0.83467  1.0000
  H   H440      1.0  0.11202  0.41129  0.87149  1.0000
  H   H441      1.0  0.13226  0.39193  0.84646  1.0000
  H   H442      1.0  0.13751  0.44628  0.80605  1.0000
  H   H443      1.0  0.31407  0.28246  0.80417  1.0000
  C   C572      1.0  0.18922  0.35452  0.72462  1.0000
  H   H444      1.0  0.18325  0.35739  0.81327  1.0000
  H   H445      1.0  0.16468  0.45362  0.83066  1.0000
  C   C573      1.0  0.05938  0.42654  0.89506  1.0000
  H   H446      1.0  0.29681  0.36987  0.95025  1.0000
  H   H447      1.0  0.01655  0.46021  0.85954  1.0000
  H   H448      1.0  0.06887  0.41613  0.88617  1.0000
  H   H449      1.0  0.14368  0.43580  0.87407  1.0000
  H   H450      1.0  0.28134  0.40639  0.73279  1.0000
  C   C574      1.0  0.16910  0.30872  0.76924  1.0000
  C   C575      1.0  0.22682  0.38430  0.88732  1.0000
  C   C576      1.0  0.03625  0.45451  0.91784  1.0000
  H   H451      1.0  0.25400  0.41775  0.84556  1.0000
  H   H452      1.0  0.31728  0.47716  0.97049  1.0000
  S   S77       1.0  0.20613  0.43363  0.73469  1.0000
  H   H453      1.0  0.09854  0.38559  0.77891  1.0000
  Fe  Fe37      1.0  0.18662  0.45314  0.75559  1.0000
  C   C577      1.0  0.28200  0.17587  0.75244  1.0000
  H   H454      1.0  0.28262  0.16575  0.80795  1.0000
  C   C578      1.0  0.10788  0.35911  0.76541  1.0000
  C   C579      1.0  0.12409  0.34542  0.75833  1.0000
  H   H455      1.0  0.13285  0.38903  0.78112  1.0000
  C   C580      1.0  0.18734  0.29559  0.76752  1.0000
  C   C581      1.0  0.26428  0.17357  0.78565  1.0000
  H   H456      1.0  0.18678  0.44835  0.90372  1.0000
  C   C582      1.0  0.19934  0.34107  0.75586  1.0000
  C   C583      1.0  0.16791  0.46873  0.82606  1.0000
  H   H457      1.0  0.30672  0.34642  0.75363  1.0000
  H   H458      1.0  0.16146  0.36501  0.76887  1.0000
  C   C584      1.0  0.18949  0.36609  0.82100  1.0000
  H   H459      1.0  0.15160  0.45148  0.89928  1.0000
  H   H460      1.0  0.17935  0.26368  0.81025  1.0000
  P   P18       1.0  0.16460  0.32971  0.75020  1.0000
  H   H461      1.0  0.09290  0.35771  0.76425  1.0000
  H   H462      1.0  0.26864  0.35105  0.89584  1.0000
  H   H463      1.0  0.14704  0.28669  0.81343  1.0000
  H   H464      1.0  0.19905  0.43555  0.82269  1.0000
  H   H465      1.0  0.03171  0.47277  0.89011  1.0000
  C   C585      1.0  0.30039  0.16723  0.77928  1.0000
  C   C586      1.0  0.30252  0.45662  0.96144  1.0000
  C   C587      1.0  0.05001  0.44478  0.88616  1.0000
  C   C588      1.0  0.26229  0.36534  0.86754  1.0000
  C   C589      1.0  0.29394  0.39590  0.73743  1.0000
  H   H466      1.0  0.17065  0.35820  0.84836  1.0000
  C   C590      1.0  0.14664  0.36318  0.76770  1.0000
  C   C591      1.0  0.17649  0.27620  0.79881  1.0000
  H   H467      1.0  0.14038  0.31523  0.78761  1.0000
  H   H468      1.0  0.25219  0.38130  0.84135  1.0000
  C   C592      1.0  0.03859  0.47283  0.95003  1.0000
  C   C593      1.0  0.31916  0.42205  0.96418  1.0000
  S   S78       1.0  0.31076  0.32757  0.91255  1.0000
  C   C594      1.0  0.13039  0.37681  0.77480  1.0000
  H   H469      1.0  0.23695  0.36755  0.91344  1.0000
  C   C595      1.0  0.15899  0.32135  0.72955  1.0000
  S   S79       1.0  0.31504  0.31932  0.85830  1.0000
  H   H470      1.0  0.18429  0.37866  0.86585  1.0000
  H   H471      1.0  0.06440  0.40800  0.92220  1.0000
  H   H472      1.0  0.17152  0.29011  0.73717  1.0000
  H   H473      1.0  0.28141  0.17863  0.73706  1.0000
  S   S80       1.0  0.30094  0.37441  0.82543  1.0000
  C   C596      1.0  0.25348  0.44205  0.82171  1.0000
  C   C597      1.0  0.15829  0.28916  0.80060  1.0000
  S   S81       1.0  0.24154  0.38930  0.76421  1.0000
  C   C598      1.0  0.18328  0.44105  0.89293  1.0000
  C   C599      1.0  0.18992  0.37844  0.85053  1.0000
  S   S82       1.0  0.15912  0.43980  0.75603  1.0000
  H   H474      1.0  0.21007  0.37658  0.79582  1.0000
  C   C600      1.0  0.04542  0.43597  0.92669  1.0000
  C   C601      1.0  0.19396  0.41986  0.86788  1.0000
  S   S83       1.0  0.18731  0.39617  0.76227  1.0000
  C   C602      1.0  0.30181  0.39289  0.90332  1.0000
  C   C603      1.0  0.24505  0.42720  0.83545  1.0000
  C   C604      1.0  0.16351  0.44295  0.89039  1.0000
  H   H475      1.0  0.11742  0.46598  0.83143  1.0000
  C   C605      1.0  0.30100  0.38084  0.93778  1.0000
  C   C606      1.0  0.20442  0.37711  0.81109  1.0000
  C   C607      1.0  0.21542  0.35163  0.75059  1.0000
  C   C608      1.0  0.99073  0.45206  0.93670  1.0000
  H   H476      1.0  0.21287  0.39084  0.89526  1.0000
  H   H477      1.0  0.19684  0.33258  0.77036  1.0000
  C   C609      1.0  0.24229  0.45453  0.80846  1.0000
  C   C610      1.0  0.25815  0.36152  0.88783  1.0000
  H   H478      1.0  0.22519  0.35117  0.76087  1.0000
  H   H479      1.0  0.24887  0.46584  0.79764  1.0000
  H   H480      1.0  0.18259  0.46793  0.85009  1.0000
  H   H481      1.0  0.27592  0.35779  0.85986  1.0000
  C   C611      1.0  0.05697  0.42207  0.91533  1.0000
  C   C612      1.0  0.21184  0.38912  0.82075  1.0000
  C   C613      1.0  0.20426  0.39028  0.84043  1.0000
  C   C614      1.0  0.18233  0.36665  0.84074  1.0000
  H   H482      1.0  0.22334  0.39756  0.81273  1.0000
  C   C615      1.0  0.99877  0.46549  0.94429  1.0000
  H   H483      1.0  0.17020  0.41619  0.85364  1.0000
  H   H484      1.0  0.29037  0.46800  0.95721  1.0000
  H   H485      1.0  0.21379  0.42853  0.88354  1.0000
  C   C616      1.0  0.29598  0.37953  0.92002  1.0000
  C   C617      1.0  0.21422  0.43738  0.82262  1.0000
  C   C618      1.0  0.17413  0.42257  0.86486  1.0000
  C   C619      1.0  0.19849  0.42971  0.88159  1.0000
  C   C620      1.0  0.22543  0.42455  0.83573  1.0000
  H   H486      1.0  0.99915  0.44492  0.92461  1.0000
  Fe  Fe38      1.0  0.17910  0.41894  0.73703  1.0000
  H   H487      1.0  0.10541  0.39093  0.73090  1.0000
  C   C621      1.0  0.28243  0.16861  0.79245  1.0000
  H   H488      1.0  0.12132  0.33334  0.75204  1.0000
  C   C622      1.0  0.26407  0.17720  0.76567  1.0000
  H   H489      1.0  0.04394  0.43240  0.94238  1.0000
  C   C623      1.0  0.17782  0.47698  0.83712  1.0000
  C   C624      1.0  0.31781  0.31261  0.80463  1.0000
  C   C625      1.0  0.31762  0.46178  0.96897  1.0000
  C   C626      1.0  0.03843  0.45869  0.89746  1.0000
  H   H490      1.0  0.31048  0.31248  0.81960  1.0000
  H   H491      1.0  0.05228  0.44842  0.87043  1.0000
  C   C627      1.0  0.29263  0.37555  0.74247  1.0000
  H   H492      1.0  0.29846  0.39138  0.88947  1.0000
  H   H493      1.0  0.20513  0.26938  0.78088  1.0000
  H   H494      1.0  0.31434  0.16334  0.78480  1.0000
  H   H495      1.0  0.26305  0.47211  0.85092  1.0000
  H   H496      1.0  0.21379  0.46220  0.79896  1.0000
  H   H497      1.0  0.23025  0.37265  0.72878  1.0000
  H   H498      1.0  0.13438  0.40494  0.73535  1.0000
  H   H499      1.0  0.25037  0.17453  0.79587  1.0000
  C   C628      1.0  0.30033  0.17084  0.75914  1.0000
  C   C629      1.0  0.30840  0.36200  0.74932  1.0000
  C   C630      1.0  0.13500  0.39874  0.72235  1.0000
  H   H500      1.0  0.25000  0.18094  0.76038  1.0000
  H   H501      1.0  0.99826  0.37234  0.79196  1.0000
  H   H502      1.0  0.27904  0.37041  0.74169  1.0000
  H   H503      1.0  0.99928  0.34054  0.81530  1.0000
  C   C631      1.0  0.31376  0.32003  0.95135  1.0000
  P   P19       1.0  0.02258  0.47271  0.93286  1.0000
  C   C632      1.0  0.30325  0.43680  0.95907  1.0000
  H   H504      1.0  0.31218  0.41848  0.73500  1.0000
  C   C633      1.0  0.21833  0.36375  0.73244  1.0000
  H   H505      1.0  0.31715  0.41802  0.89143  1.0000
  H   H506      1.0  0.15470  0.47362  0.80021  1.0000
  C   C634      1.0  0.31718  0.40937  0.92222  1.0000
  H   H507      1.0  0.31867  0.12813  0.76219  1.0000
  C   C635      1.0  0.03345  0.46537  0.96991  1.0000
  C   C636      1.0  0.98693  0.47538  0.95915  1.0000
  C   C637      1.0  0.07025  0.47836  0.95606  1.0000
  Fe  Fe39      1.0  0.10094  0.50997  0.04696  1.0000
  S   S84       1.0  0.12894  0.51612  0.02658  1.0000
  C   C638      1.0  0.22921  0.69884  0.03365  1.0000
  Fe  Fe40      1.0  0.07484  0.54188  0.02364  1.0000
  S   S85       1.0  0.04340  0.55613  0.01945  1.0000
  Fe  Fe41      1.0  0.11655  0.54860  0.02716  1.0000
  S   S86       1.0  0.14067  0.56661  0.02785  1.0000
  S   S87       1.0  0.08440  0.50898  0.02316  1.0000
  S   S88       1.0  0.08935  0.54238  0.04913  1.0000
  H   H508      1.0  0.11293  0.54354  0.09025  1.0000
  C   C639      1.0  0.14765  0.51049  0.15251  1.0000
  C   C640      1.0  0.17415  0.49490  0.09850  1.0000
  Fe  Fe42      1.0  0.29385  0.72557  0.04702  1.0000
  S   S89       1.0  0.30177  0.75441  0.02876  1.0000
  S   S90       1.0  0.26120  0.72418  0.06018  1.0000
  C   C641      1.0  0.00475  0.70478  0.19244  1.0000
  H   H509      1.0  0.25928  0.66998  0.98226  1.0000
  H   H510      1.0  0.26541  0.72461  0.00732  1.0000
  C   C642      1.0  0.18847  0.85286  0.20963  1.0000
  C   C643      1.0  0.14293  0.48051  0.14225  1.0000
  C   C644      1.0  0.15476  0.50393  0.09584  1.0000
  Fe  Fe43      1.0  0.15910  0.62813  0.10273  1.0000
  S   S91       1.0  0.18956  0.60937  0.10170  1.0000
  S   S92       1.0  0.13650  0.63062  0.08283  1.0000
  Fe  Fe44      1.0  0.16028  0.64194  0.14118  1.0000
  S   S93       1.0  0.19068  0.62389  0.14327  1.0000
  S   S94       1.0  0.13606  0.65666  0.16311  1.0000
  Fe  Fe45      1.0  0.19821  0.63554  0.11108  1.0000
  S   S95       1.0  0.22957  0.64211  0.09806  1.0000
  Fe  Fe46      1.0  0.17994  0.59925  0.13363  1.0000
  S   S96       1.0  0.18300  0.56759  0.15048  1.0000
  S   S97       1.0  0.16837  0.65520  0.10955  1.0000
  S   S98       1.0  0.14902  0.61640  0.13414  1.0000
  P   P20       1.0  0.27121  0.65081  0.01954  1.0000
  C   C645      1.0  0.19288  0.54631  0.13908  1.0000
  C   C646      1.0  0.19228  0.52708  0.15002  1.0000
  C   C647      1.0  0.20077  0.50984  0.14154  1.0000
  C   C648      1.0  0.25797  0.71191  0.01391  1.0000
  C   C649      1.0  0.21056  0.53098  0.11118  1.0000
  C   C650      1.0  0.20191  0.54817  0.11955  1.0000
  H   H511      1.0  0.18546  0.52551  0.16519  1.0000
  H   H512      1.0  0.06838  0.65826  0.19460  1.0000
  H   H513      1.0  0.21776  0.53252  0.09619  1.0000
  H   H514      1.0  0.20253  0.56286  0.11099  1.0000
  C   C651      1.0  0.25253  0.70154  0.07179  1.0000
  C   C652      1.0  0.26569  0.68358  0.07440  1.0000
  C   C653      1.0  0.25837  0.66558  0.08252  1.0000
  C   C654      1.0  0.23781  0.66539  0.08849  1.0000
  C   C655      1.0  0.22461  0.68348  0.08658  1.0000
  C   C656      1.0  0.23197  0.70148  0.07828  1.0000
  H   H515      1.0  0.28153  0.68363  0.07010  1.0000
  H   H516      1.0  0.26875  0.65174  0.08415  1.0000
  H   H517      1.0  0.20875  0.68357  0.09123  1.0000
  H   H518      1.0  0.22169  0.71537  0.07650  1.0000
  C   C657      1.0  0.11239  0.51743  0.11283  1.0000
  S   S99       1.0  0.10098  0.55123  0.00164  1.0000
  H   H519      1.0  0.23349  0.56875  0.12687  1.0000
  C   C658      1.0  0.29652  0.62271  0.04080  1.0000
  Fe  Fe47      1.0  0.11143  0.51826  0.00287  1.0000
  C   C659      1.0  0.30114  0.58477  0.00738  1.0000
  S   S100      1.0  0.12511  0.50480  0.97579  1.0000
  S   S101      1.0  0.22366  0.49100  0.11136  1.0000
  C   C660      1.0  0.18747  0.48655  0.08354  1.0000
  C   C661      1.0  0.11789  0.67455  0.19443  1.0000
  C   C662      1.0  0.13625  0.66836  0.18306  1.0000
  C   C663      1.0  0.15376  0.67178  0.18781  1.0000
  C   C664      1.0  0.31087  0.86124  0.21514  1.0000
  H   H520      1.0  0.28277  0.69020  0.00416  1.0000
  H   H521      1.0  0.10429  0.67205  0.19083  1.0000
  H   H522      1.0  0.16799  0.66670  0.17937  1.0000
  C   C665      1.0  0.26779  0.69243  0.01237  1.0000
  H   H523      1.0  0.15123  0.61106  0.17994  1.0000
  H   H524      1.0  0.08511  0.52675  0.97711  1.0000
  C   C666      1.0  0.10388  0.53322  0.09980  1.0000
  H   H525      1.0  0.98863  0.49778  0.00972  1.0000
  C   C667      1.0  0.24519  0.52374  0.05950  1.0000
  H   H526      1.0  0.05600  0.52438  0.10982  1.0000
  C   C668      1.0  0.10021  0.50432  0.12488  1.0000
  C   C669      1.0  0.02986  0.52289  0.04229  1.0000
  C   C670      1.0  0.01997  0.67281  0.18278  1.0000
  C   C671      1.0  0.22704  0.51872  0.05786  1.0000
  C   C672      1.0  0.13414  0.68924  0.21405  1.0000
  H   H527      1.0  0.28137  0.53060  0.10171  1.0000
  C   C673      1.0  0.07671  0.72907  0.20336  1.0000
  C   C674      1.0  0.28653  0.52794  0.07109  1.0000
  C   C675      1.0  0.13914  0.58310  0.04457  1.0000
  C   C676      1.0  0.12088  0.59135  0.05468  1.0000
  C   C677      1.0  0.12024  0.60577  0.06650  1.0000
  C   C678      1.0  0.13786  0.61161  0.06877  1.0000
  C   C679      1.0  0.15617  0.60290  0.05911  1.0000
  C   C680      1.0  0.15675  0.58891  0.04689  1.0000
  H   H528      1.0  0.10721  0.58711  0.05290  1.0000
  H   H529      1.0  0.10602  0.61250  0.07384  1.0000
  H   H530      1.0  0.16978  0.60743  0.06061  1.0000
  H   H531      1.0  0.17087  0.58274  0.03896  1.0000
  C   C681      1.0  0.02537  0.54038  0.02926  1.0000
  H   H532      1.0  0.04442  0.51900  0.04652  1.0000
  C   C682      1.0  0.27105  0.57364  0.02671  1.0000
  H   H533      1.0  0.15172  0.57447  0.18429  1.0000
  H   H534      1.0  0.28406  0.90783  0.20524  1.0000
  H   H535      1.0  0.19177  0.48048  0.05431  1.0000
  C   C683      1.0  0.29037  0.89400  0.21348  1.0000
  H   H536      1.0  0.17031  0.71536  0.18230  1.0000
  C   C684      1.0  0.20190  0.71709  0.17462  1.0000
  C   C685      1.0  0.21813  0.72190  0.18083  1.0000
  P   P21       1.0  0.20550  0.70586  0.15293  1.0000
  C   C686      1.0  0.22542  0.71544  0.13508  1.0000
  C   C687      1.0  0.21274  0.67915  0.15899  1.0000
  C   C688      1.0  0.22262  0.66795  0.14433  1.0000
  C   C689      1.0  0.22862  0.64732  0.14894  1.0000
  C   C690      1.0  0.22444  0.63764  0.16811  1.0000
  C   C691      1.0  0.21441  0.64864  0.18274  1.0000
  C   C692      1.0  0.20868  0.66935  0.17825  1.0000
  C   C693      1.0  0.22140  0.73013  0.11906  1.0000
  C   C694      1.0  0.23708  0.73721  0.10543  1.0000
  C   C695      1.0  0.25683  0.72962  0.10756  1.0000
  H   H537      1.0  0.31781  0.66229  0.05907  1.0000
  C   C696      1.0  0.24538  0.70775  0.13695  1.0000
  C   C697      1.0  0.18223  0.71157  0.14369  1.0000
  C   C698      1.0  0.17203  0.73134  0.14153  1.0000
  C   C699      1.0  0.15361  0.73586  0.13519  1.0000
  C   C700      1.0  0.14512  0.72064  0.13120  1.0000
  C   C701      1.0  0.15501  0.70092  0.13359  1.0000
  C   C702      1.0  0.17355  0.69635  0.13972  1.0000
  H   H538      1.0  0.04105  0.48208  0.11014  1.0000
  H   H539      1.0  0.10250  0.68959  0.21838  1.0000
  C   C703      1.0  0.31183  0.57505  0.02214  1.0000
  H   H540      1.0  0.24895  0.63369  0.99722  1.0000
  H   H541      1.0  0.23290  0.72004  0.17223  1.0000
  H   H542      1.0  0.22570  0.67512  0.12931  1.0000
  H   H543      1.0  0.27634  0.70867  0.12457  1.0000
  H   H544      1.0  0.22876  0.62158  0.17155  1.0000
  H   H545      1.0  0.21096  0.64111  0.19757  1.0000
  H   H546      1.0  0.20094  0.67756  0.18980  1.0000
  H   H547      1.0  0.20633  0.73591  0.11671  1.0000
  H   H548      1.0  0.23403  0.74812  0.09277  1.0000
  H   H549      1.0  0.26774  0.92750  0.13123  1.0000
  H   H550      1.0  0.09698  0.63462  0.20467  1.0000
  H   H551      1.0  0.24892  0.69611  0.14891  1.0000
  H   H552      1.0  0.17831  0.74324  0.14483  1.0000
  H   H553      1.0  0.14588  0.75114  0.13347  1.0000
  H   H554      1.0  0.13085  0.72406  0.12633  1.0000
  H   H555      1.0  0.14820  0.68908  0.13089  1.0000
  H   H556      1.0  0.18079  0.68091  0.14157  1.0000
  C   C704      1.0  0.09770  0.66722  0.13491  1.0000
  C   C705      1.0  0.09557  0.67119  0.11537  1.0000
  C   C706      1.0  0.08224  0.68779  0.10870  1.0000
  C   C707      1.0  0.07108  0.70047  0.12154  1.0000
  C   C708      1.0  0.07335  0.69674  0.14119  1.0000
  C   C709      1.0  0.08671  0.67994  0.14778  1.0000
  P   P22       1.0  0.05853  0.71264  0.15812  1.0000
  C   C710      1.0  0.07380  0.71791  0.17378  1.0000
  C   C711      1.0  0.04847  0.73621  0.14472  1.0000
  C   C712      1.0  0.05796  0.75305  0.14177  1.0000
  C   C713      1.0  0.04990  0.77124  0.13155  1.0000
  C   C714      1.0  0.03238  0.77275  0.12415  1.0000
  C   C715      1.0  0.02292  0.75603  0.12690  1.0000
  C   C716      1.0  0.03093  0.73782  0.13711  1.0000
  C   C717      1.0  0.06519  0.72314  0.19215  1.0000
  H   H557      1.0  0.15152  0.59531  0.10452  1.0000
  C   C718      1.0  0.26268  0.56630  0.08228  1.0000
  C   C719      1.0  0.10572  0.72430  0.17834  1.0000
  C   C720      1.0  0.09423  0.71842  0.16703  1.0000
  C   C721      1.0  0.03760  0.70131  0.17223  1.0000
  C   C722      1.0  0.03673  0.68107  0.17255  1.0000
  H   H558      1.0  0.13297  0.63026  0.20568  1.0000
  C   C723      1.0  0.24796  0.90005  0.17330  1.0000
  H   H559      1.0  0.14847  0.52632  0.14980  1.0000
  C   C724      1.0  0.02141  0.71310  0.18222  1.0000
  H   H560      1.0  0.10802  0.65427  0.14003  1.0000
  H   H561      1.0  0.10427  0.66134  0.10543  1.0000
  H   H562      1.0  0.08055  0.69077  0.09354  1.0000
  H   H563      1.0  0.06078  0.71313  0.11599  1.0000
  H   H564      1.0  0.08873  0.67665  0.16283  1.0000
  H   H565      1.0  0.07150  0.75228  0.14741  1.0000
  H   H566      1.0  0.05719  0.78423  0.12945  1.0000
  H   H567      1.0  0.99994  0.64449  0.21806  1.0000
  C   C725      1.0  0.15403  0.56656  0.97372  1.0000
  H   H568      1.0  0.02340  0.72501  0.13909  1.0000
  C   C726      1.0  0.26884  0.58507  0.07901  1.0000
  H   H569      1.0  0.24525  0.54602  0.10259  1.0000
  C   C727      1.0  0.23869  0.71511  0.02449  1.0000
  H   H570      1.0  0.12157  0.72415  0.17334  1.0000
  H   H571      1.0  0.10131  0.71437  0.15302  1.0000
  H   H572      1.0  0.04874  0.67168  0.16472  1.0000
  C   C728      1.0  0.18045  0.72623  0.20419  1.0000
  C   C729      1.0  0.00622  0.54547  0.02426  1.0000
  H   H573      1.0  0.13387  0.55704  0.21474  1.0000
  H   H574      1.0  0.02151  0.72883  0.18200  1.0000
  P   P23       1.0  0.26948  0.55030  0.06385  1.0000
  C   C730      1.0  0.23909  0.67933  0.03249  1.0000
  H   H575      1.0  0.04958  0.72293  0.19796  1.0000
  C   C731      1.0  0.30332  0.64049  0.99027  1.0000
  C   C732      1.0  0.28418  0.89434  0.16910  1.0000
  H   H576      1.0  0.30454  0.50013  0.11086  1.0000
  C   C733      1.0  0.18171  0.48756  0.06567  1.0000
  H   H577      1.0  0.07703  0.54823  0.08914  1.0000
  C   C734      1.0  0.26561  0.89044  0.17989  1.0000
  C   C735      1.0  0.31059  0.49902  0.06240  1.0000
  C   C736      1.0  0.24872  0.91344  0.15580  1.0000
  H   H578      1.0  0.01898  0.49712  0.06046  1.0000
  H   H579      1.0  0.10590  0.73400  0.20536  1.0000
  C   C737      1.0  0.29726  0.51627  0.05706  1.0000
  S   S102      1.0  0.31793  0.72272  0.06476  1.0000
  C   C738      1.0  0.28482  0.90765  0.15142  1.0000
  H   H580      1.0  0.21445  0.70133  0.04225  1.0000
  C   C739      1.0  0.07162  0.52258  0.11087  1.0000
  C   C740      1.0  0.08599  0.64118  0.21571  1.0000
  C   C741      1.0  0.13272  0.61433  0.20773  1.0000
  H   H581      1.0  0.23504  0.92091  0.15071  1.0000
  C   C742      1.0  0.22870  0.61743  0.01840  1.0000
  H   H582      1.0  0.03412  0.62574  0.20963  1.0000
  C   C743      1.0  0.24356  0.57322  0.11358  1.0000
  C   C744      1.0  0.15195  0.49918  0.17019  1.0000
  C   C745      1.0  0.25311  0.63398  0.02654  1.0000
  C   C746      1.0  0.24635  0.62764  0.04637  1.0000
  C   C747      1.0  0.23075  0.61649  0.05215  1.0000
  C   C748      1.0  0.22179  0.61153  0.03817  1.0000
  H   H583      1.0  0.30247  0.50113  0.00537  1.0000
  C   C749      1.0  0.24428  0.62868  0.01256  1.0000
  C   C750      1.0  0.14347  0.58286  0.19561  1.0000
  H   H584      1.0  0.06259  0.58881  0.99123  1.0000
  H   H585      1.0  0.25242  0.63219  0.05745  1.0000
  H   H586      1.0  0.22519  0.61236  0.06753  1.0000
  H   H587      1.0  0.20922  0.60349  0.04268  1.0000
  C   C751      1.0  0.30216  0.56460  0.03919  1.0000
  H   H588      1.0  0.29085  0.61162  0.03556  1.0000
  C   C752      1.0  0.07997  0.50684  0.12382  1.0000
  C   C753      1.0  0.08353  0.53591  0.09906  1.0000
  C   C754      1.0  0.00400  0.68467  0.19271  1.0000
  H   H589      1.0  0.17646  0.57081  0.08831  1.0000
  C   C755      1.0  0.14322  0.60347  0.19316  1.0000
  H   H590      1.0  0.29203  0.67306  0.03834  1.0000
  H   H591      1.0  0.11596  0.55013  0.13175  1.0000
  C   C756      1.0  0.16335  0.56613  0.09777  1.0000
  H   H592      1.0  0.22154  0.61381  0.00760  1.0000
  H   H593      1.0  0.31137  0.63235  0.00167  1.0000
  H   H594      1.0  0.23151  0.66710  0.04021  1.0000
  C   C757      1.0  0.22942  0.55821  0.05985  1.0000
  C   C758      1.0  0.29726  0.65729  0.04215  1.0000
  H   H595      1.0  0.29595  0.82435  0.15070  1.0000
  H   H596      1.0  0.16616  0.68507  0.20688  1.0000
  H   H597      1.0  0.16294  0.56181  0.98520  1.0000
  P   P24       1.0  0.13823  0.51535  0.11514  1.0000
  H   H598      1.0  0.22587  0.50328  0.05787  1.0000
  C   C759      1.0  0.25847  0.67595  0.02176  1.0000
  H   H599      1.0  0.26478  0.87996  0.19340  1.0000
  H   H600      1.0  0.16276  0.76707  0.21776  1.0000
  C   C760      1.0  0.28947  0.64312  0.03550  1.0000
  H   H601      1.0  0.15832  0.49788  0.04880  1.0000
  H   H602      1.0  0.14497  0.53783  0.97687  1.0000
  C   C761      1.0  0.99172  0.53301  0.03218  1.0000
  C   C762      1.0  0.12928  0.55444  0.12231  1.0000
  H   H603      1.0  0.27826  0.59018  0.06565  1.0000
  C   C763      1.0  0.14308  0.50121  0.13839  1.0000
  H   H604      1.0  0.23624  0.63880  0.13753  1.0000
  C   C764      1.0  0.18303  0.71935  0.18647  1.0000
  H   H605      1.0  0.12152  0.58526  0.12662  1.0000
  C   C765      1.0  0.15267  0.68222  0.20330  1.0000
  C   C766      1.0  0.14315  0.54043  0.11258  1.0000
  C   C767      1.0  0.27418  0.66162  0.97931  1.0000
  C   C768      1.0  0.13235  0.57426  0.11949  1.0000
  C   C769      1.0  0.09692  0.72978  0.19643  1.0000
  C   C770      1.0  0.14926  0.50551  0.07761  1.0000
  H   H606      1.0  0.23139  0.73020  0.02612  1.0000
  C   C771      1.0  0.21032  0.51180  0.12214  1.0000
  C   C772      1.0  0.99515  0.50756  0.99721  1.0000
  H   H607      1.0  0.26685  0.61243  0.09025  1.0000
  C   C773      1.0  0.16276  0.49732  0.06262  1.0000
  C   C774      1.0  0.21546  0.72895  0.19851  1.0000
  H   H608      1.0  0.17904  0.49445  0.11212  1.0000
  C   C775      1.0  0.11683  0.68459  0.21006  1.0000
  C   C776      1.0  0.30260  0.87880  0.20395  1.0000
  H   H609      1.0  0.13453  0.51269  0.07497  1.0000
  C   C777      1.0  0.16041  0.54632  0.10055  1.0000
  C   C778      1.0  0.28075  0.58416  0.00972  1.0000
  H   H610      1.0  0.17157  0.53587  0.09311  1.0000
  C   C779      1.0  0.26241  0.59776  0.09295  1.0000
  C   C780      1.0  0.24967  0.59190  0.11016  1.0000
  H   H611      1.0  0.24427  0.60200  0.12070  1.0000
  C   C781      1.0  0.14931  0.58001  0.10714  1.0000
  C   C782      1.0  0.25009  0.56045  0.09972  1.0000
  C   C783      1.0  0.01539  0.51055  0.05026  1.0000
  H   H612      1.0  0.01922  0.65728  0.18280  1.0000
  C   C784      1.0  0.21140  0.55322  0.05785  1.0000
  C   C785      1.0  0.16862  0.85711  0.21867  1.0000
  H   H613      1.0  0.02609  0.78688  0.11631  1.0000
  C   C786      1.0  0.31043  0.48721  0.01200  1.0000
  H   H614      1.0  0.00931  0.75719  0.12120  1.0000
  H   H615      1.0  0.22990  0.57339  0.06133  1.0000
  C   C787      1.0  0.28379  0.65079  0.99462  1.0000
  H   H616      1.0  0.31057  0.55749  0.05065  1.0000
  H   H617      1.0  0.26891  0.73481  0.09666  1.0000
  P   P25       1.0  0.30694  0.88178  0.17765  1.0000
  H   H618      1.0  0.27244  0.59194  0.99835  1.0000
  H   H619      1.0  0.15595  0.50634  0.18080  1.0000
  C   C788      1.0  0.02432  0.51973  0.97726  1.0000
  C   C789      1.0  0.31115  0.61660  0.05264  1.0000
  H   H620      1.0  0.15894  0.87016  0.21271  1.0000
  C   C790      1.0  0.31180  0.65119  0.05405  1.0000
  H   H621      1.0  0.28544  0.85690  0.16207  1.0000
  C   C791      1.0  0.01578  0.50700  0.99317  1.0000
  H   H622      1.0  0.25782  0.51195  0.06058  1.0000
  C   C792      1.0  0.30050  0.84927  0.16263  1.0000
  H   H623      1.0  0.99231  0.71391  0.20018  1.0000
  H   H624      1.0  0.19603  0.52950  0.05599  1.0000
  H   H625      1.0  0.29369  0.72034  0.98347  1.0000
  H   H626      1.0  0.23370  0.89713  0.18181  1.0000
  C   C793      1.0  0.28176  0.56352  0.04147  1.0000
  H   H627      1.0  0.04036  0.51911  0.97416  1.0000
  C   C794      1.0  0.26713  0.91718  0.14484  1.0000
  S   S103      1.0  0.31226  0.70646  0.02540  1.0000
  H   H628      1.0  0.29891  0.91069  0.14265  1.0000
  C   C795      1.0  0.21018  0.53346  0.05695  1.0000
  H   H629      1.0  0.20051  0.49512  0.15017  1.0000
  H   H630      1.0  0.31678  0.60086  0.05647  1.0000
  C   C796      1.0  0.24655  0.54357  0.06047  1.0000
  C   C797      1.0  0.99636  0.51546  0.04514  1.0000
  C   C798      1.0  0.28939  0.52205  0.09051  1.0000
  H   H631      1.0  0.19821  0.56454  0.05747  1.0000
  H   H632      1.0  0.25525  0.57352  0.02820  1.0000
  C   C799      1.0  0.26098  0.71483  0.12325  1.0000
  H   H633      1.0  0.21631  0.83266  0.21029  1.0000
  H   H634      1.0  0.02511  0.49694  0.00262  1.0000
  C   C800      1.0  0.19665  0.73101  0.21023  1.0000
  H   H635      1.0  0.10620  0.49212  0.13506  1.0000
  H   H636      1.0  0.00267  0.55905  0.01426  1.0000
  H   H637      1.0  0.19418  0.86262  0.19668  1.0000
  C   C801      1.0  0.31328  0.49325  0.08175  1.0000
  H   H638      1.0  0.03600  0.57870  0.97862  1.0000
  H   H639      1.0  0.22806  0.73252  0.20326  1.0000
  C   C802      1.0  0.31873  0.63086  0.05930  1.0000
  H   H640      1.0  0.29519  0.52046  0.04203  1.0000
  H   H641      1.0  0.07082  0.49649  0.13297  1.0000
  C   C803      1.0  0.30638  0.83074  0.15619  1.0000
  S   S104      1.0  0.10064  0.48794  0.07492  1.0000
  H   H642      1.0  0.26428  0.48853  0.09132  1.0000
  C   C804      1.0  0.06962  0.65461  0.20985  1.0000
  H   H643      1.0  0.20220  0.47910  0.08591  1.0000
  H   H644      1.0  0.06989  0.73311  0.21748  1.0000
  H   H645      1.0  0.16590  0.72743  0.21341  1.0000
  H   H646      1.0  0.30862  0.59297  0.99422  1.0000
  H   H647      1.0  0.31869  0.48994  0.05160  1.0000
  C   C805      1.0  0.30268  0.50476  0.09578  1.0000
  C   C806      1.0  0.06493  0.58683  0.97612  1.0000
  H   H648      1.0  0.31198  0.79773  0.97214  1.0000
  C   C807      1.0  0.31411  0.85776  0.16945  1.0000
  H   H649      1.0  0.99090  0.67843  0.20057  1.0000
  C   C808      1.0  0.20092  0.83600  0.21729  1.0000
  C   C809      1.0  0.13332  0.57309  0.21275  1.0000
  H   H650      1.0  0.04243  0.67400  0.21898  1.0000
  H   H651      1.0  0.31847  0.91560  0.19016  1.0000
  H   H652      1.0  0.10389  0.48022  0.18323  1.0000
  C   C810      1.0  0.15175  0.47858  0.17388  1.0000
  C   C811      1.0  0.31302  0.64110  0.97094  1.0000
  S   S105      1.0  0.12705  0.94331  0.39350  1.0000
  C   C812      1.0  0.27416  0.89596  0.33682  1.0000
  C   C813      1.0  0.19357  0.82344  0.23403  1.0000
  C   C814      1.0  0.15852  0.76964  0.23270  1.0000
  Fe  Fe48      1.0  0.07703  0.69536  0.28811  1.0000
  S   S106      1.0  0.05726  0.72491  0.29075  1.0000
  S   S107      1.0  0.07132  0.66569  0.30637  1.0000
  Fe  Fe49      1.0  0.10391  0.71218  0.25204  1.0000
  S   S108      1.0  0.08609  0.74314  0.25160  1.0000
  Fe  Fe50      1.0  0.08580  0.73798  0.28394  1.0000
  S   S109      1.0  0.08851  0.76487  0.29726  1.0000
  Fe  Fe51      1.0  0.05895  0.72786  0.25852  1.0000
  S   S110      1.0  0.03093  0.74117  0.24542  1.0000
  S   S111      1.0  0.10549  0.70799  0.28395  1.0000
  S   S112      1.0  0.07687  0.69741  0.25622  1.0000
  Fe  Fe52      1.0  0.15302  0.84955  0.35078  1.0000
  S   S113      1.0  0.14105  0.82420  0.37167  1.0000
  S   S114      1.0  0.13398  0.87812  0.34006  1.0000
  Fe  Fe53      1.0  0.19570  0.82864  0.34656  1.0000
  S   S115      1.0  0.18721  0.80133  0.36753  1.0000
  S   S116      1.0  0.22824  0.82930  0.33261  1.0000
  Fe  Fe54      1.0  0.16137  0.80456  0.35158  1.0000
  S   S117      1.0  0.15465  0.77617  0.34363  1.0000
  Fe  Fe55      1.0  0.16764  0.82314  0.38589  1.0000
  S   S118      1.0  0.16051  0.82191  0.41879  1.0000
  S   S119      1.0  0.17140  0.83024  0.32949  1.0000
  S   S120      1.0  0.17800  0.85004  0.36619  1.0000
  Fe  Fe56      1.0  0.05761  0.93995  0.43110  1.0000
  Fe  Fe57      1.0  0.29324  0.91305  0.27723  1.0000
  S   S121      1.0  0.26137  0.90686  0.28249  1.0000
  C   C815      1.0  0.09696  0.85795  0.40822  1.0000
  S   S122      1.0  0.30398  0.93333  0.24974  1.0000
  C   C816      1.0  0.23715  0.85124  0.31923  1.0000
  C   C817      1.0  0.25776  0.85175  0.31543  1.0000
  C   C818      1.0  0.26541  0.86877  0.30446  1.0000
  C   C819      1.0  0.25249  0.88542  0.29711  1.0000
  C   C820      1.0  0.23187  0.88495  0.30102  1.0000
  C   C821      1.0  0.22422  0.86796  0.31203  1.0000
  H   H653      1.0  0.26787  0.83890  0.32098  1.0000
  H   H654      1.0  0.28131  0.86890  0.30156  1.0000
  H   H655      1.0  0.22176  0.89773  0.29535  1.0000
  H   H656      1.0  0.20834  0.86769  0.31476  1.0000
  C   C822      1.0  0.17700  0.82511  0.43363  1.0000
  C   C823      1.0  0.19759  0.81894  0.42921  1.0000
  C   C824      1.0  0.00689  0.57997  0.45894  1.0000
  C   C825      1.0  0.16900  0.83232  0.45123  1.0000
  H   H657      1.0  0.20386  0.81318  0.41581  1.0000
  H   H658      1.0  0.03204  0.57142  0.34606  1.0000
  H   H659      1.0  0.15312  0.83724  0.45476  1.0000
  C   C826      1.0  0.10682  0.76746  0.31054  1.0000
  C   C827      1.0  0.10736  0.78648  0.31463  1.0000
  C   C828      1.0  0.12210  0.78952  0.32437  1.0000
  C   C829      1.0  0.13613  0.77339  0.33072  1.0000
  C   C830      1.0  0.13548  0.75431  0.32680  1.0000
  C   C831      1.0  0.12099  0.75134  0.31672  1.0000
  H   H660      1.0  0.09638  0.79897  0.31007  1.0000
  H   H661      1.0  0.12260  0.80430  0.32703  1.0000
  H   H662      1.0  0.14627  0.74171  0.33164  1.0000
  H   H663      1.0  0.12074  0.73659  0.31380  1.0000
  H   H664      1.0  0.20390  0.89115  0.40673  1.0000
  C   C832      1.0  0.29821  0.92791  0.38911  1.0000
  C   C833      1.0  0.01980  0.67153  0.35760  1.0000
  C   C834      1.0  0.02958  0.68784  0.34902  1.0000
  C   C835      1.0  0.04553  0.68604  0.33346  1.0000
  C   C836      1.0  0.05191  0.66787  0.32648  1.0000
  C   C837      1.0  0.04238  0.65140  0.33530  1.0000
  C   C838      1.0  0.02622  0.65329  0.35075  1.0000
  H   H665      1.0  0.02478  0.70195  0.35437  1.0000
  H   H666      1.0  0.05309  0.69865  0.32713  1.0000
  H   H667      1.0  0.04737  0.63728  0.33003  1.0000
  H   H668      1.0  0.01880  0.64066  0.35752  1.0000
  C   C839      1.0  0.23275  0.83335  0.37972  1.0000
  H   H669      1.0  0.13195  0.75105  0.27579  1.0000
  H   H670      1.0  0.24149  0.92615  0.38795  1.0000
  H   H671      1.0  0.07029  0.57752  0.31371  1.0000
  C   C840      1.0  0.24654  0.80056  0.39517  1.0000
  C   C841      1.0  0.21454  0.88251  0.35982  1.0000
  C   C842      1.0  0.00553  0.69371  0.24241  1.0000
  C   C843      1.0  0.23411  0.95831  0.38060  1.0000
  H   H672      1.0  0.24939  0.88971  0.45772  1.0000
  C   C844      1.0  0.25713  0.88897  0.40893  1.0000
  C   C845      1.0  0.02867  0.86487  0.41506  1.0000
  C   C846      1.0  0.23153  0.93950  0.39166  1.0000
  H   H673      1.0  0.11901  0.80663  0.42525  1.0000
  C   C847      1.0  0.20237  0.89160  0.39184  1.0000
  C   C848      1.0  0.12749  0.92501  0.37927  1.0000
  C   C849      1.0  0.12807  0.90479  0.38753  1.0000
  C   C850      1.0  0.13031  0.89022  0.37553  1.0000
  C   C851      1.0  0.13110  0.89597  0.35541  1.0000
  C   C852      1.0  0.12999  0.91622  0.34730  1.0000
  C   C853      1.0  0.12862  0.93065  0.35914  1.0000
  H   H674      1.0  0.12748  0.90031  0.40305  1.0000
  H   H675      1.0  0.13145  0.87456  0.38183  1.0000
  H   H676      1.0  0.13070  0.92069  0.33177  1.0000
  H   H677      1.0  0.12833  0.94622  0.35269  1.0000
  C   C854      1.0  0.01660  0.94971  0.40178  1.0000
  C   C855      1.0  0.00111  0.95764  0.39101  1.0000
  H   H678      1.0  0.19472  0.89323  0.33897  1.0000
  S   S123      1.0  0.08635  0.92008  0.43603  1.0000
  H   H679      1.0  0.04363  0.50545  0.43502  1.0000
  C   C856      1.0  0.10019  0.65914  0.46207  1.0000
  C   C857      1.0  0.01341  0.72590  0.24463  1.0000
  C   C858      1.0  0.08806  0.63676  0.23541  1.0000
  C   C859      1.0  0.15453  0.65205  0.25858  1.0000
  C   C860      1.0  0.16089  0.63388  0.25163  1.0000
  C   C861      1.0  0.14707  0.62407  0.24695  1.0000
  C   C862      1.0  0.12680  0.63264  0.24873  1.0000
  H   H680      1.0  0.99386  0.91473  0.43455  1.0000
  P   P26       1.0  0.10896  0.61931  0.24356  1.0000
  C   C863      1.0  0.29405  0.87378  0.24479  1.0000
  H   H681      1.0  0.00514  0.64645  0.46601  1.0000
  H   H682      1.0  0.24496  0.90252  0.35308  1.0000
  H   H683      1.0  0.17286  0.90917  0.39570  1.0000
  C   C864      1.0  0.19700  0.89303  0.35364  1.0000
  C   C865      1.0  0.07818  0.58489  0.30032  1.0000
  C   C866      1.0  0.99375  0.77797  0.31967  1.0000
  C   C867      1.0  0.16425  0.78575  0.23833  1.0000
  H   H684      1.0  0.10153  0.66190  0.44635  1.0000
  P   P27       1.0  0.24102  0.86938  0.38620  1.0000
  H   H685      1.0  0.04436  0.83985  0.38762  1.0000
  C   C868      1.0  0.00108  0.65642  0.29097  1.0000
  C   C869      1.0  0.09835  0.60448  0.26571  1.0000
  C   C870      1.0  0.10206  0.60666  0.28385  1.0000
  C   C871      1.0  0.09197  0.59692  0.30105  1.0000
  C   C872      1.0  0.22429  0.93777  0.32641  1.0000
  C   C873      1.0  0.12052  0.65076  0.25600  1.0000
  H   H686      1.0  0.16516  0.65979  0.26215  1.0000
  H   H687      1.0  0.17652  0.62737  0.24995  1.0000
  H   H688      1.0  0.22568  0.81359  0.43953  1.0000
  H   H689      1.0  0.25834  0.95755  0.29003  1.0000
  H   H690      1.0  0.21213  0.92934  0.32865  1.0000
  C   C874      1.0  0.12666  0.84820  0.29976  1.0000
  C   C875      1.0  0.18137  0.83284  0.46453  1.0000
  C   C876      1.0  0.08429  0.59253  0.26513  1.0000
  H   H691      1.0  0.00987  0.63281  0.32639  1.0000
  H   H692      1.0  0.26959  0.90361  0.42676  1.0000
  C   C877      1.0  0.23437  0.87341  0.44383  1.0000
  H   H693      1.0  0.26220  0.83690  0.41152  1.0000
  H   H694      1.0  0.01527  0.53238  0.44196  1.0000
  H   H695      1.0  0.11224  0.61632  0.28490  1.0000
  C   C878      1.0  0.30607  0.91998  0.35650  1.0000
  P   P28       1.0  0.25399  0.96003  0.35985  1.0000
  C   C879      1.0  0.05669  0.65879  0.24326  1.0000
  C   C880      1.0  0.20216  0.95465  0.41171  1.0000
  H   H696      1.0  0.09458  0.85415  0.30503  1.0000
  C   C881      1.0  0.26155  0.87551  0.36704  1.0000
  C   C882      1.0  0.25891  0.89238  0.35259  1.0000
  H   H697      1.0  0.03932  0.61262  0.27005  1.0000
  C   C883      1.0  0.99904  0.48023  0.44992  1.0000
  C   C884      1.0  0.99985  0.48830  0.43023  1.0000
  H   H698      1.0  0.03481  0.69913  0.24412  1.0000
  C   C885      1.0  0.06868  0.87516  0.42792  1.0000
  C   C886      1.0  0.07960  0.87193  0.44308  1.0000
  C   C887      1.0  0.16122  0.84459  0.23543  1.0000
  C   C888      1.0  0.08010  0.93234  0.35236  1.0000
  S   S124      1.0  0.98721  0.62033  0.40433  1.0000
  C   C889      1.0  0.07081  0.89972  0.35512  1.0000
  C   C890      1.0  0.07413  0.91172  0.38398  1.0000
  C   C891      1.0  0.02764  0.62663  0.22469  1.0000
  C   C892      1.0  0.07589  0.91749  0.34368  1.0000
  H   H699      1.0  0.22188  0.93851  0.35664  1.0000
  C   C893      1.0  0.07090  0.85343  0.37600  1.0000
  C   C894      1.0  0.05851  0.83905  0.37786  1.0000
  C   C895      1.0  0.06438  0.82332  0.36707  1.0000
  C   C896      1.0  0.08263  0.82181  0.35439  1.0000
  C   C897      1.0  0.09499  0.83611  0.35238  1.0000
  C   C898      1.0  0.08915  0.85185  0.36311  1.0000
  H   H700      1.0  0.31308  0.84525  0.24405  1.0000
  H   H701      1.0  0.02301  0.60651  0.35151  1.0000
  C   C899      1.0  0.05504  0.66351  0.22358  1.0000
  S   S125      1.0  0.30269  0.93035  0.29673  1.0000
  H   H702      1.0  0.01852  0.78660  0.32841  1.0000
  H   H703      1.0  0.99718  0.75764  0.27876  1.0000
  Fe  Fe58      1.0  0.08422  0.93647  0.46078  1.0000
  H   H704      1.0  0.26522  0.80025  0.41604  1.0000
  H   H705      1.0  0.24798  0.78442  0.39706  1.0000
  H   H706      1.0  0.07341  0.90988  0.39955  1.0000
  H   H707      1.0  0.06743  0.88847  0.34815  1.0000
  H   H708      1.0  0.07679  0.91964  0.32806  1.0000
  C   C900      1.0  0.10562  0.76718  0.45908  1.0000
  H   H709      1.0  0.99533  0.54173  0.36151  1.0000
  C   C901      1.0  0.27593  0.94293  0.36595  1.0000
  H   H710      1.0  0.15226  0.60981  0.24194  1.0000
  H   H711      1.0  0.05484  0.81220  0.36859  1.0000
  H   H712      1.0  0.08723  0.80948  0.34624  1.0000
  H   H713      1.0  0.10927  0.83490  0.34272  1.0000
  H   H714      1.0  0.09900  0.86272  0.36147  1.0000
  C   C902      1.0  0.10778  0.84608  0.29722  1.0000
  C   C903      1.0  0.28022  0.86310  0.36610  1.0000
  C   C904      1.0  0.24367  0.87626  0.40868  1.0000
  H   H715      1.0  0.18967  0.95317  0.42356  1.0000
  H   H716      1.0  0.04278  0.77738  0.29954  1.0000
  C   C905      1.0  0.14699  0.75706  0.24622  1.0000
  C   C906      1.0  0.02710  0.58294  0.33456  1.0000
  H   H717      1.0  0.11547  0.57593  0.24066  1.0000
  C   C907      1.0  0.02201  0.60280  0.33764  1.0000
  C   C908      1.0  0.07438  0.58263  0.28236  1.0000
  C   C909      1.0  0.07724  0.86812  0.41035  1.0000
  C   C910      1.0  0.04544  0.49448  0.46516  1.0000
  H   H718      1.0  0.08278  0.94082  0.37914  1.0000
  H   H719      1.0  0.03181  0.76351  0.27465  1.0000
  H   H720      1.0  0.22191  0.85856  0.42641  1.0000
  H   H721      1.0  0.20336  0.81035  0.23977  1.0000
  H   H722      1.0  0.29057  0.87184  0.26055  1.0000
  C   C911      1.0  0.03734  0.50727  0.44992  1.0000
  C   C912      1.0  0.10597  0.83354  0.28463  1.0000
  C   C913      1.0  0.01252  0.61279  0.30568  1.0000
  C   C914      1.0  0.10843  0.77963  0.44105  1.0000
  H   H723      1.0  0.17290  0.79539  0.22748  1.0000
  H   H724      1.0  0.98864  0.75018  0.24444  1.0000
  H   H725      1.0  0.07305  0.87795  0.45634  1.0000
  H   H726      1.0  0.07569  0.68320  0.46628  1.0000
  C   C915      1.0  0.18472  0.90195  0.38565  1.0000
  C   C916      1.0  0.23487  0.81250  0.38209  1.0000
  H   H727      1.0  0.01846  0.60665  0.44391  1.0000
  H   H728      1.0  0.12944  0.67434  0.26644  1.0000
  C   C917      1.0  0.29569  0.86713  0.35063  1.0000
  H   H729      1.0  0.12812  0.81561  0.45374  1.0000
  C   C918      1.0  0.24598  0.95364  0.33945  1.0000
  C   C919      1.0  0.18211  0.90274  0.36654  1.0000
  C   C920      1.0  0.28607  0.89143  0.23379  1.0000
  C   C921      1.0  0.03862  0.61766  0.23944  1.0000
  H   H730      1.0  0.12813  0.85802  0.30943  1.0000
  C   C922      1.0  0.10791  0.85497  0.42330  1.0000
  C   C923      1.0  0.12302  0.82284  0.27484  1.0000
  H   H731      1.0  0.22750  0.80564  0.37366  1.0000
  H   H732      1.0  0.99391  0.90460  0.38534  1.0000
  C   C924      1.0  0.07021  0.89657  0.37535  1.0000
  H   H733      1.0  0.09133  0.83181  0.28270  1.0000
  H   H734      1.0  0.16838  0.91055  0.36183  1.0000
  H   H735      1.0  0.27126  0.94853  0.39561  1.0000
  H   H736      1.0  0.99954  0.57913  0.44712  1.0000
  C   C925      1.0  0.00362  0.89333  0.39351  1.0000
  C   C926      1.0  0.99337  0.73437  0.24402  1.0000
  H   H737      1.0  0.98847  0.69711  0.33871  1.0000
  C   C927      1.0  0.07312  0.64557  0.24916  1.0000
  S   S126      1.0  0.13291  0.70517  0.23115  1.0000
  C   C928      1.0  0.01388  0.93434  0.41762  1.0000
  H   H738      1.0  0.12330  0.84766  0.42128  1.0000
  H   H739      1.0  0.03061  0.95537  0.39782  1.0000
  H   H740      1.0  0.10502  0.65757  0.25799  1.0000
  C   C929      1.0  0.00796  0.86705  0.42097  1.0000
  H   H741      1.0  0.19548  0.77699  0.45928  1.0000
  H   H742      1.0  0.12122  0.81317  0.26522  1.0000
  C   C930      1.0  0.25608  0.95901  0.32046  1.0000
  C   C931      1.0  0.17373  0.82778  0.24337  1.0000
  C   C932      1.0  0.12198  0.60477  0.22479  1.0000
  P   P29       1.0  0.16428  0.81121  0.26475  1.0000
  C   C933      1.0  0.18261  0.80449  0.28080  1.0000
  C   C934      1.0  0.14207  0.82459  0.27762  1.0000
  C   C935      1.0  0.14373  0.83764  0.28990  1.0000
  H   H743      1.0  0.28283  0.85015  0.37712  1.0000
  C   C936      1.0  0.19582  0.81769  0.28064  1.0000
  C   C937      1.0  0.20942  0.81303  0.29356  1.0000
  C   C938      1.0  0.20979  0.79533  0.30696  1.0000
  C   C939      1.0  0.19662  0.78222  0.30737  1.0000
  C   C940      1.0  0.18309  0.78674  0.29437  1.0000
  C   C941      1.0  0.15841  0.78946  0.25760  1.0000
  C   C942      1.0  0.12161  0.80216  0.45549  1.0000
  H   H744      1.0  0.08441  0.94595  0.34350  1.0000
  C   C943      1.0  0.20991  0.81913  0.44268  1.0000
  C   C944      1.0  0.14119  0.76060  0.26538  1.0000
  C   C945      1.0  0.14686  0.77670  0.27104  1.0000
  C   C946      1.0  0.23440  0.94318  0.30761  1.0000
  H   H745      1.0  0.31585  0.91203  0.34559  1.0000
  H   H746      1.0  0.00311  0.96960  0.37885  1.0000
  H   H747      1.0  0.15818  0.83974  0.29190  1.0000
  C   C947      1.0  0.20181  0.82576  0.46055  1.0000
  H   H748      1.0  0.19528  0.83191  0.27100  1.0000
  H   H749      1.0  0.21923  0.82346  0.29376  1.0000
  H   H750      1.0  0.21984  0.79213  0.31744  1.0000
  H   H751      1.0  0.19636  0.76886  0.31828  1.0000
  H   H752      1.0  0.17270  0.77659  0.29553  1.0000
  C   C948      1.0  0.12270  0.58395  0.22736  1.0000
  C   C949      1.0  0.24773  0.88613  0.44401  1.0000
  C   C950      1.0  0.07914  0.92947  0.37249  1.0000
  H   H753      1.0  0.10426  0.85275  0.39478  1.0000
  H   H754      1.0  0.14184  0.77948  0.28583  1.0000
  C   C951      1.0  0.25626  0.80948  0.40579  1.0000
  C   C952      1.0  0.99586  0.92686  0.42255  1.0000
  C   C953      1.0  0.01461  0.61767  0.32333  1.0000
  C   C954      1.0  0.24256  0.84247  0.39018  1.0000
  C   C955      1.0  0.25436  0.83033  0.40327  1.0000
  H   H755      1.0  0.06354  0.57344  0.28183  1.0000
  C   C956      1.0  0.01940  0.70556  0.24385  1.0000
  H   H756      1.0  0.04066  0.48623  0.36444  1.0000
  C   C957      1.0  0.98740  0.77010  0.30557  1.0000
  C   C958      1.0  0.03702  0.87719  0.39848  1.0000
  H   H757      1.0  0.31005  0.85747  0.34984  1.0000
  H   H758      1.0  0.26627  0.89489  0.39562  1.0000
  C   C959      1.0  0.29257  0.88338  0.33586  1.0000
  P   P30       1.0  0.06371  0.87361  0.39017  1.0000
  C   C960      1.0  0.23229  0.86854  0.42625  1.0000
  H   H759      1.0  0.02828  0.56240  0.31500  1.0000
  H   H760      1.0  0.00509  0.71183  0.29123  1.0000
  C   C961      1.0  0.22052  0.97531  0.38527  1.0000
  C   C962      1.0  0.02486  0.57790  0.31711  1.0000
  C   C963      1.0  0.25030  0.95375  0.30464  1.0000
  S   S127      1.0  0.10178  0.95984  0.44299  1.0000
  C   C964      1.0  0.28880  0.93267  0.35192  1.0000
  C   C965      1.0  0.01734  0.59272  0.30281  1.0000
  S   S128      1.0  0.05473  0.95497  0.45683  1.0000
  C   C966      1.0  0.01080  0.62900  0.26372  1.0000
  C   C967      1.0  0.25908  0.89393  0.42657  1.0000
  H   H761      1.0  0.00158  0.85781  0.43396  1.0000
  H   H762      1.0  0.99178  0.73057  0.32007  1.0000
  C   C968      1.0  0.00848  0.63720  0.22937  1.0000
  C   C969      1.0  0.28075  0.94046  0.38464  1.0000
  H   H763      1.0  0.23014  0.93887  0.29534  1.0000
  C   C970      1.0  0.11641  0.79712  0.43928  1.0000
  H   H764      1.0  0.09951  0.75358  0.46037  1.0000
  C   C971      1.0  0.00025  0.63863  0.24875  1.0000
  C   C972      1.0  0.13435  0.66031  0.26098  1.0000
  C   C973      1.0  0.03034  0.61899  0.25890  1.0000
  C   C974      1.0  0.99544  0.88128  0.41020  1.0000
  C   C975      1.0  0.01932  0.66167  0.29217  1.0000
  C   C976      1.0  0.02064  0.68160  0.29239  1.0000
  H   H765      1.0  0.99669  0.54487  0.31747  1.0000
  H   H766      1.0  0.09459  0.59906  0.31498  1.0000
  H   H767      1.0  0.05380  0.88371  0.42973  1.0000
  C   C977      1.0  0.31089  0.91769  0.37502  1.0000
  Fe  Fe59      1.0  0.10064  0.94540  0.41761  1.0000
  Fe  Fe60      1.0  0.31578  0.94860  0.26906  1.0000
  C   C978      1.0  0.21754  0.88189  0.37890  1.0000
  H   H768      1.0  0.05370  0.61009  0.23569  1.0000
  H   H769      1.0  0.22584  0.87487  0.34967  1.0000
  H   H770      1.0  0.14230  0.74468  0.24190  1.0000
  H   H771      1.0  0.22359  0.84218  0.36954  1.0000
  C   C979      1.0  0.20459  0.97344  0.40077  1.0000
  H   H772      1.0  0.01322  0.49361  0.42190  1.0000
  H   H773      1.0  0.30214  0.92632  0.40339  1.0000
  H   H774      1.0  0.27156  0.90833  0.32516  1.0000
  H   H775      1.0  0.03024  0.90108  0.37486  1.0000
  H   H776      1.0  0.03261  0.65049  0.29266  1.0000
  H   H777      1.0  0.03479  0.68573  0.29287  1.0000
  H   H778      1.0  0.01468  0.58845  0.28980  1.0000
  H   H779      1.0  0.14578  0.84811  0.24215  1.0000
  H   H780      1.0  0.10466  0.77566  0.42837  1.0000
  C   C980      1.0  0.02113  0.76754  0.28721  1.0000
  C   C981      1.0  0.02731  0.77548  0.30121  1.0000
  C   C982      1.0  0.01363  0.78064  0.31747  1.0000
  H   H781      1.0  0.27653  0.90313  0.24108  1.0000
  H   H782      1.0  0.03818  0.85363  0.42341  1.0000
  C   C983      1.0  0.00139  0.76447  0.28952  1.0000
  H   H783      1.0  0.07417  0.64241  0.26450  1.0000
  C   C984      1.0  0.22999  0.94299  0.34228  1.0000
  H   H784      1.0  0.08082  0.59109  0.25135  1.0000
  C   C985      1.0  0.02430  0.89136  0.38769  1.0000
  S   S129      1.0  0.07195  0.96426  0.41058  1.0000
  C   C986      1.0  0.01787  0.59546  0.45692  1.0000
  C   C987      1.0  0.02111  0.52230  0.45393  1.0000
  H   H785      1.0  0.19465  0.73609  0.22411  1.0000
  C   C988      1.0  0.21568  0.93769  0.40720  1.0000
  H   H786      1.0  0.21371  0.92310  0.41560  1.0000
  H   H787      1.0  0.15917  0.78464  0.46178  1.0000
  C   C989      1.0  0.00382  0.69636  0.29159  1.0000
  S   S130      1.0  0.03275  0.92338  0.43124  1.0000
  H   H788      1.0  0.28569  0.93445  0.33737  1.0000
  C   C990      1.0  0.09927  0.86197  0.44071  1.0000
  H   H789      1.0  0.04530  0.66541  0.25403  1.0000
  H   H790      1.0  0.05777  0.48257  0.46212  1.0000
  H   H791      1.0  0.10805  0.86009  0.45213  1.0000
  H   H792      1.0  0.01033  0.67798  0.24175  1.0000
  S   S131      1.0  0.99961  0.67450  0.37681  1.0000
  H   H793      1.0  0.22575  0.86706  0.45737  1.0000
  H   H794      1.0  0.30441  0.88615  0.32364  1.0000
  C   C991      1.0  0.30659  0.85877  0.23548  1.0000
  H   H795      1.0  0.12430  0.63426  0.46235  1.0000
  P   P31       1.0  0.99981  0.63111  0.28865  1.0000
  H   H796      1.0  0.26857  0.96707  0.31785  1.0000
  H   H797      1.0  0.03677  0.47955  0.29540  1.0000
  Fe  Fe61      1.0  0.07215  0.97718  0.43720  1.0000
  H   H798      1.0  0.01179  0.47914  0.45688  1.0000
  H   H799      1.0  0.03578  0.60909  0.47050  1.0000
  H   H800      1.0  0.12399  0.92110  0.46940  1.0000
  H   H801      1.0  0.13074  0.95745  0.46926  1.0000
  H   H802      1.0  0.01242  0.93513  0.46954  1.0000
  C   C992      1.0  0.06203  0.66071  0.55652  1.0000
  H   H803      1.0  0.12834  0.51972  0.69719  1.0000
  C   C993      1.0  0.01583  0.56700  0.49078  1.0000
  H   H804      1.0  0.01615  0.51424  0.50342  1.0000
  H   H805      1.0  0.18781  0.50921  0.70974  1.0000
  C   C994      1.0  0.10600  0.75806  0.55286  1.0000
  H   H806      1.0  0.20467  0.78167  0.69753  1.0000
  H   H807      1.0  0.08766  0.81935  0.49028  1.0000
  C   C995      1.0  0.03847  0.70717  0.67470  1.0000
  H   H808      1.0  0.01746  0.61313  0.65752  1.0000
  S   S132      1.0  0.00816  0.63102  0.50612  1.0000
  C   C996      1.0  0.16675  0.65413  0.68159  1.0000
  C   C997      1.0  0.01193  0.48716  0.54536  1.0000
  Fe  Fe62      1.0  0.02083  0.56819  0.55488  1.0000
  S   S133      1.0  0.03299  0.59715  0.54898  1.0000
  S   S134      1.0  0.04152  0.54008  0.54815  1.0000
  C   C998      1.0  0.14101  0.52546  0.69949  1.0000
  C   C999      1.0  0.11703  0.82233  0.49426  1.0000
  H   H809      1.0  0.11141  0.64037  0.67522  1.0000
  Fe  Fe63      1.0  0.00612  0.60965  0.53467  1.0000
  Fe  Fe64      1.0  0.01280  0.60332  0.57686  1.0000
  S   S135      1.0  0.01720  0.61880  0.60055  1.0000
  C   C1000     1.0  0.18634  0.78076  0.47274  1.0000
  S   S136      1.0  0.00292  0.57317  0.58413  1.0000
  Fe  Fe65      1.0  0.18217  0.86835  0.52609  1.0000
  S   S137      1.0  0.17275  0.84109  0.52013  1.0000
  S   S138      1.0  0.16788  0.90020  0.51791  1.0000
  Fe  Fe66      1.0  0.21939  0.84541  0.54165  1.0000
  S   S139      1.0  0.21362  0.81602  0.53620  1.0000
  S   S140      1.0  0.24723  0.84771  0.55313  1.0000
  Fe  Fe67      1.0  0.20523  0.83314  0.50767  1.0000
  S   S141      1.0  0.21745  0.82375  0.47797  1.0000
  Fe  Fe68      1.0  0.18162  0.82612  0.54902  1.0000
  S   S142      1.0  0.16299  0.80846  0.57446  1.0000
  S   S143      1.0  0.21404  0.86131  0.51207  1.0000
  S   S144      1.0  0.18800  0.85460  0.55604  1.0000
  Fe  Fe69      1.0  0.27780  0.91211  0.61926  1.0000
  S   S145      1.0  0.27700  0.92945  0.64338  1.0000
  S   S146      1.0  0.24917  0.90571  0.61238  1.0000
  H   H810      1.0  0.29665  0.95171  0.51108  1.0000
  C   C1001     1.0  0.05775  0.70915  0.53858  1.0000
  H   H811      1.0  0.20078  0.78228  0.58633  1.0000
  Fe  Fe70      1.0  0.09959  0.66788  0.61615  1.0000
  S   S147      1.0  0.09176  0.69727  0.59743  1.0000
  S   S148      1.0  0.10121  0.63872  0.60561  1.0000
  Fe  Fe71      1.0  0.10476  0.68715  0.64940  1.0000
  S   S149      1.0  0.09690  0.71848  0.63334  1.0000
  Fe  Fe72      1.0  0.07261  0.70636  0.62467  1.0000
  S   S150      1.0  0.04220  0.72499  0.62252  1.0000
  Fe  Fe73      1.0  0.11667  0.70704  0.60730  1.0000
  S   S151      1.0  0.13877  0.72200  0.58328  1.0000
  S   S152      1.0  0.07875  0.67615  0.64280  1.0000
  S   S153      1.0  0.12626  0.67647  0.62395  1.0000
  H   H812      1.0  0.14764  0.66470  0.65993  1.0000
  H   H813      1.0  0.02315  0.64268  0.53458  1.0000
  C   C1002     1.0  0.04674  0.56855  0.71395  1.0000
  S   S154      1.0  0.08412  0.92123  0.49170  1.0000
  C   C1003     1.0  0.02122  0.71277  0.62669  1.0000
  C   C1004     1.0  0.02257  0.69233  0.63397  1.0000
  C   C1005     1.0  0.06285  0.57565  0.70106  1.0000
  C   C1006     1.0  0.00261  0.72395  0.62358  1.0000
  H   H814      1.0  0.05160  0.60486  0.63941  1.0000
  H   H815      1.0  0.07416  0.63663  0.67427  1.0000
  C   C1007     1.0  0.99994  0.69622  0.52106  1.0000
  H   H816      1.0  0.05818  0.63923  0.51830  1.0000
  C   C1008     1.0  0.24746  0.86479  0.56881  1.0000
  C   C1009     1.0  0.22984  0.87454  0.57865  1.0000
  C   C1010     1.0  0.23062  0.88706  0.59187  1.0000
  C   C1011     1.0  0.24899  0.89005  0.59536  1.0000
  C   C1012     1.0  0.26664  0.88023  0.58561  1.0000
  C   C1013     1.0  0.26585  0.86766  0.57242  1.0000
  H   H817      1.0  0.21559  0.87229  0.57621  1.0000
  H   H818      1.0  0.21689  0.89449  0.59942  1.0000
  H   H819      1.0  0.28087  0.88239  0.58819  1.0000
  H   H820      1.0  0.27956  0.86015  0.56493  1.0000
  C   C1014     1.0  0.15638  0.78441  0.57651  1.0000
  C   C1015     1.0  0.14326  0.77728  0.59312  1.0000
  C   C1016     1.0  0.13771  0.75822  0.59546  1.0000
  C   C1017     1.0  0.14534  0.74605  0.58121  1.0000
  C   C1018     1.0  0.15865  0.75308  0.56470  1.0000
  C   C1019     1.0  0.16413  0.77216  0.56234  1.0000
  H   H821      1.0  0.13728  0.78660  0.60422  1.0000
  H   H822      1.0  0.12752  0.75301  0.60826  1.0000
  H   H823      1.0  0.16471  0.74376  0.55362  1.0000
  H   H824      1.0  0.17441  0.77735  0.54965  1.0000
  P   P32       1.0  0.03824  0.64914  0.70190  1.0000
  C   C1020     1.0  0.12100  0.85598  0.49649  1.0000
  C   C1021     1.0  0.14697  0.95772  0.49193  1.0000
  C   C1022     1.0  0.11354  0.65824  0.55497  1.0000
  H   H825      1.0  0.22139  0.67156  0.69631  1.0000
  H   H826      1.0  0.23103  0.60210  0.69220  1.0000
  C   C1023     1.0  0.09646  0.65169  0.50278  1.0000
  H   H827      1.0  0.17956  0.64909  0.67128  1.0000
  H   H828      1.0  0.04442  0.48775  0.49615  1.0000
  H   H829      1.0  0.04128  0.92212  0.51939  1.0000
  C   C1024     1.0  0.04073  0.62484  0.60050  1.0000
  C   C1025     1.0  0.04178  0.64019  0.61042  1.0000
  C   C1026     1.0  0.06027  0.64509  0.61122  1.0000
  C   C1027     1.0  0.07791  0.63407  0.60286  1.0000
  C   C1028     1.0  0.07694  0.61874  0.59284  1.0000
  C   C1029     1.0  0.05835  0.61431  0.59141  1.0000
  H   H830      1.0  0.02824  0.64837  0.61750  1.0000
  H   H831      1.0  0.06081  0.65699  0.61887  1.0000
  H   H832      1.0  0.09055  0.61022  0.58628  1.0000
  H   H833      1.0  0.05765  0.60243  0.58375  1.0000
  C   C1030     1.0  0.16294  0.79231  0.50686  1.0000
  C   C1031     1.0  0.99106  0.62883  0.49169  1.0000
  H   H834      1.0  0.12632  0.55595  0.69666  1.0000
  C   C1032     1.0  0.04122  0.50340  0.53907  1.0000
  C   C1033     1.0  0.02974  0.52028  0.54629  1.0000
  C   C1034     1.0  0.00927  0.52069  0.55285  1.0000
  H   H835      1.0  0.13031  0.86635  0.49805  1.0000
  H   H836      1.0  0.00033  0.53357  0.55863  1.0000
  H   H837      1.0  0.10999  0.64467  0.56449  1.0000
  C   C1035     1.0  0.10776  0.91303  0.49817  1.0000
  C   C1036     1.0  0.04915  0.61294  0.65157  1.0000
  P   P33       1.0  0.08570  0.97713  0.52830  1.0000
  C   C1037     1.0  0.14513  0.90265  0.50991  1.0000
  C   C1038     1.0  0.12789  0.89948  0.52338  1.0000
  C   C1039     1.0  0.10921  0.90466  0.51749  1.0000
  C   C1040     1.0  0.04265  0.63482  0.68229  1.0000
  H   H838      1.0  0.07972  0.61713  0.64738  1.0000
  H   H839      1.0  0.12893  0.89378  0.53848  1.0000
  H   H840      1.0  0.09582  0.90266  0.52799  1.0000
  C   C1041     1.0  0.09708  0.82944  0.49212  1.0000
  H   H841      1.0  0.05707  0.50297  0.53406  1.0000
  H   H842      1.0  0.01545  0.55590  0.50388  1.0000
  C   C1042     1.0  0.21657  0.59756  0.69407  1.0000
  H   H843      1.0  0.07248  0.67699  0.50208  1.0000
  H   H844      1.0  0.31482  0.96353  0.57468  1.0000
  P   P34       1.0  0.09417  0.64729  0.52896  1.0000
  H   H845      1.0  0.00641  0.66767  0.64523  1.0000
  H   H846      1.0  0.03675  0.68359  0.63654  1.0000
  S   S155      1.0  0.10879  0.68040  0.68114  1.0000
  C   C1043     1.0  0.07250  0.62761  0.71533  1.0000
  H   H847      1.0  0.17974  0.78508  0.61846  1.0000
  C   C1044     1.0  0.12505  0.91505  0.48443  1.0000
  S   S156      1.0  0.30174  0.88785  0.62912  1.0000
  C   C1045     1.0  0.03763  0.70944  0.53807  1.0000
  H   H848      1.0  0.30111  0.97417  0.65524  1.0000
  C   C1046     1.0  0.13178  0.59537  0.54391  1.0000
  C   C1047     1.0  0.08529  0.92205  0.56269  1.0000
  H   H849      1.0  0.15904  0.49625  0.70404  1.0000
  H   H850      1.0  0.01300  0.65615  0.56525  1.0000
  H   H851      1.0  0.03392  0.70573  0.52533  1.0000
  H   H852      1.0  0.01752  0.72301  0.58245  1.0000
  H   H853      1.0  0.00504  0.75430  0.55610  1.0000
  C   C1048     1.0  0.09159  0.93845  0.54963  1.0000
  H   H854      1.0  0.15011  0.57388  0.66468  1.0000
  C   C1049     1.0  0.24561  0.69919  0.65683  1.0000
  C   C1050     1.0  0.02832  0.92899  0.51273  1.0000
  C   C1051     1.0  0.98790  0.69301  0.56945  1.0000
  H   H855      1.0  0.14439  0.83079  0.49786  1.0000
  H   H856      1.0  0.12627  0.96960  0.53655  1.0000
  H   H857      1.0  0.21148  0.77939  0.48673  1.0000
  H   H858      1.0  0.25873  0.87957  0.64665  1.0000
  C   C1052     1.0  0.02669  0.58257  0.48876  1.0000
  H   H859      1.0  0.01152  0.63244  0.68459  1.0000
  Fe  Fe74      1.0  0.30280  0.90608  0.65169  1.0000
  H   H860      1.0  0.03472  0.97047  0.49155  1.0000
  H   H861      1.0  0.00368  0.68201  0.49587  1.0000
  C   C1053     1.0  0.09640  0.77769  0.54836  1.0000
  C   C1054     1.0  0.12137  0.74988  0.53929  1.0000
  C   C1055     1.0  0.00114  0.50318  0.60398  1.0000
  C   C1056     1.0  0.03229  0.48699  0.53839  1.0000
  H   H862      1.0  0.12470  0.56576  0.55516  1.0000
  H   H863      1.0  0.12079  0.67185  0.71860  1.0000
  C   C1057     1.0  0.01210  0.94033  0.52291  1.0000
  H   H864      1.0  0.00146  0.73978  0.61793  1.0000
  P   P35       1.0  0.12686  0.79615  0.49400  1.0000
  H   H865      1.0  0.30519  0.77768  0.61607  1.0000
  C   C1058     1.0  0.19536  0.78208  0.48822  1.0000
  P   P36       1.0  0.99665  0.71451  0.55351  1.0000
  H   H866      1.0  0.13226  0.59486  0.63920  1.0000
  C   C1059     1.0  0.24262  0.68656  0.67473  1.0000
  H   H867      1.0  0.14759  0.59084  0.54412  1.0000
  C   C1060     1.0  0.02855  0.71901  0.57009  1.0000
  H   H868      1.0  0.12129  0.62770  0.49802  1.0000
  H   H869      1.0  0.26034  0.70280  0.65067  1.0000
  C   C1061     1.0  0.12896  0.83577  0.49639  1.0000
  C   C1062     1.0  0.15374  0.79115  0.49131  1.0000
  C   C1063     1.0  0.02116  0.50016  0.59523  1.0000
  Fe  Fe75      1.0  0.30057  0.94514  0.62277  1.0000
  H   H870      1.0  0.11314  0.62817  0.64432  1.0000
  C   C1064     1.0  0.16843  0.65183  0.70128  1.0000
  H   H871      1.0  0.02842  0.51289  0.58810  1.0000
  H   H872      1.0  0.05297  0.72231  0.58308  1.0000
  H   H873      1.0  0.10882  0.76222  0.48909  1.0000
  H   H874      1.0  0.27387  0.86368  0.67562  1.0000
  C   C1065     1.0  0.06008  0.64625  0.71298  1.0000
  C   C1066     1.0  0.16562  0.78534  0.47421  1.0000
  H   H875      1.0  0.26991  0.97090  0.49359  1.0000
  C   C1067     1.0  0.14864  0.66288  0.67516  1.0000
  C   C1068     1.0  0.18368  0.78795  0.50521  1.0000
  C   C1069     1.0  0.00051  0.50396  0.55279  1.0000
  H   H876      1.0  0.12926  0.73494  0.54313  1.0000
  H   H877      1.0  0.04941  0.71695  0.66839  1.0000
  H   H878      1.0  0.17752  0.60316  0.67031  1.0000
  C   C1070     1.0  0.11122  0.63986  0.49137  1.0000
  C   C1071     1.0  0.10960  0.96970  0.51384  1.0000
  H   H879      1.0  0.99290  0.51826  0.60351  1.0000
  H   H880      1.0  0.06127  0.58222  0.68620  1.0000
  H   H881      1.0  0.21079  0.61270  0.66587  1.0000
  C   C1072     1.0  0.11096  0.77211  0.47532  1.0000
  C   C1073     1.0  0.12724  0.76130  0.52126  1.0000
  S   S157      1.0  0.29917  0.92957  0.59801  1.0000
  C   C1074     1.0  0.10107  0.86286  0.49459  1.0000
  C   C1075     1.0  0.02810  0.92688  0.49366  1.0000
  C   C1076     1.0  0.12970  0.96046  0.48383  1.0000
  H   H882      1.0  0.13960  0.75491  0.51116  1.0000
  C   C1077     1.0  0.07793  0.95592  0.54545  1.0000
  C   C1078     1.0  0.31877  0.80306  0.71077  1.0000
  H   H883      1.0  0.04089  0.91845  0.48559  1.0000
  H   H884      1.0  0.10705  0.93718  0.54263  1.0000
  H   H885      1.0  0.31791  0.94615  0.54667  1.0000
  C   C1079     1.0  0.06505  0.61978  0.65616  1.0000
  C   C1080     1.0  0.14375  0.91005  0.49036  1.0000
  C   C1081     1.0  0.04200  0.66296  0.56532  1.0000
  H   H886      1.0  0.03414  0.58373  0.50041  1.0000
  H   H887      1.0  0.10195  0.74935  0.56708  1.0000
  C   C1082     1.0  0.08563  0.67115  0.47331  1.0000
  H   H888      1.0  0.01241  0.94219  0.53761  1.0000
  C   C1083     1.0  0.02661  0.62854  0.67710  1.0000
  H   H889      1.0  0.07368  0.85503  0.49092  1.0000
  C   C1084     1.0  0.04868  0.71869  0.57051  1.0000
  C   C1085     1.0  0.00561  0.56578  0.47601  1.0000
  C   C1086     1.0  0.11912  0.78961  0.47358  1.0000
  C   C1087     1.0  0.18619  0.59817  0.68190  1.0000
  H   H890      1.0  0.15217  0.73308  0.70327  1.0000
  S   S158      1.0  0.30341  0.88757  0.68183  1.0000
  C   C1088     1.0  0.03398  0.64805  0.54043  1.0000
  C   C1089     1.0  0.08910  0.84960  0.49246  1.0000
  H   H891      1.0  0.03272  0.56955  0.70902  1.0000
  C   C1090     1.0  0.15123  0.72863  0.68973  1.0000
  C   C1091     1.0  0.13268  0.72742  0.68565  1.0000
  C   C1092     1.0  0.13144  0.72178  0.66817  1.0000
  C   C1093     1.0  0.14873  0.71677  0.65494  1.0000
  C   C1094     1.0  0.16748  0.71748  0.65913  1.0000
  C   C1095     1.0  0.16855  0.72397  0.67640  1.0000
  P   P37       1.0  0.18988  0.71187  0.64178  1.0000
  C   C1096     1.0  0.21057  0.70224  0.65470  1.0000
  C   C1097     1.0  0.18694  0.69280  0.62880  1.0000
  C   C1098     1.0  0.19407  0.67251  0.63486  1.0000
  C   C1099     1.0  0.19159  0.65785  0.62485  1.0000
  C   C1100     1.0  0.18224  0.66332  0.60854  1.0000
  C   C1101     1.0  0.17534  0.68345  0.60225  1.0000
  C   C1102     1.0  0.17748  0.69814  0.61241  1.0000
  C   C1103     1.0  0.22968  0.70693  0.64678  1.0000
  H   H892      1.0  0.09777  0.96702  0.48868  1.0000
  C   C1104     1.0  0.02772  0.59679  0.47184  1.0000
  C   C1105     1.0  0.01046  0.68138  0.68898  1.0000
  C   C1106     1.0  0.20777  0.68939  0.67262  1.0000
  C   C1107     1.0  0.19416  0.73435  0.62467  1.0000
  C   C1108     1.0  0.18489  0.75332  0.62908  1.0000
  C   C1109     1.0  0.18748  0.77052  0.61535  1.0000
  C   C1110     1.0  0.19935  0.76896  0.59718  1.0000
  C   C1111     1.0  0.20877  0.75020  0.59273  1.0000
  C   C1112     1.0  0.20624  0.73296  0.60641  1.0000
  C   C1113     1.0  0.00531  0.68335  0.63896  1.0000
  C   C1114     1.0  0.02150  0.51212  0.48844  1.0000
  H   H893      1.0  0.11701  0.72091  0.66509  1.0000
  H   H894      1.0  0.14734  0.71229  0.64157  1.0000
  H   H895      1.0  0.18275  0.72530  0.67970  1.0000
  H   H896      1.0  0.20145  0.66784  0.64737  1.0000
  H   H897      1.0  0.19687  0.64223  0.62981  1.0000
  H   H898      1.0  0.18021  0.65198  0.60081  1.0000
  H   H899      1.0  0.16804  0.68768  0.58962  1.0000
  H   H900      1.0  0.17163  0.71364  0.60749  1.0000
  H   H901      1.0  0.23237  0.71643  0.63284  1.0000
  H   H902      1.0  0.20783  0.75030  0.68419  1.0000
  P   P38       1.0  0.99289  0.54482  0.47831  1.0000
  H   H903      1.0  0.19330  0.68505  0.67884  1.0000
  H   H904      1.0  0.17525  0.75491  0.64287  1.0000
  H   H905      1.0  0.99369  0.66273  0.61260  1.0000
  C   C1115     1.0  0.26681  0.85488  0.66869  1.0000
  H   H906      1.0  0.21761  0.74904  0.57846  1.0000
  H   H907      1.0  0.21334  0.71850  0.60257  1.0000
  C   C1116     1.0  0.10375  0.62138  0.53727  1.0000
  C   C1117     1.0  0.10777  0.66337  0.53661  1.0000
  C   C1118     1.0  0.11228  0.68123  0.52467  1.0000
  C   C1119     1.0  0.12243  0.69371  0.53109  1.0000
  C   C1120     1.0  0.12811  0.68844  0.54942  1.0000
  C   C1121     1.0  0.12366  0.67072  0.56133  1.0000
  C   C1122     1.0  0.03174  0.48076  0.59514  1.0000
  C   C1123     1.0  0.09094  0.60703  0.54354  1.0000
  C   C1124     1.0  0.09851  0.58707  0.54993  1.0000
  C   C1125     1.0  0.03771  0.49715  0.48437  1.0000
  S   S159      1.0  0.19200  0.64243  0.70828  1.0000
  C   C1126     1.0  0.12426  0.61535  0.53746  1.0000
  H   H908      1.0  0.10802  0.68557  0.51045  1.0000
  H   H909      1.0  0.12593  0.70746  0.52186  1.0000
  H   H910      1.0  0.13593  0.69807  0.55447  1.0000
  H   H911      1.0  0.03741  0.66931  0.57862  1.0000
  H   H912      1.0  0.07507  0.61106  0.54374  1.0000
  H   H913      1.0  0.08847  0.57614  0.55479  1.0000
  H   H914      1.0  0.28806  0.83659  0.62667  1.0000
  C   C1127     1.0  0.17368  0.54005  0.70582  1.0000
  H   H915      1.0  0.13445  0.62609  0.53265  1.0000
  C   C1128     1.0  0.05710  0.97350  0.50727  1.0000
  C   C1129     1.0  0.13194  0.66932  0.68848  1.0000
  C   C1130     1.0  0.06182  0.63083  0.67137  1.0000
  C   C1131     1.0  0.25829  0.86387  0.65231  1.0000
  C   C1132     1.0  0.11891  0.58124  0.55015  1.0000
  C   C1133     1.0  0.22371  0.68163  0.68257  1.0000
  C   C1134     1.0  0.27931  0.81323  0.58626  1.0000
  C   C1135     1.0  0.29466  0.79836  0.59210  1.0000
  C   C1136     1.0  0.29318  0.78905  0.61152  1.0000
  C   C1137     1.0  0.27627  0.79452  0.62506  1.0000
  C   C1138     1.0  0.26066  0.80924  0.61919  1.0000
  C   C1139     1.0  0.26249  0.81880  0.59980  1.0000
  P   P39       1.0  0.23960  0.81722  0.63696  1.0000
  C   C1140     1.0  0.23054  0.79568  0.65229  1.0000
  C   C1141     1.0  0.24889  0.83231  0.65018  1.0000
  C   C1142     1.0  0.24965  0.85261  0.64288  1.0000
  C   C1143     1.0  0.25774  0.82328  0.66654  1.0000
  C   C1144     1.0  0.23189  0.77803  0.64471  1.0000
  C   C1145     1.0  0.22375  0.76173  0.65621  1.0000
  C   C1146     1.0  0.21414  0.76295  0.67531  1.0000
  C   C1147     1.0  0.21243  0.78060  0.68283  1.0000
  C   C1148     1.0  0.22041  0.79700  0.67131  1.0000
  C   C1149     1.0  0.21866  0.82991  0.62540  1.0000
  C   C1150     1.0  0.20683  0.84738  0.63125  1.0000
  C   C1151     1.0  0.19029  0.85652  0.62251  1.0000
  C   C1152     1.0  0.18507  0.84797  0.60834  1.0000
  C   C1153     1.0  0.19638  0.83025  0.60291  1.0000
  C   C1154     1.0  0.21311  0.82127  0.61135  1.0000
  H   H916      1.0  0.28037  0.82058  0.57123  1.0000
  C   C1155     1.0  0.12706  0.96723  0.52179  1.0000
  H   H917      1.0  0.17505  0.83822  0.47807  1.0000
  H   H918      1.0  0.27540  0.78738  0.64010  1.0000
  H   H919      1.0  0.25096  0.83062  0.59504  1.0000
  H   H920      1.0  0.24405  0.85973  0.62963  1.0000
  H   H921      1.0  0.25821  0.80744  0.67191  1.0000
  H   H922      1.0  0.23888  0.77696  0.62980  1.0000
  H   H923      1.0  0.22466  0.74825  0.65022  1.0000
  H   H924      1.0  0.31777  0.86200  0.71497  1.0000
  H   H925      1.0  0.09491  0.87849  0.49466  1.0000
  H   H926      1.0  0.21842  0.81078  0.67713  1.0000
  H   H927      1.0  0.21021  0.85399  0.64254  1.0000
  H   H928      1.0  0.18151  0.87028  0.62668  1.0000
  H   H929      1.0  0.17229  0.85505  0.60151  1.0000
  H   H930      1.0  0.19225  0.82358  0.59199  1.0000
  H   H931      1.0  0.22174  0.80761  0.60681  1.0000
  H   H932      1.0  0.99953  0.67140  0.69367  1.0000
  C   C1156     1.0  0.98816  0.66869  0.59912  1.0000
  C   C1157     1.0  0.14564  0.96101  0.51094  1.0000
  H   H933      1.0  0.09342  0.57986  0.69733  1.0000
  H   H934      1.0  0.11922  0.73078  0.69602  1.0000
  H   H935      1.0  0.30873  0.82938  0.65232  1.0000
  H   H936      1.0  0.12915  0.62009  0.70059  1.0000
  H   H937      1.0  0.07887  0.71329  0.55536  1.0000
  C   C1158     1.0  0.20513  0.60352  0.67923  1.0000
  C   C1159     1.0  0.98939  0.71281  0.49075  1.0000
  H   H938      1.0  0.09591  0.90856  0.56564  1.0000
  C   C1160     1.0  0.06532  0.92290  0.57161  1.0000
  C   C1161     1.0  0.05162  0.94020  0.56750  1.0000
  C   C1162     1.0  0.05788  0.95665  0.55446  1.0000
  H   H939      1.0  0.25496  0.68041  0.68247  1.0000
  S   S160      1.0  0.99552  0.58023  0.53859  1.0000
  C   C1163     1.0  0.05387  0.64618  0.53127  1.0000
  H   H940      1.0  0.08479  0.78416  0.55908  1.0000
  H   H941      1.0  0.12783  0.66671  0.57566  1.0000
  H   H942      1.0  0.00478  0.69287  0.59214  1.0000
  H   H943      1.0  0.06943  0.61511  0.70997  1.0000
  C   C1164     1.0  0.13352  0.66669  0.70824  1.0000
  C   C1165     1.0  0.06328  0.71369  0.55483  1.0000
  C   C1166     1.0  0.31575  0.83279  0.63734  1.0000
  C   C1167     1.0  0.10224  0.78921  0.53034  1.0000
  H   H944      1.0  0.09501  0.80457  0.52749  1.0000
  H   H945      1.0  0.26966  0.89492  0.71857  1.0000
  H   H946      1.0  0.30772  0.79418  0.58156  1.0000
  C   C1168     1.0  0.01180  0.93623  0.48466  1.0000
  C   C1169     1.0  0.26658  0.83456  0.67579  1.0000
  C   C1170     1.0  0.13998  0.54598  0.69907  1.0000
  C   C1171     1.0  0.02814  0.65600  0.55763  1.0000
  H   H947      1.0  0.06049  0.91009  0.58160  1.0000
  H   H948      1.0  0.03613  0.94084  0.57436  1.0000
  S   S161      1.0  0.98699  0.61848  0.56196  1.0000
  C   C1172     1.0  0.99336  0.71395  0.52903  1.0000
  C   C1173     1.0  0.17855  0.58685  0.69951  1.0000
  C   C1174     1.0  0.11773  0.78108  0.51663  1.0000
  C   C1175     1.0  0.15829  0.51223  0.70323  1.0000
  C   C1176     1.0  0.02278  0.71437  0.55386  1.0000
  H   H949      1.0  0.06909  0.70519  0.52646  1.0000
  H   H950      1.0  0.15410  0.79680  0.52018  1.0000
  H   H951      1.0  0.07260  0.66524  0.56342  1.0000
  H   H952      1.0  0.19081  0.78960  0.51690  1.0000
  C   C1177     1.0  0.06815  0.65212  0.53950  1.0000
  C   C1178     1.0  0.99179  0.48677  0.61313  1.0000
  C   C1179     1.0  0.99819  0.69572  0.50195  1.0000
  H   H953      1.0  0.06024  0.68251  0.68396  1.0000
  H   H954      1.0  0.18642  0.54508  0.70876  1.0000
  C   C1180     1.0  0.02990  0.61757  0.66184  1.0000
  C   C1181     1.0  0.99562  0.94951  0.51404  1.0000
  P   P40       1.0  0.15411  0.57982  0.70341  1.0000
  C   C1182     1.0  0.15635  0.55348  0.70216  1.0000
  C   C1183     1.0  0.14022  0.59483  0.68513  1.0000
  C   C1184     1.0  0.12948  0.61387  0.68772  1.0000
  C   C1185     1.0  0.11949  0.62563  0.67318  1.0000
  C   C1186     1.0  0.12046  0.61875  0.65577  1.0000
  C   C1187     1.0  0.13129  0.59998  0.65290  1.0000
  C   C1188     1.0  0.14125  0.58810  0.66745  1.0000
  H   H955      1.0  0.98910  0.70598  0.67817  1.0000
  H   H956      1.0  0.15710  0.91247  0.47993  1.0000
  H   H957      1.0  0.01392  0.72890  0.66577  1.0000
  C   C1189     1.0  0.08383  0.66753  0.49359  1.0000
  C   C1190     1.0  0.17459  0.51955  0.70635  1.0000
  C   C1191     1.0  0.01263  0.52436  0.47326  1.0000
  C   C1192     1.0  0.19008  0.58115  0.71436  1.0000
  H   H958      1.0  0.16131  0.95239  0.48371  1.0000
  C   C1193     1.0  0.08098  0.57423  0.70733  1.0000
  H   H959      1.0  0.06121  0.95746  0.51122  1.0000
  C   C1194     1.0  0.98939  0.75373  0.56154  1.0000
  H   H960      1.0  0.00667  0.68282  0.52957  1.0000
  C   C1195     1.0  0.99454  0.68574  0.58729  1.0000
  C   C1196     1.0  0.03048  0.67467  0.69109  1.0000
  C   C1197     1.0  0.04453  0.68759  0.68349  1.0000
  C   C1198     1.0  0.30012  0.96348  0.49903  1.0000
  H   H961      1.0  0.27113  0.85969  0.71529  1.0000
  H   H962      1.0  0.27351  0.82753  0.68830  1.0000
  H   H963      1.0  0.30370  0.83336  0.71134  1.0000
  H   H964      1.0  0.98797  0.71237  0.47594  1.0000
  C   C1199     1.0  0.01843  0.71394  0.67323  1.0000
  H   H965      1.0  0.15899  0.95825  0.51740  1.0000
  C   C1200     1.0  0.28489  0.97443  0.48923  1.0000
  C   C1201     1.0  0.20907  0.58630  0.71160  1.0000
  C   C1202     1.0  0.15164  0.65790  0.71466  1.0000
  C   C1203     1.0  0.00445  0.70101  0.68026  1.0000
  C   C1204     1.0  0.99307  0.63805  0.47215  1.0000
  C   C1205     1.0  0.11102  0.96597  0.49488  1.0000
  H   H966      1.0  0.02807  0.60927  0.71736  1.0000
  C   C1206     1.0  0.30391  0.83683  0.62284  1.0000
  H   H967      1.0  0.30300  0.84555  0.59224  1.0000
  H   H968      1.0  0.31307  0.94801  0.68211  1.0000
  C   C1207     1.0  0.31235  0.84182  0.60335  1.0000
  H   H969      1.0  0.04708  0.96995  0.55134  1.0000
  C   C1208     1.0  0.99523  0.94738  0.49485  1.0000
  H   H970      1.0  0.30984  0.95120  0.71673  1.0000
  H   H971      1.0  0.04719  0.47889  0.58808  1.0000
  C   C1209     1.0  0.31449  0.82332  0.70308  1.0000
  C   C1210     1.0  0.31965  0.96770  0.49328  1.0000
  H   H972      1.0  0.31752  0.89157  0.49893  1.0000
  C   C1211     1.0  0.11301  0.64355  0.47109  1.0000
  C   C1212     1.0  0.98665  0.69459  0.63623  1.0000
  H   H973      1.0  0.05376  0.67610  0.72050  1.0000
  Fe  Fe76      1.0  0.07913  0.52321  0.88353  1.0000
  Fe  Fe77      1.0  0.10122  0.52468  0.84213  1.0000
  C   C1213     1.0  0.01389  0.51064  0.84577  1.0000
  S   S162      1.0  0.12580  0.53465  0.81895  1.0000
  C   C1214     1.0  0.06929  0.56728  0.77826  1.0000
  H   H974      1.0  0.19989  0.57641  0.86654  1.0000
  P   P41       1.0  0.19452  0.50745  0.84530  1.0000
  S   S163      1.0  0.28383  0.70857  0.92034  1.0000
  C   C1215     1.0  0.19166  0.50594  0.75649  1.0000
  H   H975      1.0  0.09396  0.53097  0.79496  1.0000
  Fe  Fe78      1.0  0.28003  0.70166  0.85056  1.0000
  S   S164      1.0  0.25249  0.69467  0.84135  1.0000
  H   H976      1.0  0.21869  0.48655  0.76250  1.0000
  S   S165      1.0  0.27489  0.72856  0.86571  1.0000
  S   S166      1.0  0.10836  0.50668  0.87040  1.0000
  Fe  Fe79      1.0  0.21836  0.62937  0.77278  1.0000
  S   S167      1.0  0.18956  0.64729  0.76454  1.0000
  S   S168      1.0  0.24463  0.63978  0.78092  1.0000
  Fe  Fe80      1.0  0.20872  0.58956  0.76509  1.0000
  S   S169      1.0  0.17971  0.60468  0.75593  1.0000
  S   S170      1.0  0.22111  0.55602  0.76820  1.0000
  Fe  Fe81      1.0  0.19557  0.62983  0.73967  1.0000
  H   H977      1.0  0.15622  0.53356  0.85033  1.0000
  Fe  Fe82      1.0  0.17579  0.62072  0.78141  1.0000
  S   S171      1.0  0.14690  0.62186  0.80276  1.0000
  S   S172      1.0  0.22540  0.61351  0.74663  1.0000
  S   S173      1.0  0.20388  0.60424  0.79162  1.0000
  C   C1216     1.0  0.20914  0.53695  0.76415  1.0000
  S   S174      1.0  0.07381  0.54333  0.85564  1.0000
  C   C1217     1.0  0.06459  0.56365  0.79867  1.0000
  C   C1218     1.0  0.21061  0.50166  0.76170  1.0000
  C   C1219     1.0  0.21936  0.51714  0.76532  1.0000
  C   C1220     1.0  0.06685  0.55859  0.73960  1.0000
  H   H978      1.0  0.19695  0.61291  0.83410  1.0000
  H   H979      1.0  0.23423  0.51379  0.76879  1.0000
  C   C1221     1.0  0.25075  0.67974  0.82407  1.0000
  C   C1222     1.0  0.23175  0.67807  0.82095  1.0000
  C   C1223     1.0  0.22953  0.66583  0.80797  1.0000
  C   C1224     1.0  0.24635  0.65526  0.79774  1.0000
  C   C1225     1.0  0.26534  0.65697  0.80082  1.0000
  C   C1226     1.0  0.26756  0.66908  0.81391  1.0000
  H   H980      1.0  0.21867  0.68632  0.82864  1.0000
  H   H981      1.0  0.21484  0.66476  0.80573  1.0000
  H   H982      1.0  0.27847  0.64886  0.79302  1.0000
  H   H983      1.0  0.28227  0.67012  0.81614  1.0000
  C   C1227     1.0  0.02188  0.53132  0.90660  1.0000
  C   C1228     1.0  0.22072  0.50001  0.83656  1.0000
  H   H984      1.0  0.15278  0.65632  0.72985  1.0000
  C   C1229     1.0  0.99942  0.57630  0.92779  1.0000
  C   C1230     1.0  0.24200  0.61786  0.87094  1.0000
  H   H985      1.0  0.18151  0.55598  0.75958  1.0000
  H   H986      1.0  0.06082  0.57565  0.82518  1.0000
  C   C1231     1.0  0.18138  0.52572  0.75550  1.0000
  C   C1232     1.0  0.00667  0.65347  0.73286  1.0000
  C   C1233     1.0  0.18989  0.54104  0.75970  1.0000
  H   H987      1.0  0.24481  0.64182  0.84641  1.0000
  C   C1234     1.0  0.27545  0.77450  0.88316  1.0000
  H   H988      1.0  0.06406  0.53843  0.95167  1.0000
  H   H989      1.0  0.09546  0.52444  0.73541  1.0000
  C   C1235     1.0  0.03639  0.50300  0.78801  1.0000
  H   H990      1.0  0.25545  0.54499  0.84199  1.0000
  C   C1236     1.0  0.12496  0.57140  0.76002  1.0000
  C   C1237     1.0  0.20522  0.62985  0.85301  1.0000
  C   C1238     1.0  0.25459  0.56923  0.81791  1.0000
  C   C1239     1.0  0.13039  0.55926  0.81460  1.0000
  C   C1240     1.0  0.11712  0.57465  0.82283  1.0000
  C   C1241     1.0  0.12204  0.59407  0.81925  1.0000
  C   C1242     1.0  0.14030  0.59786  0.80769  1.0000
  C   C1243     1.0  0.15344  0.58230  0.79980  1.0000
  C   C1244     1.0  0.14831  0.56326  0.80283  1.0000
  H   H991      1.0  0.10314  0.57161  0.83178  1.0000
  H   H992      1.0  0.11182  0.60607  0.82542  1.0000
  H   H993      1.0  0.16789  0.58466  0.79176  1.0000
  H   H994      1.0  0.15855  0.55148  0.79635  1.0000
  C   C1245     1.0  0.10958  0.51219  0.95819  1.0000
  C   C1246     1.0  0.19116  0.50022  0.90431  1.0000
  C   C1247     1.0  0.07877  0.53007  0.94813  1.0000
  C   C1248     1.0  0.08584  0.52610  0.92918  1.0000
  C   C1249     1.0  0.10456  0.51448  0.92489  1.0000
  C   C1250     1.0  0.11643  0.50755  0.93941  1.0000
  C   C1251     1.0  0.06946  0.59714  0.80006  1.0000
  H   H995      1.0  0.11000  0.51117  0.91035  1.0000
  C   C1252     1.0  0.01541  0.53432  0.79386  1.0000
  H   H996      1.0  0.03866  0.48680  0.79006  1.0000
  C   C1253     1.0  0.16773  0.54292  0.84580  1.0000
  C   C1254     1.0  0.23451  0.59343  0.84565  1.0000
  H   H997      1.0  0.16715  0.49177  0.92703  1.0000
  H   H998      1.0  0.24921  0.82921  0.77088  1.0000
  C   C1255     1.0  0.26934  0.81700  0.79151  1.0000
  P   P42       1.0  0.06963  0.54772  0.76442  1.0000
  C   C1256     1.0  0.03083  0.54474  0.78391  1.0000
  H   H999      1.0  0.16657  0.52914  0.75183  1.0000
  C   C1257     1.0  0.25823  0.79043  0.81690  1.0000
  C   C1258     1.0  0.20216  0.60254  0.90177  1.0000
  H   H1000     1.0  0.25571  0.50971  0.79624  1.0000
  C   C1259     1.0  0.99087  0.62603  0.75230  1.0000
  H   H1001     1.0  0.17129  0.56958  0.92616  1.0000
  C   C1260     1.0  0.20158  0.64841  0.85948  1.0000
  H   H1002     1.0  0.98876  0.51923  0.88330  1.0000
  C   C1261     1.0  0.27970  0.84751  0.81552  1.0000
  C   C1262     1.0  0.19738  0.58091  0.88063  1.0000
  H   H1003     1.0  0.20942  0.65088  0.87031  1.0000
  C   C1263     1.0  0.01208  0.60582  0.93042  1.0000
  H   H1004     1.0  0.29428  0.82552  0.86717  1.0000
  H   H1005     1.0  0.18565  0.67859  0.85638  1.0000
  H   H1006     1.0  0.27834  0.83247  0.74256  1.0000
  C   C1264     1.0  0.24121  0.79166  0.80879  1.0000
  H   H1007     1.0  0.02855  0.56085  0.78289  1.0000
  H   H1008     1.0  0.20009  0.50246  0.91434  1.0000
  C   C1265     1.0  0.99909  0.51757  0.89327  1.0000
  C   C1266     1.0  0.30002  0.79535  0.88296  1.0000
  H   H1009     1.0  0.06082  0.54931  0.80635  1.0000
  H   H1010     1.0  0.00362  0.61570  0.95831  1.0000
  C   C1267     1.0  0.10174  0.52092  0.74863  1.0000
  C   C1268     1.0  0.01932  0.64025  0.72128  1.0000
  C   C1269     1.0  0.10073  0.52444  0.78207  1.0000
  H   H1011     1.0  0.24469  0.59434  0.89577  1.0000
  C   C1270     1.0  0.18470  0.57133  0.89594  1.0000
  H   H1012     1.0  0.12575  0.49902  0.73718  1.0000
  H   H1013     1.0  0.03574  0.51223  0.92913  1.0000
  H   H1014     1.0  0.15935  0.59696  0.96841  1.0000
  C   C1271     1.0  0.16215  0.47997  0.80897  1.0000
  C   C1272     1.0  0.18795  0.66413  0.85174  1.0000
  C   C1273     1.0  0.29872  0.72274  0.96797  1.0000
  H   H1015     1.0  0.27769  0.48738  0.81785  1.0000
  H   H1016     1.0  0.28137  0.87670  0.77686  1.0000
  H   H1017     1.0  0.27669  0.67110  0.94827  1.0000
  S   S175      1.0  0.30612  0.76819  0.83602  1.0000
  C   C1274     1.0  0.30341  0.86021  0.82876  1.0000
  H   H1018     1.0  0.13471  0.55365  0.73741  1.0000
  C   C1275     1.0  0.30333  0.65196  0.95583  1.0000
  H   H1019     1.0  0.08458  0.48320  0.95068  1.0000
  C   C1276     1.0  0.08674  0.58546  0.94481  1.0000
  H   H1020     1.0  0.13280  0.61897  0.75754  1.0000
  H   H1021     1.0  0.06213  0.48366  0.92774  1.0000
  C   C1277     1.0  0.30463  0.78817  0.92919  1.0000
  P   P43       1.0  0.11077  0.58793  0.92969  1.0000
  C   C1278     1.0  0.11191  0.61373  0.91911  1.0000
  H   H1022     1.0  0.23057  0.78161  0.81530  1.0000
  C   C1279     1.0  0.12660  0.50067  0.76680  1.0000
  H   H1023     1.0  0.15784  0.49412  0.86879  1.0000
  C   C1280     1.0  0.13960  0.59271  0.95018  1.0000
  C   C1281     1.0  0.09063  0.52328  0.96259  1.0000
  H   H1024     1.0  0.09713  0.56470  0.73117  1.0000
  C   C1282     1.0  0.12735  0.61833  0.90369  1.0000
  C   C1283     1.0  0.12861  0.63824  0.89540  1.0000
  C   C1284     1.0  0.11453  0.65368  0.90252  1.0000
  C   C1285     1.0  0.09919  0.64922  0.91795  1.0000
  C   C1286     1.0  0.09786  0.62931  0.92625  1.0000
  C   C1287     1.0  0.11478  0.57434  0.90948  1.0000
  C   C1288     1.0  0.10404  0.58202  0.89415  1.0000
  C   C1289     1.0  0.10650  0.57182  0.87846  1.0000
  C   C1290     1.0  0.11994  0.55403  0.87774  1.0000
  C   C1291     1.0  0.13123  0.54660  0.89254  1.0000
  C   C1292     1.0  0.12867  0.55666  0.90839  1.0000
  H   H1025     1.0  0.08336  0.67172  0.73592  1.0000
  H   H1026     1.0  0.07766  0.58946  0.75331  1.0000
  H   H1027     1.0  0.18439  0.57268  0.72810  1.0000
  C   C1293     1.0  0.05185  0.51335  0.77802  1.0000
  H   H1028     1.0  0.07357  0.57671  0.92311  1.0000
  H   H1029     1.0  0.22476  0.80675  0.78606  1.0000
  C   C1294     1.0  0.14165  0.60198  0.73385  1.0000
  C   C1295     1.0  0.27700  0.84791  0.74441  1.0000
  H   H1030     1.0  0.21961  0.51740  0.80779  1.0000
  C   C1296     1.0  0.13251  0.60508  0.75268  1.0000
  H   H1031     1.0  0.13842  0.60651  0.89806  1.0000
  H   H1032     1.0  0.14050  0.64169  0.88341  1.0000
  H   H1033     1.0  0.11552  0.66912  0.89610  1.0000
  C   C1297     1.0  0.27209  0.80319  0.80843  1.0000
  H   H1034     1.0  0.00269  0.59691  0.74443  1.0000
  H   H1035     1.0  0.09343  0.59575  0.89450  1.0000
  H   H1036     1.0  0.09776  0.57755  0.86697  1.0000
  H   H1037     1.0  0.12161  0.54608  0.86562  1.0000
  H   H1038     1.0  0.14165  0.53280  0.89192  1.0000
  H   H1039     1.0  0.13742  0.55040  0.91970  1.0000
  C   C1298     1.0  0.24946  0.50330  0.81085  1.0000
  C   C1299     1.0  0.14203  0.58371  0.72775  1.0000
  C   C1300     1.0  0.07136  0.58014  0.93765  1.0000
  H   H1040     1.0  0.27232  0.60615  0.90518  1.0000
  C   C1301     1.0  0.18135  0.49682  0.83145  1.0000
  H   H1041     1.0  0.03599  0.55470  0.74285  1.0000
  H   H1042     1.0  0.99871  0.56525  0.91918  1.0000
  C   C1302     1.0  0.14383  0.55305  0.96907  1.0000
  H   H1043     1.0  0.00628  0.54719  0.88341  1.0000
  C   C1303     1.0  0.26180  0.49076  0.82302  1.0000
  H   H1044     1.0  0.07778  0.61539  0.77250  1.0000
  H   H1045     1.0  0.11741  0.59210  0.78037  1.0000
  S   S176      1.0  0.18015  0.48740  0.75079  1.0000
  C   C1304     1.0  0.20657  0.59628  0.88351  1.0000
  C   C1305     1.0  0.11756  0.50968  0.78301  1.0000
  P   P44       1.0  0.28816  0.83255  0.78053  1.0000
  H   H1046     1.0  0.12226  0.54911  0.95297  1.0000
  H   H1047     1.0  0.21210  0.50911  0.87890  1.0000
  C   C1306     1.0  0.16074  0.49195  0.89855  1.0000
  H   H1048     1.0  0.02097  0.61752  0.92404  1.0000
  C   C1307     1.0  0.28922  0.81122  0.87180  1.0000
  C   C1308     1.0  0.27176  0.80861  0.86626  1.0000
  C   C1309     1.0  0.26480  0.79030  0.87206  1.0000
  H   H1049     1.0  0.18636  0.59761  0.93125  1.0000
  C   C1310     1.0  0.29322  0.77683  0.88817  1.0000
  C   C1311     1.0  0.26599  0.61406  0.89257  1.0000
  C   C1312     1.0  0.11876  0.50633  0.74959  1.0000
  H   H1050     1.0  0.00154  0.54231  0.80066  1.0000
  H   H1051     1.0  0.30687  0.86698  0.83994  1.0000
  C   C1313     1.0  0.22897  0.50762  0.81745  1.0000
  C   C1314     1.0  0.08025  0.65934  0.73029  1.0000
  S   S177      1.0  0.08501  0.50254  0.83517  1.0000
  P   P45       1.0  0.22221  0.60924  0.86345  1.0000
  C   C1315     1.0  0.25033  0.63417  0.85954  1.0000
  C   C1316     1.0  0.31204  0.72873  0.92763  1.0000
  C   C1317     1.0  0.00376  0.61271  0.74113  1.0000
  C   C1318     1.0  0.30238  0.78778  0.94922  1.0000
  C   C1319     1.0  0.17255  0.49426  0.91147  1.0000
  C   C1320     1.0  0.01671  0.49690  0.91825  1.0000
  H   H1052     1.0  0.28602  0.63582  0.88546  1.0000
  H   H1053     1.0  0.26364  0.82072  0.85740  1.0000
  H   H1054     1.0  0.25131  0.78821  0.86779  1.0000
  C   C1321     1.0  0.13384  0.56830  0.74114  1.0000
  H   H1055     1.0  0.31126  0.79735  0.72511  1.0000
  Fe  Fe83      1.0  0.05796  0.51957  0.85127  1.0000
  C   C1322     1.0  0.12911  0.57923  0.94555  1.0000
  S   S178      1.0  0.29585  0.68230  0.87401  1.0000
  H   H1056     1.0  0.27221  0.65348  0.85614  1.0000
  C   C1323     1.0  0.18954  0.59286  0.91712  1.0000
  C   C1324     1.0  0.09269  0.53027  0.76484  1.0000
  C   C1325     1.0  0.16606  0.49950  0.80306  1.0000
  C   C1326     1.0  0.17587  0.50784  0.81408  1.0000
  C   C1327     1.0  0.00301  0.49939  0.90553  1.0000
  C   C1328     1.0  0.18782  0.53434  0.84141  1.0000
  C   C1329     1.0  0.20236  0.54688  0.83509  1.0000
  C   C1330     1.0  0.19676  0.56763  0.83241  1.0000
  C   C1331     1.0  0.17676  0.57607  0.83688  1.0000
  C   C1332     1.0  0.16233  0.56370  0.84394  1.0000
  H   H1057     1.0  0.16126  0.50832  0.79002  1.0000
  H   H1058     1.0  0.17905  0.52290  0.80900  1.0000
  H   H1059     1.0  0.06590  0.50486  0.77230  1.0000
  H   H1060     1.0  0.26095  0.77936  0.82958  1.0000
  H   H1061     1.0  0.21802  0.54093  0.83202  1.0000
  H   H1062     1.0  0.20801  0.57712  0.82684  1.0000
  H   H1063     1.0  0.17227  0.59217  0.83439  1.0000
  H   H1064     1.0  0.14682  0.57035  0.84699  1.0000
  H   H1065     1.0  0.12347  0.50507  0.79646  1.0000
  H   H1066     1.0  0.06971  0.60856  0.80851  1.0000
  S   S179      1.0  0.07123  0.53650  0.91114  1.0000
  C   C1333     1.0  0.04925  0.53432  0.77604  1.0000
  H   H1067     1.0  0.20835  0.61497  0.90411  1.0000
  C   C1334     1.0  0.25072  0.56084  0.83756  1.0000
  C   C1335     1.0  0.18095  0.57716  0.91425  1.0000
  C   C1336     1.0  0.26601  0.64069  0.86490  1.0000
  S   S180      1.0  0.06123  0.50077  0.88018  1.0000
  C   C1337     1.0  0.27483  0.88787  0.74822  1.0000
  S   S181      1.0  0.02867  0.52965  0.84065  1.0000
  C   C1338     1.0  0.05301  0.57807  0.94971  1.0000
  C   C1339     1.0  0.16762  0.49529  0.87850  1.0000
  H   H1068     1.0  0.08590  0.62618  0.93822  1.0000
  C   C1340     1.0  0.06460  0.57856  0.80947  1.0000
  H   H1069     1.0  0.17314  0.64072  0.82041  1.0000
  C   C1341     1.0  0.17774  0.66139  0.83764  1.0000
  C   C1342     1.0  0.07402  0.60096  0.77979  1.0000
  H   H1070     1.0  0.23841  0.56630  0.86663  1.0000
  H   H1071     1.0  0.27012  0.76029  0.88773  1.0000
  C   C1343     1.0  0.29614  0.71815  0.93532  1.0000
  H   H1072     1.0  0.23555  0.61783  0.82132  1.0000
  C   C1344     1.0  0.18099  0.64285  0.83141  1.0000
  Fe  Fe84      1.0  0.29319  0.70988  0.88749  1.0000
  C   C1345     1.0  0.25023  0.60753  0.88727  1.0000
  C   C1346     1.0  0.19459  0.62711  0.83914  1.0000
  H   H1073     1.0  0.16746  0.67367  0.83137  1.0000
  C   C1347     1.0  0.15194  0.58637  0.96427  1.0000
  C   C1348     1.0  0.07397  0.58610  0.76892  1.0000
  C   C1349     1.0  0.19803  0.50371  0.88424  1.0000
  H   H1074     1.0  0.17771  0.55945  0.89355  1.0000
  C   C1350     1.0  0.23933  0.60187  0.82603  1.0000
  C   C1351     1.0  0.27997  0.85251  0.76191  1.0000
  H   H1075     1.0  0.25249  0.59643  0.79703  1.0000
  C   C1352     1.0  0.24911  0.58977  0.81221  1.0000
  C   C1353     1.0  0.24093  0.57293  0.85144  1.0000
  H   H1076     1.0  0.26206  0.55994  0.80707  1.0000
  H   H1077     1.0  0.02964  0.54349  0.90666  1.0000
  H   H1078     1.0  0.30159  0.76413  0.89617  1.0000
  H   H1079     1.0  0.29611  0.77929  0.92416  1.0000
  H   H1080     1.0  0.29243  0.77860  0.95918  1.0000
  C   C1354     1.0  0.31432  0.73361  0.96029  1.0000
  C   C1355     1.0  0.27874  0.87265  0.76374  1.0000
  H   H1081     1.0  0.27442  0.90335  0.74949  1.0000
  C   C1356     1.0  0.02557  0.51328  0.91919  1.0000
  S   S182      1.0  0.30813  0.71014  0.83115  1.0000
  H   H1082     1.0  0.08832  0.66121  0.92351  1.0000
  C   C1357     1.0  0.08323  0.58909  0.96409  1.0000
  H   H1083     1.0  0.27280  0.85958  0.84231  1.0000
  C   C1358     1.0  0.00230  0.60481  0.94971  1.0000
  C   C1359     1.0  0.00877  0.53342  0.89354  1.0000
  H   H1084     1.0  0.28524  0.80199  0.81486  1.0000
  C   C1360     1.0  0.04867  0.56011  0.73316  1.0000
  H   H1085     1.0  0.13097  0.49877  0.93613  1.0000
  C   C1361     1.0  0.28958  0.71518  0.95557  1.0000
  H   H1086     1.0  0.14604  0.48790  0.90404  1.0000
  C   C1362     1.0  0.18655  0.50074  0.87118  1.0000
  Fe  Fe85      1.0  0.09001  0.48587  0.86452  1.0000
  H   H1087     1.0  0.11932  0.55932  0.77055  1.0000
  C   C1363     1.0  0.01072  0.59151  0.91949  1.0000
  H   H1088     1.0  0.01858  0.59205  0.90463  1.0000
  C   C1364     1.0  0.12405  0.58986  0.76566  1.0000
  H   H1089     1.0  0.00649  0.50538  0.80431  1.0000
  C   C1365     1.0  0.27379  0.63072  0.88145  1.0000
  H   H1090     1.0  0.00786  0.66923  0.73010  1.0000
  C   C1366     1.0  0.25203  0.81842  0.78361  1.0000
  Fe  Fe86      1.0  0.30415  0.73554  0.84794  1.0000
  C   C1367     1.0  0.27207  0.88315  0.73082  1.0000
  C   C1368     1.0  0.01822  0.51347  0.79599  1.0000
  C   C1369     1.0  0.31808  0.85588  0.81287  1.0000
  H   H1091     1.0  0.10604  0.63929  0.73858  1.0000
  C   C1370     1.0  0.23303  0.48668  0.84839  1.0000
  H   H1092     1.0  0.31097  0.65281  0.94086  1.0000
  C   C1371     1.0  0.02218  0.49065  0.85109  1.0000
  C   C1372     1.0  0.23803  0.80576  0.79225  1.0000
  H   H1093     1.0  0.14905  0.61363  0.72431  1.0000
  C   C1373     1.0  0.28422  0.85604  0.83008  1.0000
  C   C1374     1.0  0.28395  0.66223  0.96002  1.0000
  C   C1375     1.0  0.29443  0.84290  0.79959  1.0000
  H   H1094     1.0  0.26466  0.84466  0.81665  1.0000
  H   H1095     1.0  0.13778  0.60829  0.94354  1.0000
  H   H1096     1.0  0.21781  0.58181  0.72322  1.0000
  H   H1097     1.0  0.27730  0.70706  0.96168  1.0000
  C   C1376     1.0  0.09302  0.64101  0.73182  1.0000
  C   C1377     1.0  0.01217  0.53369  0.96585  1.0000
  C   C1378     1.0  0.08901  0.62505  0.72459  1.0000
  H   H1098     1.0  0.04160  0.57305  0.94434  1.0000
  C   C1379     1.0  0.31362  0.84731  0.79830  1.0000
  H   H1099     1.0  0.03793  0.48674  0.85175  1.0000
  C   C1380     1.0  0.13110  0.55944  0.95536  1.0000
  H   H1100     1.0  0.99571  0.48713  0.90466  1.0000
  H   H1101     1.0  0.13954  0.48910  0.76767  1.0000
  C   C1381     1.0  0.25354  0.48226  0.84170  1.0000
  C   C1382     1.0  0.01802  0.61977  0.72573  1.0000
  C   C1383     1.0  0.04987  0.58119  0.96899  1.0000
  C   C1384     1.0  0.99099  0.58959  0.95803  1.0000
  H   H1102     1.0  0.99256  0.48639  0.96463  1.0000
  H   H1103     1.0  0.01912  0.54368  0.95386  1.0000
  C   C1385     1.0  0.99238  0.64638  0.74821  1.0000
  H   H1104     1.0  0.31270  0.84023  0.89641  1.0000
  C   C1386     1.0  0.99351  0.51557  0.84474  1.0000
  H   H1105     1.0  0.09877  0.61077  0.72605  1.0000
  C   C1387     1.0  0.06365  0.66187  0.72121  1.0000
  C   C1388     1.0  0.31353  0.79848  0.95654  1.0000
  H   H1106     1.0  0.31746  0.73089  0.91214  1.0000
  C   C1389     1.0  0.98963  0.48065  0.85490  1.0000
  C   C1390     1.0  0.30995  0.81781  0.76847  1.0000
  C   C1391     1.0  0.98926  0.57532  0.94705  1.0000
  H   H1107     1.0  0.30318  0.78870  0.78353  1.0000
  C   C1392     1.0  0.27297  0.86320  0.72897  1.0000
  C   C1393     1.0  0.05738  0.47874  0.94314  1.0000
  C   C1394     1.0  0.08300  0.56570  0.72649  1.0000
  C   C1395     1.0  0.31814  0.79931  0.91619  1.0000
  C   C1396     1.0  0.31336  0.79681  0.77275  1.0000
  H   H1108     1.0  0.31973  0.80604  0.82353  1.0000
  H   H1109     1.0  0.09478  0.59316  0.97008  1.0000
  H   H1110     1.0  0.98702  0.53102  0.84068  1.0000
  C   C1397     1.0  0.99131  0.53503  0.97041  1.0000
  H   H1111     1.0  0.22687  0.47961  0.86270  1.0000
  Fe  Fe87      1.0  0.54138  0.09240  0.02760  1.0000
  S   S183      1.0  0.51344  0.08383  0.04616  1.0000
  Fe  Fe88      1.0  0.55070  0.11188  0.05887  1.0000
  S   S184      1.0  0.52334  0.10477  0.08035  1.0000
  S   S185      1.0  0.57297  0.13086  0.06093  1.0000
  Fe  Fe89      1.0  0.53124  0.07477  0.07018  1.0000
  S   S186      1.0  0.52666  0.04531  0.08928  1.0000
  Fe  Fe90      1.0  0.50776  0.11431  0.05446  1.0000
  S   S187      1.0  0.47722  0.13205  0.05235  1.0000
  S   S188      1.0  0.56001  0.08105  0.05101  1.0000
  S   S189      1.0  0.53439  0.12381  0.03367  1.0000
  H   H1112     1.0  0.55655  0.01204  0.03308  1.0000
  C   C1398     1.0  0.50680  0.18655  0.21693  1.0000
  H   H1113     1.0  0.55079  0.03954  0.05217  1.0000
  C   C1399     1.0  0.63720  0.27609  0.99414  1.0000
  Fe  Fe91      1.0  0.60550  0.16647  0.13951  1.0000
  S   S190      1.0  0.59208  0.17864  0.16709  1.0000
  S   S191      1.0  0.60167  0.13470  0.13904  1.0000
  Fe  Fe92      1.0  0.61780  0.20649  0.11875  1.0000
  S   S192      1.0  0.60474  0.22163  0.14467  1.0000
  S   S193      1.0  0.63119  0.22315  0.08970  1.0000
  Fe  Fe93      1.0  0.61909  0.19350  0.16179  1.0000
  S   S194      1.0  0.63210  0.19658  0.18763  1.0000
  Fe  Fe94      1.0  0.57897  0.20537  0.14775  1.0000
  S   S195      1.0  0.54693  0.22027  0.15381  1.0000
  S   S196      1.0  0.63391  0.17914  0.13560  1.0000
  S   S197      1.0  0.59067  0.19241  0.12045  1.0000
  Fe  Fe95      1.0  0.42318  0.15796  0.15031  1.0000
  S   S198      1.0  0.44448  0.17983  0.13968  1.0000
  S   S199      1.0  0.41621  0.13967  0.13049  1.0000
  Fe  Fe96      1.0  0.41282  0.16772  0.19139  1.0000
  S   S200      1.0  0.43315  0.19094  0.18413  1.0000
  H   H1114     1.0  0.65267  0.24802  0.05839  1.0000
  Fe  Fe97      1.0  0.42080  0.20040  0.15610  1.0000
  S   S201      1.0  0.41297  0.23306  0.14312  1.0000
  Fe  Fe98      1.0  0.45494  0.16850  0.16830  1.0000
  S   S202      1.0  0.48713  0.15780  0.17157  1.0000
  S   S203      1.0  0.39855  0.17916  0.16488  1.0000
  S   S204      1.0  0.43557  0.14462  0.17746  1.0000
  P   P46       1.0  0.49012  0.44051  0.00409  1.0000
  C   C1400     1.0  0.36340  0.15207  0.21239  1.0000
  C   C1401     1.0  0.43095  0.10111  0.04589  1.0000
  H   H1115     1.0  0.39008  0.11652  0.02396  1.0000
  H   H1116     1.0  0.37028  0.15610  0.19744  1.0000
  C   C1402     1.0  0.52059  0.99563  0.06951  1.0000
  C   C1403     1.0  0.48027  0.01946  0.97765  1.0000
  C   C1404     1.0  0.53010  0.20316  0.15834  1.0000
  C   C1405     1.0  0.53715  0.18262  0.16058  1.0000
  C   C1406     1.0  0.52371  0.16900  0.16462  1.0000
  C   C1407     1.0  0.50321  0.17570  0.16607  1.0000
  C   C1408     1.0  0.49605  0.19626  0.16362  1.0000
  C   C1409     1.0  0.50950  0.20999  0.15992  1.0000
  H   H1117     1.0  0.55295  0.17718  0.15914  1.0000
  H   H1118     1.0  0.52924  0.15317  0.16619  1.0000
  H   H1119     1.0  0.48019  0.20155  0.16474  1.0000
  H   H1120     1.0  0.50397  0.22589  0.15818  1.0000
  C   C1410     1.0  0.37539  0.24880  0.09423  1.0000
  C   C1411     1.0  0.38237  0.22874  0.10132  1.0000
  C   C1412     1.0  0.39424  0.22384  0.11597  1.0000
  C   C1413     1.0  0.39873  0.23893  0.12413  1.0000
  C   C1414     1.0  0.39184  0.25902  0.11704  1.0000
  C   C1415     1.0  0.38030  0.26396  0.10205  1.0000
  H   H1121     1.0  0.39995  0.20837  0.12096  1.0000
  H   H1122     1.0  0.39538  0.27080  0.12318  1.0000
  C   C1416     1.0  0.37365  0.05092  0.20605  1.0000
  Fe  Fe99      1.0  0.36860  0.32278  0.03527  1.0000
  C   C1417     1.0  0.33856  0.39082  0.06834  1.0000
  C   C1418     1.0  0.59058  0.35637  0.98764  1.0000
  C   C1419     1.0  0.47345  0.06105  0.04075  1.0000
  C   C1420     1.0  0.41728  0.07267  0.04188  1.0000
  H   H1123     1.0  0.51535  0.00366  0.00713  1.0000
  H   H1124     1.0  0.61082  0.27929  0.09429  1.0000
  C   C1421     1.0  0.41012  0.43331  0.02831  1.0000
  C   C1422     1.0  0.34051  0.19071  0.14506  1.0000
  H   H1125     1.0  0.35785  0.23587  0.15312  1.0000
  H   H1126     1.0  0.55061  0.04083  0.12305  1.0000
  C   C1423     1.0  0.44064  0.08458  0.09067  1.0000
  H   H1127     1.0  0.44220  0.10726  0.05047  1.0000
  C   C1424     1.0  0.40168  0.10641  0.03073  1.0000
  S   S205      1.0  0.32752  0.29030  0.04133  1.0000
  H   H1128     1.0  0.34561  0.12509  0.16025  1.0000
  S   S206      1.0  0.37494  0.29126  0.02948  1.0000
  C   C1425     1.0  0.55205  0.98087  0.11400  1.0000
  H   H1129     1.0  0.36110  0.36878  0.02604  1.0000
  C   C1426     1.0  0.41600  0.11409  0.03713  1.0000
  C   C1427     1.0  0.46084  0.13566  0.07417  1.0000
  C   C1428     1.0  0.44031  0.13906  0.07407  1.0000
  C   C1429     1.0  0.42672  0.14071  0.09136  1.0000
  C   C1430     1.0  0.43354  0.13993  0.10873  1.0000
  C   C1431     1.0  0.45408  0.13764  0.10874  1.0000
  C   C1432     1.0  0.46777  0.13514  0.09148  1.0000
  H   H1130     1.0  0.43489  0.14003  0.06066  1.0000
  H   H1131     1.0  0.41089  0.14260  0.09128  1.0000
  H   H1132     1.0  0.45940  0.13700  0.12217  1.0000
  H   H1133     1.0  0.48361  0.13281  0.09153  1.0000
  C   C1433     1.0  0.58052  0.13132  0.08299  1.0000
  C   C1434     1.0  0.59160  0.14608  0.08355  1.0000
  C   C1435     1.0  0.59825  0.14698  0.10065  1.0000
  C   C1436     1.0  0.59398  0.13304  0.11734  1.0000
  C   C1437     1.0  0.58317  0.11799  0.11676  1.0000
  C   C1438     1.0  0.57626  0.11721  0.09965  1.0000
  H   H1134     1.0  0.59507  0.15691  0.07067  1.0000
  H   H1135     1.0  0.60696  0.15834  0.10080  1.0000
  H   H1136     1.0  0.57989  0.10720  0.12963  1.0000
  H   H1137     1.0  0.56776  0.10573  0.09929  1.0000
  C   C1439     1.0  0.52924  0.02655  0.07487  1.0000
  C   C1440     1.0  0.51819  0.01072  0.08099  1.0000
  C   C1441     1.0  0.54588  0.01155  0.04649  1.0000
  C   C1442     1.0  0.54271  0.02712  0.05738  1.0000
  H   H1138     1.0  0.50761  0.01027  0.09444  1.0000
  H   H1139     1.0  0.59276  0.00510  0.06635  1.0000
  C   C1443     1.0  0.47598  0.07594  0.02431  1.0000
  C   C1444     1.0  0.49223  0.07327  0.00930  1.0000
  C   C1445     1.0  0.50639  0.05596  0.01075  1.0000
  C   C1446     1.0  0.50430  0.04132  0.02725  1.0000
  C   C1447     1.0  0.48809  0.04390  0.04232  1.0000
  C   C1448     1.0  0.53201  0.14159  0.21564  1.0000
  H   H1140     1.0  0.45633  0.02576  0.04397  1.0000
  H   H1141     1.0  0.46569  0.08981  0.02307  1.0000
  H   H1142     1.0  0.49405  0.08480  0.99667  1.0000
  H   H1143     1.0  0.51923  0.05413  0.99930  1.0000
  H   H1144     1.0  0.51536  0.02802  0.02836  1.0000
  H   H1145     1.0  0.49361  0.07346  0.10387  1.0000
  H   H1146     1.0  0.48751  0.06059  0.07602  1.0000
  H   H1147     1.0  0.41988  0.39628  0.98600  1.0000
  C   C1449     1.0  0.62095  0.39539  0.00286  1.0000
  C   C1450     1.0  0.65148  0.17843  0.19607  1.0000
  C   C1451     1.0  0.62108  0.45057  0.02227  1.0000
  C   C1452     1.0  0.54370  0.41831  0.02257  1.0000
  C   C1453     1.0  0.61335  0.09588  0.20190  1.0000
  C   C1454     1.0  0.59952  0.09300  0.19130  1.0000
  C   C1455     1.0  0.65315  0.25291  0.07182  1.0000
  C   C1456     1.0  0.56866  0.24917  0.03471  1.0000
  H   H1148     1.0  0.65208  0.41525  0.02033  1.0000
  C   C1457     1.0  0.37277  0.12750  0.16916  1.0000
  H   H1149     1.0  0.51784  0.06163  0.12915  1.0000
  S   S207      1.0  0.34924  0.31539  0.06443  1.0000
  C   C1458     1.0  0.38188  0.10356  0.19694  1.0000
  C   C1459     1.0  0.60112  0.45023  0.03087  1.0000
  H   H1150     1.0  0.51185  0.98362  0.07409  1.0000
  H   H1151     1.0  0.62596  0.10305  0.19426  1.0000
  H   H1152     1.0  0.60129  0.09837  0.17575  1.0000
  C   C1460     1.0  0.58351  0.99681  0.17723  1.0000
  H   H1153     1.0  0.33190  0.15388  0.12342  1.0000
  H   H1154     1.0  0.36909  0.20022  0.14118  1.0000
  H   H1155     1.0  0.36845  0.15189  0.11172  1.0000
  H   H1156     1.0  0.60564  0.40903  0.97877  1.0000
  H   H1157     1.0  0.60697  0.00223  0.12283  1.0000
  H   H1158     1.0  0.48022  0.19868  0.20461  1.0000
  C   C1461     1.0  0.42515  0.31884  0.98001  1.0000
  C   C1462     1.0  0.32244  0.37904  0.04655  1.0000
  H   H1159     1.0  0.64000  0.10253  0.11806  1.0000
  H   H1160     1.0  0.63098  0.07566  0.98791  1.0000
  H   H1161     1.0  0.56826  0.29938  0.02425  1.0000
  C   C1463     1.0  0.32214  0.23344  0.12413  1.0000
  H   H1162     1.0  0.41212  0.41747  0.03416  1.0000
  H   H1163     1.0  0.41766  0.05668  0.04346  1.0000
  H   H1164     1.0  0.43187  0.09922  0.11593  1.0000
  H   H1165     1.0  0.42574  0.08799  0.08720  1.0000
  C   C1464     1.0  0.43163  0.08032  0.04842  1.0000
  C   C1465     1.0  0.61084  0.32353  0.98914  1.0000
  H   H1166     1.0  0.46580  0.09263  0.12406  1.0000
  H   H1167     1.0  0.58662  0.37119  0.97962  1.0000
  P   P47       1.0  0.45135  0.06372  0.05923  1.0000
  H   H1168     1.0  0.37497  0.27946  0.09675  1.0000
  H   H1169     1.0  0.39126  0.07977  0.02806  1.0000
  C   C1466     1.0  0.45629  0.07372  0.07914  1.0000
  C   C1467     1.0  0.44401  0.09089  0.10707  1.0000
  H   H1170     1.0  0.52080  0.03673  0.21704  1.0000
  C   C1468     1.0  0.46058  0.47670  0.05341  1.0000
  H   H1171     1.0  0.63352  0.99508  0.17295  1.0000
  H   H1172     1.0  0.38677  0.17536  0.12040  1.0000
  H   H1173     1.0  0.51370  0.17914  0.20458  1.0000
  H   H1174     1.0  0.42755  0.04917  0.09661  1.0000
  C   C1469     1.0  0.46312  0.08702  0.11176  1.0000
  C   C1470     1.0  0.44348  0.03983  0.06945  1.0000
  H   H1175     1.0  0.59642  0.45145  0.04614  1.0000
  H   H1176     1.0  0.48078  0.02154  0.00753  1.0000
  H   H1177     1.0  0.53494  0.99225  0.97709  1.0000
  C   C1471     1.0  0.61303  0.29036  0.08130  1.0000
  H   H1178     1.0  0.39229  0.03327  0.02607  1.0000
  C   C1472     1.0  0.53459  0.99599  0.05229  1.0000
  H   H1179     1.0  0.32125  0.17070  0.18284  1.0000
  C   C1473     1.0  0.43198  0.03711  0.08818  1.0000
  H   H1180     1.0  0.37874  0.21692  0.09529  1.0000
  C   C1474     1.0  0.46394  0.22466  0.08310  1.0000
  C   C1475     1.0  0.45612  0.22726  0.10230  1.0000
  C   C1476     1.0  0.46836  0.22184  0.11644  1.0000
  C   C1477     1.0  0.48849  0.21398  0.11136  1.0000
  C   C1478     1.0  0.49670  0.21194  0.09196  1.0000
  C   C1479     1.0  0.48411  0.21690  0.07794  1.0000
  P   P48       1.0  0.52258  0.20078  0.08603  1.0000
  C   C1480     1.0  0.53989  0.21588  0.08938  1.0000
  C   C1481     1.0  0.52510  0.17696  0.10179  1.0000
  C   C1482     1.0  0.54102  0.17077  0.11214  1.0000
  C   C1483     1.0  0.54235  0.15250  0.12469  1.0000
  C   C1484     1.0  0.52785  0.14032  0.12702  1.0000
  C   C1485     1.0  0.51201  0.14634  0.11671  1.0000
  C   C1486     1.0  0.51064  0.16458  0.10408  1.0000
  C   C1487     1.0  0.55996  0.21224  0.08036  1.0000
  C   C1488     1.0  0.57373  0.22337  0.08312  1.0000
  C   C1489     1.0  0.56767  0.23804  0.09507  1.0000
  C   C1490     1.0  0.54779  0.24171  0.10415  1.0000
  C   C1491     1.0  0.53392  0.23076  0.10128  1.0000
  C   C1492     1.0  0.52921  0.19703  0.06096  1.0000
  C   C1493     1.0  0.52760  0.21357  0.04603  1.0000
  C   C1494     1.0  0.53358  0.21105  0.02654  1.0000
  C   C1495     1.0  0.54166  0.19205  0.02185  1.0000
  C   C1496     1.0  0.54374  0.17562  0.03665  1.0000
  C   C1497     1.0  0.53750  0.17803  0.05612  1.0000
  H   H1181     1.0  0.45419  0.22831  0.07234  1.0000
  H   H1182     1.0  0.44045  0.23309  0.10630  1.0000
  H   H1183     1.0  0.46204  0.22333  0.13145  1.0000
  H   H1184     1.0  0.49760  0.20915  0.12264  1.0000
  H   H1185     1.0  0.48949  0.21431  0.06317  1.0000
  H   H1186     1.0  0.55227  0.18005  0.11089  1.0000
  H   H1187     1.0  0.55438  0.14810  0.13302  1.0000
  H   H1188     1.0  0.52868  0.12643  0.13706  1.0000
  H   H1189     1.0  0.50058  0.13707  0.11874  1.0000
  H   H1190     1.0  0.49816  0.16911  0.09629  1.0000
  H   H1191     1.0  0.56514  0.20036  0.07169  1.0000
  H   H1192     1.0  0.58935  0.22004  0.07675  1.0000
  H   H1193     1.0  0.57856  0.24604  0.09783  1.0000
  H   H1194     1.0  0.54326  0.25252  0.11406  1.0000
  H   H1195     1.0  0.51877  0.23372  0.10880  1.0000
  H   H1196     1.0  0.52164  0.22839  0.04956  1.0000
  H   H1197     1.0  0.53199  0.22380  0.01509  1.0000
  H   H1198     1.0  0.54640  0.18999  0.00680  1.0000
  H   H1199     1.0  0.55039  0.16092  0.03313  1.0000
  H   H1200     1.0  0.53953  0.16504  0.06728  1.0000
  H   H1201     1.0  0.61165  0.40473  0.01286  1.0000
  C   C1498     1.0  0.37092  0.17593  0.12585  1.0000
  H   H1202     1.0  0.33647  0.14660  0.20508  1.0000
  S   S208      1.0  0.35452  0.28875  0.98474  1.0000
  C   C1499     1.0  0.61760  0.39788  0.98361  1.0000
  C   C1500     1.0  0.35884  0.20435  0.20447  1.0000
  Fe  Fe100     1.0  0.35375  0.28431  0.05708  1.0000
  H   H1203     1.0  0.48705  0.03250  0.05514  1.0000
  C   C1501     1.0  0.47877  0.07633  0.10035  1.0000
  C   C1502     1.0  0.47531  0.06937  0.08430  1.0000
  C   C1503     1.0  0.59165  0.03108  0.11067  1.0000
  C   C1504     1.0  0.47850  0.41918  0.00434  1.0000
  H   H1204     1.0  0.62232  0.31326  0.98188  1.0000
  H   H1205     1.0  0.63767  0.24207  0.12059  1.0000
  H   H1206     1.0  0.37594  0.14011  0.15793  1.0000
  C   C1505     1.0  0.62438  0.08595  0.10503  1.0000
  H   H1207     1.0  0.35761  0.46174  0.01226  1.0000
  H   H1208     1.0  0.58257  0.44595  0.99134  1.0000
  C   C1506     1.0  0.47878  0.45392  0.02398  1.0000
  C   C1507     1.0  0.48913  0.46705  0.02929  1.0000
  C   C1508     1.0  0.48784  0.19797  0.21671  1.0000
  C   C1509     1.0  0.62397  0.08608  0.97684  1.0000
  C   C1510     1.0  0.45000  0.46404  0.04788  1.0000
  C   C1511     1.0  0.45897  0.45287  0.03306  1.0000
  C   C1512     1.0  0.37187  0.39505  0.00864  1.0000
  C   C1513     1.0  0.36481  0.09489  0.19837  1.0000
  C   C1514     1.0  0.40235  0.08570  0.03306  1.0000
  C   C1515     1.0  0.55628  0.41377  0.00544  1.0000
  C   C1516     1.0  0.58766  0.33259  0.01759  1.0000
  Fe  Fe101     1.0  0.32443  0.32195  0.04685  1.0000
  H   H1209     1.0  0.51854  0.11657  0.00029  1.0000
  C   C1517     1.0  0.61054  0.28636  0.06347  1.0000
  H   H1210     1.0  0.63176  0.08386  0.15119  1.0000
  C   C1518     1.0  0.61444  0.01656  0.15559  1.0000
  C   C1519     1.0  0.37288  0.36334  0.97420  1.0000
  C   C1520     1.0  0.38608  0.01518  0.21007  1.0000
  H   H1211     1.0  0.38080  0.24086  0.17331  1.0000
  C   C1521     1.0  0.52365  0.42666  0.02229  1.0000
  H   H1212     1.0  0.50413  0.46875  0.02188  1.0000
  C   C1522     1.0  0.60348  0.08785  0.97729  1.0000
  H   H1213     1.0  0.59455  0.02698  0.20942  1.0000
  H   H1214     1.0  0.43476  0.46302  0.05493  1.0000
  H   H1215     1.0  0.45030  0.44369  0.02855  1.0000
  C   C1523     1.0  0.56884  0.04118  0.19682  1.0000
  H   H1216     1.0  0.40322  0.00006  0.04493  1.0000
  H   H1217     1.0  0.54948  0.41515  0.03611  1.0000
  H   H1218     1.0  0.39215  0.44213  0.05460  1.0000
  S   S209      1.0  0.36014  0.25405  0.07608  1.0000
  C   C1524     1.0  0.43187  0.00260  0.08598  1.0000
  C   C1525     1.0  0.51719  0.98879  0.14081  1.0000
  C   C1526     1.0  0.44294  0.00531  0.06723  1.0000
  S   S210      1.0  0.38579  0.42751  0.98493  1.0000
  C   C1527     1.0  0.37160  0.21843  0.19727  1.0000
  H   H1219     1.0  0.62327  0.27775  0.17160  1.0000
  C   C1528     1.0  0.34412  0.14703  0.21674  1.0000
  H   H1220     1.0  0.39220  0.09788  0.20704  1.0000
  C   C1529     1.0  0.39071  0.03518  0.17809  1.0000
  H   H1221     1.0  0.65239  0.28997  0.03153  1.0000
  C   C1530     1.0  0.35757  0.22724  0.16762  1.0000
  C   C1531     1.0  0.57429  0.28363  0.02689  1.0000
  H   H1222     1.0  0.54951  0.19666  0.19560  1.0000
  C   C1532     1.0  0.35182  0.10264  0.18492  1.0000
  H   H1223     1.0  0.59459  0.07880  0.98869  1.0000
  H   H1224     1.0  0.39901  0.12641  0.18125  1.0000
  H   H1225     1.0  0.45846  0.99423  0.00514  1.0000
  C   C1533     1.0  0.58358  0.04176  0.09436  1.0000
  Fe  Fe102     1.0  0.34859  0.29971  0.01403  1.0000
  H   H1226     1.0  0.38799  0.00081  0.21933  1.0000
  C   C1534     1.0  0.38090  0.05225  0.18597  1.0000
  C   C1535     1.0  0.32998  0.17788  0.13950  1.0000
  C   C1536     1.0  0.62266  0.32220  0.06544  1.0000
  H   H1227     1.0  0.33584  0.19061  0.19933  1.0000
  H   H1228     1.0  0.62399  0.27596  0.98830  1.0000
  C   C1537     1.0  0.60252  0.31858  0.00880  1.0000
  C   C1538     1.0  0.54458  0.00042  0.11722  1.0000
  C   C1539     1.0  0.52700  0.00447  0.13039  1.0000
  H   H1229     1.0  0.60642  0.27212  0.06307  1.0000
  C   C1540     1.0  0.46812  0.46292  0.97643  1.0000
  H   H1230     1.0  0.51301  0.08981  0.14758  1.0000
  C   C1541     1.0  0.47653  0.41386  0.98680  1.0000
  C   C1542     1.0  0.39265  0.36297  0.01638  1.0000
  H   H1231     1.0  0.39619  0.03633  0.16259  1.0000
  H   H1232     1.0  0.40074  0.00339  0.18400  1.0000
  C   C1543     1.0  0.39330  0.01665  0.19013  1.0000
  C   C1544     1.0  0.43166  0.99533  0.02620  1.0000
  C   C1545     1.0  0.51615  0.43085  0.00474  1.0000
  C   C1546     1.0  0.57950  0.01309  0.16264  1.0000
  H   H1233     1.0  0.62679  0.02341  0.14680  1.0000
  C   C1547     1.0  0.38587  0.11971  0.18231  1.0000
  H   H1234     1.0  0.62264  0.24321  0.16688  1.0000
  H   H1235     1.0  0.35738  0.40437  0.01006  1.0000
  C   C1548     1.0  0.34148  0.46515  0.01600  1.0000
  C   C1549     1.0  0.36091  0.18991  0.13777  1.0000
  C   C1550     1.0  0.43892  0.02254  0.99989  1.0000
  H   H1236     1.0  0.55211  0.01249  0.10888  1.0000
  H   H1237     1.0  0.52085  0.01980  0.13220  1.0000
  H   H1238     1.0  0.54066  0.05333  0.18743  1.0000
  H   H1239     1.0  0.51544  0.46838  0.97843  1.0000
  H   H1240     1.0  0.41606  0.30120  0.00778  1.0000
  C   C1551     1.0  0.44824  0.02397  0.05873  1.0000
  C   C1552     1.0  0.57318  0.28392  0.97248  1.0000
  C   C1553     1.0  0.59487  0.02337  0.15198  1.0000
  C   C1554     1.0  0.50115  0.47091  0.97370  1.0000
  C   C1555     1.0  0.53553  0.12882  0.20182  1.0000
  C   C1556     1.0  0.33636  0.37553  0.05904  1.0000
  C   C1557     1.0  0.42620  0.01856  0.09638  1.0000
  C   C1558     1.0  0.37080  0.23001  0.17895  1.0000
  H   H1241     1.0  0.45655  0.45421  0.98349  1.0000
  H   H1242     1.0  0.38233  0.22015  0.20574  1.0000
  C   C1559     1.0  0.41304  0.00630  0.03227  1.0000
  H   H1243     1.0  0.58308  0.28285  0.98278  1.0000
  H   H1244     1.0  0.41559  0.13014  0.03528  1.0000
  H   H1245     1.0  0.62196  0.31087  0.09595  1.0000
  C   C1560     1.0  0.64841  0.36874  0.99630  1.0000
  C   C1561     1.0  0.60734  0.06052  0.12708  1.0000
  C   C1562     1.0  0.45668  0.05835  0.97570  1.0000
  H   H1246     1.0  0.42777  0.98808  0.09247  1.0000
  P   P49       1.0  0.65270  0.45115  0.99099  1.0000
  H   H1247     1.0  0.57760  0.04811  0.18378  1.0000
  H   H1248     1.0  0.54149  0.09690  0.15990  1.0000
  C   C1563     1.0  0.57140  0.21374  0.19799  1.0000
  H   H1249     1.0  0.58285  0.13565  0.18082  1.0000
  C   C1564     1.0  0.44444  0.00331  0.00999  1.0000
  C   C1565     1.0  0.58423  0.03241  0.07843  1.0000
  C   C1566     1.0  0.51981  0.00005  0.97711  1.0000
  C   C1567     1.0  0.46307  0.39072  0.02216  1.0000
  H   H1250     1.0  0.57802  0.04073  0.06592  1.0000
  C   C1568     1.0  0.40700  0.02506  0.02175  1.0000
  C   C1569     1.0  0.59331  0.44709  0.00005  1.0000
  C   C1570     1.0  0.58722  0.44857  0.01975  1.0000
  H   H1251     1.0  0.54542  0.27461  0.03131  1.0000
  H   H1252     1.0  0.61774  0.25141  0.03135  1.0000
  C   C1571     1.0  0.62734  0.44893  0.00251  1.0000
  C   C1572     1.0  0.61330  0.44718  0.99149  1.0000
  C   C1573     1.0  0.64384  0.24314  0.08958  1.0000
  C   C1574     1.0  0.64486  0.37098  0.97724  1.0000
  H   H1253     1.0  0.57464  0.07656  0.15347  1.0000
  P   P50       1.0  0.59001  0.04288  0.13173  1.0000
  H   H1254     1.0  0.37899  0.06639  0.17629  1.0000
  C   C1575     1.0  0.63703  0.26830  0.16663  1.0000
  H   H1255     1.0  0.60680  0.06837  0.09608  1.0000
  H   H1256     1.0  0.44245  0.09872  0.99939  1.0000
  C   C1576     1.0  0.54893  0.05283  0.13127  1.0000
  H   H1257     1.0  0.43952  0.06306  0.00397  1.0000
  C   C1577     1.0  0.53017  0.06457  0.13486  1.0000
  H   H1258     1.0  0.32666  0.22000  0.11759  1.0000
  C   C1578     1.0  0.46134  0.09864  0.97141  1.0000
  C   C1579     1.0  0.54663  0.15273  0.21658  1.0000
  H   H1259     1.0  0.41455  0.04716  0.99689  1.0000
  C   C1580     1.0  0.52747  0.08044  0.14519  1.0000
  H   H1260     1.0  0.34941  0.38801  0.07796  1.0000
  C   C1581     1.0  0.63136  0.09048  0.12049  1.0000
  C   C1582     1.0  0.40641  0.29168  0.98453  1.0000
  C   C1583     1.0  0.47221  0.40715  0.02200  1.0000
  C   C1584     1.0  0.60503  0.34239  0.97869  1.0000
  H   H1261     1.0  0.60749  0.98601  0.09482  1.0000
  H   H1262     1.0  0.52373  0.12126  0.20033  1.0000
  C   C1585     1.0  0.63639  0.38080  0.00919  1.0000
  C   C1586     1.0  0.61243  0.07106  0.10827  1.0000
  H   H1263     1.0  0.54255  0.15608  0.98289  1.0000
  C   C1587     1.0  0.61401  0.30035  0.04646  1.0000
  C   C1588     1.0  0.37393  0.37503  0.01788  1.0000
  S   S211      1.0  0.64072  0.37770  0.03317  1.0000
  C   C1589     1.0  0.34533  0.20175  0.19335  1.0000
  C   C1590     1.0  0.54354  0.08445  0.15208  1.0000
  H   H1264     1.0  0.63159  0.45230  0.03098  1.0000
  H   H1265     1.0  0.34642  0.41623  0.97637  1.0000
  C   C1591     1.0  0.53566  0.09632  0.98127  1.0000
  S   S212      1.0  0.39572  0.33817  0.02851  1.0000
  C   C1592     1.0  0.56533  0.05706  0.13766  1.0000
  H   H1266     1.0  0.34308  0.36934  0.98953  1.0000
  S   S213      1.0  0.55104  0.08332  0.99795  1.0000
  H   H1267     1.0  0.49800  0.13559  0.97599  1.0000
  C   C1593     1.0  0.56238  0.07283  0.14836  1.0000
  H   H1268     1.0  0.42361  0.36125  0.00350  1.0000
  C   C1594     1.0  0.36054  0.16275  0.12091  1.0000
  C   C1595     1.0  0.60046  0.01091  0.11062  1.0000
  H   H1269     1.0  0.55834  0.41370  0.97476  1.0000
  C   C1596     1.0  0.44768  0.06971  0.99048  1.0000
  C   C1597     1.0  0.56529  0.14975  0.20459  1.0000
  C   C1598     1.0  0.61453  0.06516  0.14256  1.0000
  H   H1270     1.0  0.61046  0.05774  0.15730  1.0000
  H   H1271     1.0  0.34548  0.36093  0.06145  1.0000
  C   C1599     1.0  0.58314  0.08387  0.20084  1.0000
  H   H1272     1.0  0.60941  0.16740  0.21308  1.0000
  H   H1273     1.0  0.57182  0.40732  0.00565  1.0000
  C   C1600     1.0  0.33096  0.45103  0.02858  1.0000
  C   C1601     1.0  0.48651  0.45908  0.98288  1.0000
  H   H1274     1.0  0.55627  0.11779  0.17779  1.0000
  P   P51       1.0  0.45489  0.03214  0.97809  1.0000
  H   H1275     1.0  0.45801  0.38157  0.03582  1.0000
  C   C1602     1.0  0.59479  0.27726  0.02683  1.0000
  C   C1603     1.0  0.40922  0.37072  0.00496  1.0000
  C   C1604     1.0  0.41604  0.30356  0.99224  1.0000
  C   C1605     1.0  0.41974  0.03301  0.00540  1.0000
  P   P52       1.0  0.36063  0.07292  0.21624  1.0000
  H   H1276     1.0  0.57074  0.36236  0.01406  1.0000
  C   C1606     1.0  0.38844  0.40272  0.99706  1.0000
  H   H1277     1.0  0.51403  0.42959  0.03578  1.0000
  C   C1607     1.0  0.61837  0.00036  0.17026  1.0000
  S   S214      1.0  0.34355  0.33183  0.01817  1.0000
  C   C1608     1.0  0.58905  0.24272  0.03454  1.0000
  C   C1609     1.0  0.60206  0.25668  0.03073  1.0000
  H   H1278     1.0  0.57650  0.05725  0.09399  1.0000
  H   H1279     1.0  0.42708  0.42894  0.00014  1.0000
  H   H1280     1.0  0.62334  0.32919  0.03465  1.0000
  C   C1610     1.0  0.64465  0.24954  0.10685  1.0000
  C   C1611     1.0  0.53690  0.03469  0.21553  1.0000
  C   C1612     1.0  0.40708  0.39047  0.99504  1.0000
  P   P53       1.0  0.61160  0.29513  0.02316  1.0000
  H   H1281     1.0  0.41754  0.01647  0.11089  1.0000
  C   C1613     1.0  0.52091  0.11234  0.98604  1.0000
  C   C1614     1.0  0.50922  0.12304  0.97230  1.0000
  C   C1615     1.0  0.41538  0.46008  0.00123  1.0000
  C   C1616     1.0  0.63570  0.28426  0.01112  1.0000
  C   C1617     1.0  0.63662  0.24893  0.16379  1.0000
  H   H1282     1.0  0.44763  0.99280  0.05937  1.0000
  H   H1283     1.0  0.57173  0.44853  0.02637  1.0000
  H   H1284     1.0  0.59382  0.22816  0.20407  1.0000
  H   H1285     1.0  0.34519  0.45093  0.98005  1.0000
  C   C1618     1.0  0.50875  0.00656  0.99408  1.0000
  C   C1619     1.0  0.59264  0.01231  0.07865  1.0000
  H   H1286     1.0  0.35968  0.19519  0.21860  1.0000
  H   H1287     1.0  0.52280  0.42754  0.97454  1.0000
  C   C1620     1.0  0.62654  0.08001  0.13923  1.0000
  H   H1288     1.0  0.58113  0.32921  0.03279  1.0000
  C   C1621     1.0  0.34004  0.16380  0.12762  1.0000
  C   C1622     1.0  0.62006  0.31833  0.04760  1.0000
  H   H1289     1.0  0.56446  0.01746  0.15953  1.0000
  C   C1623     1.0  0.54873  0.41733  0.98808  1.0000
  C   C1624     1.0  0.54808  0.04405  0.19885  1.0000
  H   H1290     1.0  0.57209  0.22145  0.18312  1.0000
  C   C1625     1.0  0.56875  0.13707  0.19074  1.0000
  C   C1626     1.0  0.61926  0.30818  0.08226  1.0000
  C   C1627     1.0  0.46740  0.39743  0.98702  1.0000
  C   C1628     1.0  0.33332  0.44709  0.97435  1.0000
  C   C1629     1.0  0.55380  0.12683  0.18916  1.0000
  C   C1630     1.0  0.48913  0.01648  0.99430  1.0000
  C   C1631     1.0  0.65310  0.28413  0.01835  1.0000
  H   H1291     1.0  0.55859  0.23830  0.03821  1.0000
  C   C1632     1.0  0.39872  0.44723  0.03972  1.0000
  H   H1292     1.0  0.39901  0.28001  0.99398  1.0000
  H   H1293     1.0  0.59476  0.22689  0.03786  1.0000
  H   H1294     1.0  0.47437  0.41045  0.03565  1.0000
  C   C1633     1.0  0.52868  0.42550  0.98786  1.0000
  C   C1634     1.0  0.56128  0.26960  0.03085  1.0000
  H   H1295     1.0  0.62784  0.33589  0.06608  1.0000
  C   C1635     1.0  0.60084  0.00158  0.09471  1.0000
  C   C1636     1.0  0.58175  0.35142  0.00704  1.0000
  C   C1637     1.0  0.35572  0.11902  0.17049  1.0000
  C   C1638     1.0  0.41863  0.43978  0.00914  1.0000
  C   C1639     1.0  0.35283  0.37213  0.97573  1.0000
  C   C1640     1.0  0.34457  0.21316  0.17476  1.0000
  H   H1296     1.0  0.33876  0.09599  0.18547  1.0000
  H   H1297     1.0  0.33931  0.43700  0.03442  1.0000
  H   H1298     1.0  0.55586  0.26245  0.99073  1.0000
  H   H1299     1.0  0.37819  0.35326  0.98645  1.0000
  H   H1300     1.0  0.57211  0.08224  0.19271  1.0000
  H   H1301     1.0  0.43223  0.32826  0.98617  1.0000
  C   C1641     1.0  0.60293  0.99051  0.18110  1.0000
  C   C1642     1.0  0.37617  0.03217  0.21802  1.0000
  C   C1643     1.0  0.55787  0.27240  0.97693  1.0000
  C   C1644     1.0  0.39543  0.46758  0.03183  1.0000
  H   H1302     1.0  0.57701  0.15766  0.20551  1.0000
  H   H1303     1.0  0.48208  0.42231  0.97291  1.0000
  H   H1304     1.0  0.62761  0.09453  0.09061  1.0000
  H   H1305     1.0  0.38748  0.47140  0.97994  1.0000
  H   H1306     1.0  0.61777  0.44588  0.97627  1.0000
  H   H1307     1.0  0.61553  0.13202  0.20934  1.0000
  H   H1308     1.0  0.50359  0.99191  0.15106  1.0000
  H   H1309     1.0  0.42152  0.46478  0.98612  1.0000
  C   C1645     1.0  0.44962  0.08991  0.98810  1.0000
  C   C1646     1.0  0.33403  0.42729  0.97212  1.0000
  H   H1310     1.0  0.45358  0.37316  0.00480  1.0000
  C   C1647     1.0  0.55862  0.19963  0.20513  1.0000
  H   H1311     1.0  0.46572  0.39354  0.97343  1.0000
  H   H1312     1.0  0.43626  0.98056  0.03405  1.0000
  C   C1648     1.0  0.57845  0.02912  0.21148  1.0000
  C   C1649     1.0  0.46058  0.38593  0.00468  1.0000
  C   C1650     1.0  0.32661  0.40955  0.06540  1.0000
  P   P54       1.0  0.32774  0.20945  0.15979  1.0000
  H   H1313     1.0  0.57162  0.98889  0.18535  1.0000
  C   C1651     1.0  0.32115  0.23281  0.14416  1.0000
  C   C1652     1.0  0.40341  0.47410  0.01235  1.0000
  H   H1314     1.0  0.32844  0.42124  0.07276  1.0000
  C   C1653     1.0  0.58347  0.21767  0.20986  1.0000
  H   H1315     1.0  0.32076  0.36715  0.03934  1.0000
  C   C1654     1.0  0.62954  0.38556  0.97083  1.0000
  H   H1316     1.0  0.38658  0.47802  0.04095  1.0000
  C   C1655     1.0  0.48010  0.47828  0.04404  1.0000
  Fe  Fe103     1.0  0.38954  0.99193  0.39617  1.0000
  S   S215      1.0  0.41256  0.00803  0.37561  1.0000
  S   S216      1.0  0.37257  0.00226  0.42401  1.0000
  H   H1317     1.0  0.39027  0.08157  0.28292  1.0000
  C   C1656     1.0  0.64193  0.06015  0.28641  1.0000
  C   C1657     1.0  0.65122  0.07650  0.40042  1.0000
  H   H1318     1.0  0.33644  0.03996  0.22410  1.0000
  C   C1658     1.0  0.61983  0.00769  0.23435  1.0000
  Fe  Fe104     1.0  0.39877  0.00104  0.35230  1.0000
  S   S217      1.0  0.39520  0.02240  0.32462  1.0000
  C   C1659     1.0  0.40286  0.05239  0.41534  1.0000
  C   C1660     1.0  0.52717  0.01912  0.45663  1.0000
  Fe  Fe105     1.0  0.54492  0.03753  0.35044  1.0000
  S   S218      1.0  0.56689  0.01232  0.36283  1.0000
  S   S219      1.0  0.51600  0.03794  0.34045  1.0000
  Fe  Fe106     1.0  0.56975  0.06924  0.35053  1.0000
  S   S220      1.0  0.59368  0.04719  0.36337  1.0000
  S   S221      1.0  0.56872  0.10239  0.34118  1.0000
  Fe  Fe107     1.0  0.59015  0.02818  0.34235  1.0000
  S   S222      1.0  0.61873  0.01611  0.32422  1.0000
  Fe  Fe108     1.0  0.56870  0.03330  0.38294  1.0000
  S   S223      1.0  0.56840  0.02033  0.41465  1.0000
  S   S224      1.0  0.56809  0.05142  0.32802  1.0000
  S   S225      1.0  0.54476  0.05722  0.37214  1.0000
  H   H1319     1.0  0.62136  0.03249  0.27837  1.0000
  C   C1661     1.0  0.49847  0.98526  0.36711  1.0000
  C   C1662     1.0  0.59118  0.11143  0.33048  1.0000
  H   H1320     1.0  0.41546  0.99960  0.42096  1.0000
  C   C1663     1.0  0.60764  0.13995  0.31535  1.0000
  C   C1664     1.0  0.59021  0.13188  0.32334  1.0000
  H   H1321     1.0  0.60673  0.15589  0.31039  1.0000
  H   H1322     1.0  0.57597  0.14165  0.32449  1.0000
  C   C1665     1.0  0.61996  0.99556  0.31267  1.0000
  H   H1323     1.0  0.61063  0.08324  0.33513  1.0000
  C   C1666     1.0  0.63702  0.99054  0.29915  1.0000
  C   C1667     1.0  0.61438  0.15600  0.22467  1.0000
  C   C1668     1.0  0.57894  0.03108  0.43005  1.0000
  C   C1669     1.0  0.58502  0.04986  0.42439  1.0000
  C   C1670     1.0  0.59253  0.05815  0.43757  1.0000
  H   H1324     1.0  0.49642  0.05081  0.37811  1.0000
  C   C1671     1.0  0.58082  0.02056  0.44870  1.0000
  H   H1325     1.0  0.58366  0.05806  0.41003  1.0000
  H   H1326     1.0  0.59695  0.07278  0.43327  1.0000
  H   H1327     1.0  0.57640  0.00601  0.45323  1.0000
  C   C1672     1.0  0.37528  0.04200  0.32775  1.0000
  C   C1673     1.0  0.36688  0.05222  0.31161  1.0000
  C   C1674     1.0  0.35120  0.06826  0.31362  1.0000
  C   C1675     1.0  0.34411  0.07440  0.33170  1.0000
  C   C1676     1.0  0.35257  0.06419  0.34789  1.0000
  C   C1677     1.0  0.36802  0.04783  0.34597  1.0000
  H   H1328     1.0  0.37232  0.04752  0.29760  1.0000
  H   H1329     1.0  0.34485  0.07608  0.30110  1.0000
  H   H1330     1.0  0.34710  0.06885  0.36194  1.0000
  H   H1331     1.0  0.37445  0.03992  0.35851  1.0000
  H   H1332     1.0  0.46423  0.21762  0.23150  1.0000
  C   C1678     1.0  0.46913  0.00833  0.35929  1.0000
  C   C1679     1.0  0.48094  0.02327  0.35143  1.0000
  C   C1680     1.0  0.50149  0.01932  0.35165  1.0000
  C   C1681     1.0  0.51022  0.00039  0.35978  1.0000
  C   C1682     1.0  0.55175  0.01802  0.27609  1.0000
  H   H1333     1.0  0.45331  0.01152  0.35919  1.0000
  H   H1334     1.0  0.47406  0.03789  0.34522  1.0000
  H   H1335     1.0  0.52606  0.99725  0.36003  1.0000
  H   H1336     1.0  0.64173  0.09743  0.31998  1.0000
  C   C1683     1.0  0.41957  0.00757  0.44766  1.0000
  C   C1684     1.0  0.40822  0.00351  0.43499  1.0000
  C   C1685     1.0  0.38746  0.00528  0.44024  1.0000
  C   C1686     1.0  0.54034  0.01694  0.29478  1.0000
  C   C1687     1.0  0.60978  0.09897  0.32928  1.0000
  C   C1688     1.0  0.49532  0.11070  0.28225  1.0000
  C   C1689     1.0  0.51053  0.10041  0.29236  1.0000
  C   C1690     1.0  0.50737  0.08340  0.30607  1.0000
  C   C1691     1.0  0.48916  0.07642  0.30943  1.0000
  C   C1692     1.0  0.47395  0.08629  0.29899  1.0000
  C   C1693     1.0  0.47706  0.10374  0.28558  1.0000
  P   P55       1.0  0.45106  0.07609  0.30242  1.0000
  C   C1694     1.0  0.45731  0.04918  0.30381  1.0000
  C   C1695     1.0  0.43490  0.08140  0.32481  1.0000
  C   C1696     1.0  0.41427  0.08156  0.32699  1.0000
  C   C1697     1.0  0.40178  0.08479  0.34454  1.0000
  C   C1698     1.0  0.40978  0.08767  0.36012  1.0000
  C   C1699     1.0  0.43031  0.08727  0.35819  1.0000
  C   C1700     1.0  0.44285  0.08412  0.34063  1.0000
  C   C1701     1.0  0.44444  0.03663  0.31571  1.0000
  C   C1702     1.0  0.45002  0.01585  0.31805  1.0000
  C   C1703     1.0  0.46848  0.00737  0.30864  1.0000
  C   C1704     1.0  0.48126  0.01968  0.29649  1.0000
  C   C1705     1.0  0.47565  0.04050  0.29392  1.0000
  C   C1706     1.0  0.43874  0.08696  0.28180  1.0000
  C   C1707     1.0  0.44335  0.07812  0.26489  1.0000
  H   H1337     1.0  0.53257  0.99805  0.32208  1.0000
  C   C1708     1.0  0.59389  0.04772  0.45644  1.0000
  S   S226      1.0  0.64757  0.13919  0.30548  1.0000
  C   C1709     1.0  0.42588  0.10541  0.28184  1.0000
  H   H1338     1.0  0.49773  0.12398  0.27169  1.0000
  H   H1339     1.0  0.52482  0.10549  0.28959  1.0000
  H   H1340     1.0  0.51914  0.07545  0.31400  1.0000
  H   H1341     1.0  0.48706  0.06307  0.31994  1.0000
  H   H1342     1.0  0.46560  0.11189  0.27744  1.0000
  H   H1343     1.0  0.40780  0.07873  0.31532  1.0000
  H   H1344     1.0  0.38589  0.08478  0.34611  1.0000
  H   H1345     1.0  0.40007  0.08991  0.37378  1.0000
  H   H1346     1.0  0.43655  0.08913  0.37039  1.0000
  H   H1347     1.0  0.45870  0.08354  0.33963  1.0000
  H   H1348     1.0  0.43017  0.04267  0.32352  1.0000
  H   H1349     1.0  0.44010  0.00633  0.32755  1.0000
  C   C1710     1.0  0.64049  0.07543  0.43526  1.0000
  H   H1350     1.0  0.49572  0.01306  0.28948  1.0000
  H   H1351     1.0  0.48588  0.04978  0.28468  1.0000
  H   H1352     1.0  0.45345  0.06411  0.26438  1.0000
  C   C1711     1.0  0.47176  0.10574  0.38165  1.0000
  H   H1353     1.0  0.43270  0.05767  0.44571  1.0000
  H   H1354     1.0  0.42246  0.11281  0.29451  1.0000
  C   C1712     1.0  0.40884  0.98907  0.26853  1.0000
  S   S227      1.0  0.37379  0.98774  0.37281  1.0000
  H   H1355     1.0  0.52909  0.04639  0.43618  1.0000
  H   H1356     1.0  0.48955  0.08092  0.42652  1.0000
  C   C1713     1.0  0.42592  0.01298  0.27698  1.0000
  C   C1714     1.0  0.47788  0.98922  0.36697  1.0000
  H   H1357     1.0  0.53759  0.01476  0.24265  1.0000
  C   C1715     1.0  0.64316  0.06876  0.26682  1.0000
  H   H1358     1.0  0.63262  0.08268  0.44750  1.0000
  C   C1716     1.0  0.41288  0.99900  0.28239  1.0000
  C   C1717     1.0  0.34504  0.14235  0.25113  1.0000
  C   C1718     1.0  0.48546  0.10115  0.36517  1.0000
  C   C1719     1.0  0.48900  0.20819  0.24708  1.0000
  C   C1720     1.0  0.64876  0.04666  0.34485  1.0000
  H   H1359     1.0  0.40791  0.12910  0.26525  1.0000
  C   C1721     1.0  0.36387  0.00268  0.29233  1.0000
  C   C1722     1.0  0.64829  0.05507  0.43841  1.0000
  H   H1360     1.0  0.53531  0.06525  0.46015  1.0000
  C   C1723     1.0  0.58229  0.20796  0.22911  1.0000
  H   H1361     1.0  0.44574  0.09546  0.45218  1.0000
  H   H1362     1.0  0.34300  0.02555  0.30589  1.0000
  H   H1363     1.0  0.50492  0.07772  0.35133  1.0000
  C   C1724     1.0  0.48961  0.06608  0.37948  1.0000
  C   C1725     1.0  0.54647  0.02241  0.23013  1.0000
  H   H1364     1.0  0.63527  0.10177  0.41416  1.0000
  H   H1365     1.0  0.61555  0.17730  0.24273  1.0000
  C   C1726     1.0  0.52939  0.03924  0.45109  1.0000
  C   C1727     1.0  0.44336  0.05120  0.41631  1.0000
  C   C1728     1.0  0.48431  0.02713  0.41289  1.0000
  H   H1366     1.0  0.59879  0.14730  0.35865  1.0000
  C   C1729     1.0  0.63793  0.02289  0.25185  1.0000
  H   H1367     1.0  0.40819  0.05584  0.26295  1.0000
  H   H1368     1.0  0.41947  0.10201  0.43162  1.0000
  H   H1369     1.0  0.62871  0.06259  0.36580  1.0000
  C   C1730     1.0  0.48710  0.99170  0.41194  1.0000
  C   C1731     1.0  0.50781  0.98948  0.41021  1.0000
  C   C1732     1.0  0.36756  0.09220  0.26511  1.0000
  P   P56       1.0  0.46946  0.05116  0.41608  1.0000
  C   C1733     1.0  0.34580  0.01022  0.30329  1.0000
  H   H1370     1.0  0.37221  0.14727  0.25848  1.0000
  H   H1371     1.0  0.43550  0.00686  0.44333  1.0000
  C   C1734     1.0  0.62837  0.12693  0.25411  1.0000
  C   C1735     1.0  0.62560  0.10274  0.37561  1.0000
  H   H1372     1.0  0.49537  0.08634  0.45802  1.0000
  C   C1736     1.0  0.64354  0.06080  0.35743  1.0000
  H   H1373     1.0  0.40549  0.99634  0.29737  1.0000
  C   C1737     1.0  0.60960  0.09295  0.38559  1.0000
  C   C1738     1.0  0.58993  0.10260  0.38567  1.0000
  C   C1739     1.0  0.58604  0.12222  0.37607  1.0000
  C   C1740     1.0  0.60181  0.13222  0.36643  1.0000
  C   C1741     1.0  0.62151  0.12254  0.36609  1.0000
  H   H1374     1.0  0.37037  0.03069  0.23350  1.0000
  H   H1375     1.0  0.59137  0.98795  0.32718  1.0000
  C   C1742     1.0  0.62736  0.10702  0.32076  1.0000
  C   C1743     1.0  0.65265  0.08641  0.22204  1.0000
  C   C1744     1.0  0.60322  0.02009  0.26409  1.0000
  C   C1745     1.0  0.46822  0.04284  0.45610  1.0000
  H   H1376     1.0  0.61226  0.07780  0.39331  1.0000
  H   H1377     1.0  0.57768  0.09477  0.39294  1.0000
  H   H1378     1.0  0.59153  0.21124  0.23832  1.0000
  H   H1379     1.0  0.56830  0.06977  0.22822  1.0000
  C   C1746     1.0  0.60253  0.01084  0.24833  1.0000
  C   C1747     1.0  0.37012  0.07527  0.23751  1.0000
  P   P57       1.0  0.57984  0.00256  0.24639  1.0000
  H   H1380     1.0  0.45941  0.01173  0.41437  1.0000
  C   C1748     1.0  0.43172  0.00697  0.24378  1.0000
  C   C1749     1.0  0.32670  0.05391  0.22601  1.0000
  C   C1750     1.0  0.39530  0.10526  0.45568  1.0000
  C   C1751     1.0  0.46708  0.09052  0.39710  1.0000
  H   H1381     1.0  0.62798  0.15146  0.26890  1.0000
  C   C1752     1.0  0.62081  0.02611  0.26576  1.0000
  S   S228      1.0  0.32521  0.09517  0.33423  1.0000
  H   H1382     1.0  0.52444  0.01120  0.44600  1.0000
  C   C1753     1.0  0.41851  0.99308  0.24915  1.0000
  C   C1754     1.0  0.42875  0.05529  0.43249  1.0000
  H   H1383     1.0  0.42837  0.02088  0.28782  1.0000
  C   C1755     1.0  0.61778  0.16163  0.24141  1.0000
  H   H1384     1.0  0.45637  0.09421  0.40976  1.0000
  C   C1756     1.0  0.60457  0.98413  0.31672  1.0000
  C   C1757     1.0  0.59472  0.07994  0.23151  1.0000
  C   C1758     1.0  0.47626  0.07062  0.39627  1.0000
  P   P58       1.0  0.62852  0.09469  0.23554  1.0000
  C   C1759     1.0  0.33478  0.14242  0.23610  1.0000
  H   H1385     1.0  0.34677  0.09957  0.24545  1.0000
  C   C1760     1.0  0.43541  0.01694  0.25770  1.0000
  C   C1761     1.0  0.62418  0.06391  0.29939  1.0000
  C   C1762     1.0  0.60765  0.07639  0.29290  1.0000
  C   C1763     1.0  0.60884  0.08514  0.27339  1.0000
  C   C1764     1.0  0.62649  0.08113  0.26009  1.0000
  H   H1386     1.0  0.53121  0.03025  0.29968  1.0000
  H   H1387     1.0  0.55187  0.98813  0.44152  1.0000
  H   H1388     1.0  0.32813  0.01883  0.26499  1.0000
  C   C1765     1.0  0.47888  0.20868  0.23183  1.0000
  C   C1766     1.0  0.63746  0.01369  0.23614  1.0000
  H   H1389     1.0  0.62332  0.05735  0.31457  1.0000
  H   H1390     1.0  0.59412  0.07976  0.30319  1.0000
  H   H1391     1.0  0.59621  0.09553  0.26880  1.0000
  C   C1767     1.0  0.36756  0.98273  0.28901  1.0000
  H   H1392     1.0  0.46486  0.12111  0.38246  1.0000
  C   C1768     1.0  0.48396  0.07138  0.43964  1.0000
  H   H1393     1.0  0.38733  0.05195  0.41525  1.0000
  H   H1394     1.0  0.63389  0.11605  0.26575  1.0000
  H   H1395     1.0  0.59050  0.02222  0.27552  1.0000
  C   C1769     1.0  0.50513  0.02476  0.41121  1.0000
  S   S229      1.0  0.39771  0.15878  0.22251  1.0000
  C   C1770     1.0  0.56388  0.00080  0.26993  1.0000
  H   H1396     1.0  0.65171  0.02706  0.25353  1.0000
  C   C1771     1.0  0.37826  0.01024  0.45850  1.0000
  C   C1772     1.0  0.41725  0.04878  0.39905  1.0000
  H   H1397     1.0  0.35970  0.10343  0.27392  1.0000
  H   H1398     1.0  0.48013  0.97894  0.41183  1.0000
  H   H1399     1.0  0.37461  0.01263  0.28649  1.0000
  C   C1773     1.0  0.56493  0.98270  0.28299  1.0000
  C   C1774     1.0  0.51684  0.00604  0.40969  1.0000
  H   H1400     1.0  0.39753  0.05795  0.44487  1.0000
  C   C1775     1.0  0.40860  0.05578  0.43200  1.0000
  H   H1401     1.0  0.63330  0.13061  0.35817  1.0000
  H   H1402     1.0  0.35850  0.98639  0.25284  1.0000
  H   H1403     1.0  0.61992  0.00013  0.22233  1.0000
  C   C1776     1.0  0.43742  0.04810  0.39952  1.0000
  C   C1777     1.0  0.62489  0.12103  0.23738  1.0000
  C   C1778     1.0  0.53275  0.14364  0.28997  1.0000
  C   C1779     1.0  0.55212  0.13501  0.29279  1.0000
  C   C1780     1.0  0.56808  0.13694  0.27742  1.0000
  C   C1781     1.0  0.56467  0.14761  0.25924  1.0000
  C   C1782     1.0  0.54534  0.15690  0.25644  1.0000
  C   C1783     1.0  0.52929  0.15428  0.27178  1.0000
  P   P59       1.0  0.54144  0.17086  0.23285  1.0000
  C   C1784     1.0  0.56734  0.01967  0.22830  1.0000
  C   C1785     1.0  0.56938  0.19395  0.23639  1.0000
  H   H1404     1.0  0.55958  0.98260  0.22456  1.0000
  C   C1786     1.0  0.55781  0.18931  0.22426  1.0000
  C   C1787     1.0  0.36444  0.14714  0.24678  1.0000
  C   C1788     1.0  0.54116  0.99877  0.30751  1.0000
  C   C1789     1.0  0.38483  0.07993  0.27014  1.0000
  C   C1790     1.0  0.58087  0.07711  0.22087  1.0000
  H   H1405     1.0  0.46108  0.03031  0.45571  1.0000
  H   H1406     1.0  0.55149  0.03237  0.26668  1.0000
  C   C1791     1.0  0.48740  0.07446  0.45749  1.0000
  H   H1407     1.0  0.43904  0.01003  0.22880  1.0000
  C   C1792     1.0  0.51672  0.18522  0.23265  1.0000
  C   C1793     1.0  0.50794  0.19668  0.24740  1.0000
  C   C1794     1.0  0.41027  0.01307  0.46568  1.0000
  H   H1408     1.0  0.33793  0.13887  0.26611  1.0000
  C   C1795     1.0  0.39489  0.06541  0.25887  1.0000
  C   C1796     1.0  0.33114  0.99812  0.31067  1.0000
  H   H1409     1.0  0.52042  0.14198  0.30193  1.0000
  H   H1410     1.0  0.55477  0.12676  0.30689  1.0000
  H   H1411     1.0  0.58312  0.13033  0.27970  1.0000
  H   H1412     1.0  0.57717  0.14886  0.24744  1.0000
  H   H1413     1.0  0.51413  0.16037  0.26983  1.0000
  H   H1414     1.0  0.59279  0.07426  0.24691  1.0000
  C   C1797     1.0  0.41773  0.11479  0.26528  1.0000
  H   H1415     1.0  0.48930  0.11291  0.35326  1.0000
  C   C1798     1.0  0.62625  0.12764  0.31404  1.0000
  H   H1416     1.0  0.38382  0.10776  0.44675  1.0000
  H   H1417     1.0  0.51758  0.14344  0.22496  1.0000
  C   C1799     1.0  0.53290  0.04986  0.46455  1.0000
  H   H1418     1.0  0.44555  0.02776  0.25359  1.0000
  C   C1800     1.0  0.58836  0.02875  0.46174  1.0000
  H   H1419     1.0  0.56856  0.18687  0.25141  1.0000
  H   H1420     1.0  0.51582  0.19689  0.25902  1.0000
  P   P60       1.0  0.65097  0.09008  0.37604  1.0000
  C   C1801     1.0  0.38784  0.06332  0.24240  1.0000
  C   C1802     1.0  0.36018  0.08985  0.24895  1.0000
  C   C1803     1.0  0.64195  0.08613  0.41637  1.0000
  H   H1421     1.0  0.44843  0.04492  0.38685  1.0000
  H   H1422     1.0  0.57078  0.12947  0.37567  1.0000
  C   C1804     1.0  0.42244  0.10596  0.24851  1.0000
  H   H1423     1.0  0.43891  0.08092  0.23521  1.0000
  H   H1424     1.0  0.53294  0.00439  0.40810  1.0000
  C   C1805     1.0  0.43017  0.09834  0.45872  1.0000
  C   C1806     1.0  0.47388  0.05580  0.43889  1.0000
  H   H1425     1.0  0.48224  0.21692  0.25854  1.0000
  C   C1807     1.0  0.62485  0.14711  0.25608  1.0000
  C   C1808     1.0  0.49428  0.08133  0.36408  1.0000
  H   H1426     1.0  0.63792  0.03784  0.34354  1.0000
  C   C1809     1.0  0.43525  0.08763  0.24831  1.0000
  H   H1427     1.0  0.51236  0.03740  0.41098  1.0000
  C   C1810     1.0  0.47537  0.01045  0.41321  1.0000
  C   C1811     1.0  0.41539  0.10201  0.44715  1.0000
  H   H1428     1.0  0.41276  0.04613  0.38617  1.0000
  H   H1429     1.0  0.36225  0.01158  0.46262  1.0000
  C   C1812     1.0  0.37364  0.15214  0.22740  1.0000
  H   H1430     1.0  0.64794  0.18987  0.22290  1.0000
  H   H1431     1.0  0.41617  0.11345  0.23567  1.0000
  H   H1432     1.0  0.41588  0.98561  0.23810  1.0000
  C   C1813     1.0  0.61800  0.13582  0.22258  1.0000
  H   H1433     1.0  0.64885  0.99949  0.29583  1.0000
  C   C1814     1.0  0.61078  0.08990  0.22219  1.0000
  H   H1434     1.0  0.47296  0.99126  0.31109  1.0000
  H   H1435     1.0  0.65099  0.01065  0.22572  1.0000
  H   H1436     1.0  0.64636  0.04671  0.45306  1.0000
  C   C1815     1.0  0.32066  0.08970  0.22553  1.0000
  C   C1816     1.0  0.33413  0.07205  0.22289  1.0000
  H   H1437     1.0  0.39635  0.05247  0.23357  1.0000
  C   C1817     1.0  0.55349  0.98169  0.30165  1.0000
  H   H1438     1.0  0.32591  0.10391  0.22280  1.0000
  C   C1818     1.0  0.47337  0.98506  0.46952  1.0000
  C   C1819     1.0  0.33441  0.97854  0.30691  1.0000
  H   H1439     1.0  0.64531  0.05768  0.22058  1.0000
  H   H1440     1.0  0.34615  0.04083  0.53382  1.0000
  S   S230      1.0  0.42127  0.01866  0.53629  1.0000
  C   C1820     1.0  0.55699  0.07490  0.69018  1.0000
  C   C1821     1.0  0.59189  0.15154  0.70604  1.0000
  C   C1822     1.0  0.59370  0.14168  0.69019  1.0000
  C   C1823     1.0  0.40613  0.04573  0.61552  1.0000
  Fe  Fe109     1.0  0.42079  0.00436  0.51063  1.0000
  C   C1824     1.0  0.33931  0.01695  0.70789  1.0000
  Fe  Fe110     1.0  0.39587  0.00223  0.55069  1.0000
  S   S231      1.0  0.36762  0.01411  0.56945  1.0000
  H   H1441     1.0  0.58820  0.07056  0.69155  1.0000
  C   C1825     1.0  0.47780  0.05429  0.59301  1.0000
  Fe  Fe111     1.0  0.55348  0.04488  0.53412  1.0000
  S   S232      1.0  0.57079  0.02524  0.51298  1.0000
  S   S233      1.0  0.52046  0.05463  0.53410  1.0000
  Fe  Fe112     1.0  0.59074  0.04982  0.54789  1.0000
  S   S234      1.0  0.61140  0.03089  0.52714  1.0000
  S   S235      1.0  0.59949  0.06019  0.57297  1.0000
  Fe  Fe113     1.0  0.59205  0.04717  0.50515  1.0000
  C   C1826     1.0  0.35570  0.05217  0.52973  1.0000
  Fe  Fe114     1.0  0.58866  0.01020  0.53630  1.0000
  S   S236      1.0  0.57359  0.06812  0.52506  1.0000
  S   S237      1.0  0.56907  0.02781  0.55844  1.0000
  H   H1442     1.0  0.33835  0.06593  0.60892  1.0000
  C   C1827     1.0  0.34536  0.98298  0.52499  1.0000
  C   C1828     1.0  0.38700  0.06277  0.51344  1.0000
  H   H1443     1.0  0.32382  0.09681  0.58076  1.0000
  H   H1444     1.0  0.37470  0.05307  0.71088  1.0000
  H   H1445     1.0  0.54198  0.13732  0.70333  1.0000
  C   C1829     1.0  0.63875  0.05627  0.65952  1.0000
  H   H1446     1.0  0.64142  0.10128  0.68361  1.0000
  C   C1830     1.0  0.40761  0.07484  0.67475  1.0000
  C   C1831     1.0  0.38483  0.15421  0.70217  1.0000
  C   C1832     1.0  0.37439  0.15672  0.68659  1.0000
  C   C1833     1.0  0.36637  0.14080  0.68290  1.0000
  C   C1834     1.0  0.36861  0.12214  0.69486  1.0000
  H   H1447     1.0  0.55505  0.06017  0.69819  1.0000
  H   H1448     1.0  0.37246  0.17111  0.67732  1.0000
  H   H1449     1.0  0.35833  0.14302  0.67092  1.0000
  H   H1450     1.0  0.52609  0.08355  0.68704  1.0000
  H   H1451     1.0  0.36925  0.99931  0.63352  1.0000
  H   H1452     1.0  0.38485  0.35661  0.69467  1.0000
  H   H1453     1.0  0.40445  0.08533  0.59611  1.0000
  C   C1835     1.0  0.42552  0.05229  0.65257  1.0000
  C   C1836     1.0  0.47455  0.04849  0.62812  1.0000
  C   C1837     1.0  0.49512  0.04185  0.62645  1.0000
  H   H1454     1.0  0.62001  0.06751  0.60120  1.0000
  H   H1455     1.0  0.62709  0.12263  0.54556  1.0000
  H   H1456     1.0  0.43124  0.03716  0.64986  1.0000
  C   C1838     1.0  0.36648  0.03735  0.57644  1.0000
  C   C1839     1.0  0.38073  0.04968  0.56793  1.0000
  C   C1840     1.0  0.37941  0.06824  0.57383  1.0000
  C   C1841     1.0  0.36395  0.07431  0.58852  1.0000
  C   C1842     1.0  0.35003  0.06168  0.59732  1.0000
  C   C1843     1.0  0.35111  0.04343  0.59107  1.0000
  H   H1457     1.0  0.39262  0.04490  0.55677  1.0000
  H   H1458     1.0  0.39047  0.07769  0.56720  1.0000
  H   H1459     1.0  0.65149  0.98519  0.55474  1.0000
  C   C1844     1.0  0.36024  0.98258  0.61523  1.0000
  H   H1460     1.0  0.36713  0.17143  0.50257  1.0000
  H   H1461     1.0  0.46581  0.04899  0.64247  1.0000
  C   C1845     1.0  0.46567  0.05470  0.61138  1.0000
  C   C1846     1.0  0.38736  0.13545  0.71390  1.0000
  H   H1462     1.0  0.58980  0.15029  0.67668  1.0000
  C   C1847     1.0  0.61587  0.14711  0.61193  1.0000
  H   H1463     1.0  0.63948  0.09362  0.60189  1.0000
  S   S238      1.0  0.42413  0.02107  0.48008  1.0000
  C   C1848     1.0  0.48255  0.00490  0.55221  1.0000
  C   C1849     1.0  0.47708  0.02162  0.53866  1.0000
  C   C1850     1.0  0.48895  0.03677  0.53296  1.0000
  C   C1851     1.0  0.50664  0.03488  0.54026  1.0000
  C   C1852     1.0  0.51250  0.01780  0.55324  1.0000
  C   C1853     1.0  0.50021  0.00305  0.55955  1.0000
  H   H1464     1.0  0.46360  0.02302  0.53278  1.0000
  H   H1465     1.0  0.48448  0.04994  0.52286  1.0000
  H   H1466     1.0  0.52616  0.01626  0.55891  1.0000
  C   C1854     1.0  0.42712  0.98465  0.66056  1.0000
  C   C1855     1.0  0.38340  0.34826  0.70932  1.0000
  H   H1467     1.0  0.50192  0.03716  0.63938  1.0000
  C   C1856     1.0  0.63264  0.18299  0.68051  1.0000
  H   H1468     1.0  0.36399  0.14285  0.56224  1.0000
  H   H1469     1.0  0.42461  0.13890  0.56366  1.0000
  H   H1470     1.0  0.58723  0.16763  0.70456  1.0000
  H   H1471     1.0  0.48593  0.23251  0.71690  1.0000
  H   H1472     1.0  0.53582  0.04893  0.49424  1.0000
  H   H1473     1.0  0.38234  0.01817  0.48512  1.0000
  C   C1857     1.0  0.34329  0.99277  0.54092  1.0000
  H   H1474     1.0  0.61968  0.15582  0.59768  1.0000
  C   C1858     1.0  0.40473  0.10150  0.48748  1.0000
  C   C1859     1.0  0.41011  0.09114  0.65992  1.0000
  C   C1860     1.0  0.38997  0.10495  0.47577  1.0000
  C   C1861     1.0  0.32351  0.98370  0.47826  1.0000
  C   C1862     1.0  0.63783  0.16214  0.71110  1.0000
  H   H1475     1.0  0.45230  0.23776  0.70830  1.0000
  H   H1476     1.0  0.47147  0.05919  0.57984  1.0000
  S   S239      1.0  0.35851  0.10161  0.69114  1.0000
  C   C1863     1.0  0.48118  0.06181  0.47462  1.0000
  H   H1477     1.0  0.39786  0.11802  0.57572  1.0000
  C   C1864     1.0  0.63645  0.98629  0.60703  1.0000
  H   H1478     1.0  0.46453  0.09479  0.59457  1.0000
  H   H1479     1.0  0.41325  0.04281  0.68260  1.0000
  H   H1480     1.0  0.39780  0.00820  0.59490  1.0000
  H   H1481     1.0  0.53215  0.01365  0.50419  1.0000
  H   H1482     1.0  0.45122  0.03317  0.58728  1.0000
  C   C1865     1.0  0.63477  0.10986  0.57376  1.0000
  H   H1483     1.0  0.35036  0.00574  0.53944  1.0000
  H   H1484     1.0  0.60841  0.09556  0.54430  1.0000
  C   C1866     1.0  0.60409  0.13223  0.61430  1.0000
  C   C1867     1.0  0.59961  0.12057  0.63252  1.0000
  C   C1868     1.0  0.60665  0.12398  0.64859  1.0000
  C   C1869     1.0  0.61919  0.13834  0.64588  1.0000
  P   P61       1.0  0.60228  0.10799  0.67173  1.0000
  C   C1870     1.0  0.39205  0.98364  0.68822  1.0000
  C   C1871     1.0  0.57845  0.09977  0.67570  1.0000
  H   H1485     1.0  0.61209  0.03385  0.60749  1.0000
  H   H1486     1.0  0.46688  0.03606  0.48716  1.0000
  C   C1872     1.0  0.42491  0.09799  0.47883  1.0000
  C   C1873     1.0  0.54314  0.10714  0.67374  1.0000
  C   C1874     1.0  0.56194  0.11303  0.66973  1.0000
  C   C1875     1.0  0.48960  0.98907  0.47617  1.0000
  C   C1876     1.0  0.53342  0.04056  0.48372  1.0000
  C   C1877     1.0  0.50702  0.04156  0.60811  1.0000
  C   C1878     1.0  0.64924  0.14702  0.70085  1.0000
  C   C1879     1.0  0.32159  0.14479  0.71530  1.0000
  C   C1880     1.0  0.62282  0.08754  0.67072  1.0000
  S   S240      1.0  0.46727  0.98645  0.56068  1.0000
  H   H1487     1.0  0.40147  0.05948  0.50443  1.0000
  S   S241      1.0  0.60272  0.05836  0.47318  1.0000
  C   C1881     1.0  0.33254  0.98557  0.55888  1.0000
  C   C1882     1.0  0.62229  0.07148  0.66146  1.0000
  S   S242      1.0  0.33419  0.12390  0.64147  1.0000
  C   C1883     1.0  0.62353  0.15007  0.62769  1.0000
  H   H1488     1.0  0.34024  0.03379  0.59781  1.0000
  H   H1489     1.0  0.59106  0.10865  0.63391  1.0000
  H   H1490     1.0  0.62589  0.14022  0.65775  1.0000
  S   S243      1.0  0.39390  0.99016  0.52417  1.0000
  C   C1884     1.0  0.49836  0.04787  0.59142  1.0000
  C   C1885     1.0  0.41537  0.05542  0.67111  1.0000
  H   H1491     1.0  0.53046  0.11742  0.66903  1.0000
  H   H1492     1.0  0.56356  0.12798  0.66211  1.0000
  C   C1886     1.0  0.57580  0.08077  0.68623  1.0000
  H   H1493     1.0  0.52301  0.03665  0.60675  1.0000
  C   C1887     1.0  0.47159  0.04601  0.47392  1.0000
  C   C1888     1.0  0.63900  0.02520  0.58783  1.0000
  H   H1494     1.0  0.33920  0.06602  0.70931  1.0000
  C   C1889     1.0  0.60500  0.11026  0.70978  1.0000
  C   C1890     1.0  0.64411  0.16790  0.67025  1.0000
  H   H1495     1.0  0.41162  0.01196  0.64647  1.0000
  H   H1496     1.0  0.60936  0.07090  0.65535  1.0000
  C   C1891     1.0  0.44159  0.06795  0.54315  1.0000
  C   C1892     1.0  0.45405  0.08204  0.54167  1.0000
  C   C1893     1.0  0.44900  0.10155  0.53218  1.0000
  C   C1894     1.0  0.43155  0.10694  0.52410  1.0000
  C   C1895     1.0  0.41913  0.09275  0.52524  1.0000
  C   C1896     1.0  0.42434  0.07322  0.53477  1.0000
  P   P62       1.0  0.39740  0.09972  0.51354  1.0000
  H   H1497     1.0  0.40895  0.32584  0.70250  1.0000
  P   P63       1.0  0.36964  0.98355  0.70629  1.0000
  C   C1897     1.0  0.42556  0.01948  0.58979  1.0000
  C   C1898     1.0  0.38106  0.08107  0.52047  1.0000
  C   C1899     1.0  0.36204  0.08488  0.53184  1.0000
  C   C1900     1.0  0.34952  0.07041  0.53654  1.0000
  C   C1901     1.0  0.37038  0.15824  0.51321  1.0000
  H   H1498     1.0  0.39943  0.07737  0.68899  1.0000
  H   H1499     1.0  0.63325  0.16110  0.62569  1.0000
  H   H1500     1.0  0.44542  0.05283  0.55057  1.0000
  H   H1501     1.0  0.46774  0.07781  0.54766  1.0000
  H   H1502     1.0  0.45871  0.11243  0.53105  1.0000
  H   H1503     1.0  0.42789  0.12210  0.51672  1.0000
  H   H1504     1.0  0.41521  0.06200  0.53570  1.0000
  C   C1902     1.0  0.37285  0.98591  0.62687  1.0000
  H   H1505     1.0  0.63953  0.04039  0.58060  1.0000
  H   H1506     1.0  0.38184  0.11134  0.55158  1.0000
  H   H1507     1.0  0.35674  0.09878  0.53738  1.0000
  C   C1903     1.0  0.34480  0.05019  0.70946  1.0000
  Fe  Fe115     1.0  0.44064  0.99000  0.54619  1.0000
  C   C1904     1.0  0.64030  0.08854  0.67731  1.0000
  H   H1508     1.0  0.35371  0.98886  0.51116  1.0000
  C   C1905     1.0  0.62215  0.00213  0.61287  1.0000
  C   C1906     1.0  0.62942  0.18022  0.70098  1.0000
  C   C1907     1.0  0.42765  0.12444  0.57262  1.0000
  C   C1908     1.0  0.63274  0.09419  0.58933  1.0000
  C   C1909     1.0  0.41079  0.99987  0.65868  1.0000
  H   H1509     1.0  0.45799  0.12704  0.57317  1.0000
  H   H1510     1.0  0.44069  0.98515  0.64998  1.0000
  H   H1511     1.0  0.48423  0.06396  0.48838  1.0000
  H   H1512     1.0  0.38040  0.03185  0.61743  1.0000
  H   H1513     1.0  0.43284  0.00967  0.57938  1.0000
  H   H1514     1.0  0.61026  0.99941  0.62499  1.0000
  H   H1515     1.0  0.62620  0.19693  0.67256  1.0000
  C   C1910     1.0  0.54067  0.08807  0.68392  1.0000
  C   C1911     1.0  0.38045  0.14031  0.50708  1.0000
  C   C1912     1.0  0.35948  0.00936  0.70874  1.0000
  H   H1516     1.0  0.43665  0.09458  0.48749  1.0000
  C   C1913     1.0  0.41265  0.11262  0.57919  1.0000
  C   C1914     1.0  0.39327  0.99933  0.67236  1.0000
  C   C1915     1.0  0.38455  0.12317  0.52085  1.0000
  C   C1916     1.0  0.41643  0.09403  0.59086  1.0000
  C   C1917     1.0  0.42801  0.06858  0.63751  1.0000
  H   H1517     1.0  0.60997  0.09425  0.71151  1.0000
  C   C1918     1.0  0.62334  0.02155  0.60317  1.0000
  P   P64       1.0  0.43920  0.06413  0.61311  1.0000
  H   H1518     1.0  0.38499  0.13995  0.49167  1.0000
  H   H1519     1.0  0.37432  0.10711  0.48224  1.0000
  C   C1919     1.0  0.43521  0.08718  0.59633  1.0000
  H   H1520     1.0  0.50444  0.99018  0.57011  1.0000
  S   S244      1.0  0.64845  0.12884  0.57423  1.0000
  Fe  Fe116     1.0  0.34087  0.10079  0.66737  1.0000
  S   S245      1.0  0.36192  0.09766  0.59576  1.0000
  H   H1521     1.0  0.37929  0.03415  0.51304  1.0000
  S   S246      1.0  0.35112  0.07547  0.65006  1.0000
  C   C1920     1.0  0.39604  0.03184  0.61133  1.0000
  H   H1522     1.0  0.40375  0.10615  0.66278  1.0000
  C   C1921     1.0  0.37887  0.12439  0.54073  1.0000
  C   C1922     1.0  0.36870  0.14226  0.54681  1.0000
  C   C1923     1.0  0.37222  0.02252  0.70992  1.0000
  H   H1523     1.0  0.50768  0.04796  0.57719  1.0000
  C   C1924     1.0  0.42029  0.08808  0.64137  1.0000
  C   C1925     1.0  0.42634  0.04611  0.60741  1.0000
  C   C1926     1.0  0.61313  0.07950  0.57253  1.0000
  Fe  Fe117     1.0  0.34184  0.09793  0.62493  1.0000
  C   C1927     1.0  0.40579  0.01861  0.59857  1.0000
  C   C1928     1.0  0.62170  0.07933  0.58887  1.0000
  C   C1929     1.0  0.43589  0.03303  0.59425  1.0000
  S   S247      1.0  0.39453  0.17491  0.70611  1.0000
  C   C1930     1.0  0.53154  0.02034  0.48925  1.0000
  C   C1931     1.0  0.61517  0.09513  0.55684  1.0000
  C   C1932     1.0  0.36444  0.15919  0.53306  1.0000
  C   C1933     1.0  0.45014  0.09930  0.58998  1.0000
  H   H1524     1.0  0.64142  0.97938  0.52545  1.0000
  C   C1934     1.0  0.37440  0.04837  0.51815  1.0000
  C   C1935     1.0  0.62569  0.11047  0.55762  1.0000
  H   H1525     1.0  0.38792  0.01716  0.71014  1.0000
  H   H1526     1.0  0.61831  0.98138  0.56642  1.0000
  C   C1936     1.0  0.38964  0.01392  0.47128  1.0000
  H   H1527     1.0  0.33520  0.07312  0.54590  1.0000
  H   H1528     1.0  0.42169  0.10098  0.63009  1.0000
  C   C1937     1.0  0.44642  0.11775  0.57799  1.0000
  H   H1529     1.0  0.39798  0.05631  0.62490  1.0000
  H   H1530     1.0  0.38066  0.01118  0.67056  1.0000
  H   H1531     1.0  0.59900  0.12934  0.60180  1.0000
  H   H1532     1.0  0.48750  0.00131  0.48428  1.0000
  C   C1938     1.0  0.65094  0.99046  0.52425  1.0000
  C   C1939     1.0  0.37916  0.11957  0.71035  1.0000
  C   C1940     1.0  0.60067  0.12101  0.69183  1.0000
  H   H1533     1.0  0.59014  0.02016  0.47581  1.0000
  H   H1534     1.0  0.32918  0.00752  0.70623  1.0000
  H   H1535     1.0  0.35651  0.17304  0.53780  1.0000
  H   H1536     1.0  0.45827  0.99053  0.60095  1.0000
  H   H1537     1.0  0.34716  0.99348  0.61259  1.0000
  S   S248      1.0  0.61479  0.19970  0.71319  1.0000
  P   P65       1.0  0.52913  0.98242  0.48147  1.0000
  C   C1941     1.0  0.52920  0.00919  0.47550  1.0000
  C   C1942     1.0  0.33204  0.03725  0.70834  1.0000
  H   H1538     1.0  0.55600  0.98140  0.50874  1.0000
  H   H1539     1.0  0.45888  0.99411  0.47247  1.0000
  C   C1943     1.0  0.36487  0.04283  0.71029  1.0000
  H   H1540     1.0  0.55679  0.10413  0.71930  1.0000
  H   H1541     1.0  0.33827  0.98781  0.47404  1.0000
  H   H1542     1.0  0.36756  0.21694  0.70650  1.0000
  C   C1944     1.0  0.53674  0.13214  0.71855  1.0000
  H   H1543     1.0  0.64651  0.17028  0.65454  1.0000
  H   H1544     1.0  0.35036  0.18817  0.70997  1.0000
  H   H1545     1.0  0.33131  0.99295  0.57135  1.0000
  H   H1546     1.0  0.63831  0.04392  0.65234  1.0000
  C   C1945     1.0  0.39702  0.33095  0.71373  1.0000
  H   H1547     1.0  0.38106  0.10521  0.71966  1.0000
  H   H1548     1.0  0.35734  0.36804  0.71995  1.0000
  C   C1946     1.0  0.65197  0.98988  0.59148  1.0000
  H   H1549     1.0  0.65225  0.99945  0.49336  1.0000
  C   C1947     1.0  0.65249  0.14980  0.68040  1.0000
  H   H1550     1.0  0.65315  0.02240  0.62768  1.0000
  C   C1948     1.0  0.35692  0.21337  0.71959  1.0000
  C   C1949     1.0  0.36575  0.18869  0.84883  1.0000
  Fe  Fe118     1.0  0.48120  0.12916  0.87339  1.0000
  S   S249      1.0  0.49367  0.09953  0.86347  1.0000
  S   S250      1.0  0.46265  0.15577  0.85854  1.0000
  Fe  Fe119     1.0  0.49970  0.11913  0.90953  1.0000
  S   S251      1.0  0.51427  0.08882  0.90305  1.0000
  S   S252      1.0  0.49848  0.13242  0.93633  1.0000
  Fe  Fe120     1.0  0.52183  0.10365  0.87216  1.0000
  S   S253      1.0  0.55196  0.09081  0.85694  1.0000
  Fe  Fe121     1.0  0.48539  0.08657  0.89493  1.0000
  S   S254      1.0  0.47483  0.05741  0.90850  1.0000
  S   S255      1.0  0.51018  0.13445  0.87942  1.0000
  S   S256      1.0  0.47003  0.11581  0.90395  1.0000
  H   H1551     1.0  0.43742  0.17593  0.93233  1.0000
  Fe  Fe122     1.0  0.40871  0.42737  0.91450  1.0000
  S   S257      1.0  0.41682  0.40412  0.93966  1.0000
  S   S258      1.0  0.38584  0.42498  0.89689  1.0000
  C   C1950     1.0  0.33404  0.19151  0.73883  1.0000
  Fe  Fe123     1.0  0.44672  0.41432  0.93202  1.0000
  S   S259      1.0  0.47688  0.39480  0.93151  1.0000
  S   S260      1.0  0.39801  0.45235  0.93203  1.0000
  S   S261      1.0  0.43960  0.43517  0.90506  1.0000
  Fe  Fe124     1.0  0.56978  0.44232  0.92879  1.0000
  C   C1951     1.0  0.45620  0.11421  0.78492  1.0000
  Fe  Fe125     1.0  0.60892  0.41557  0.93259  1.0000
  S   S262      1.0  0.62592  0.43358  0.90720  1.0000
  H   H1552     1.0  0.58515  0.36728  0.88666  1.0000
  Fe  Fe126     1.0  0.59979  0.43515  0.89278  1.0000
  S   S263      1.0  0.60201  0.43434  0.86113  1.0000
  S   S264      1.0  0.58435  0.41445  0.91676  1.0000
  Fe  Fe127     1.0  0.60310  0.17378  0.78651  1.0000
  C   C1952     1.0  0.46892  0.01556  0.86825  1.0000
  S   S265      1.0  0.61315  0.14332  0.80269  1.0000
  Fe  Fe128     1.0  0.60545  0.21805  0.78168  1.0000
  H   H1553     1.0  0.63035  0.34098  0.89778  1.0000
  Fe  Fe129     1.0  0.56751  0.20387  0.77654  1.0000
  H   H1554     1.0  0.43684  0.14177  0.92678  1.0000
  S   S266      1.0  0.58455  0.19867  0.80133  1.0000
  S   S267      1.0  0.62556  0.19256  0.76844  1.0000
  S   S268      1.0  0.42853  0.19584  0.77278  1.0000
  S   S269      1.0  0.38798  0.18725  0.76004  1.0000
  Fe  Fe130     1.0  0.40445  0.21308  0.75652  1.0000
  C   C1953     1.0  0.59128  0.99520  0.87556  1.0000
  Fe  Fe131     1.0  0.41364  0.16935  0.77388  1.0000
  S   S270      1.0  0.40824  0.14679  0.80100  1.0000
  Fe  Fe132     1.0  0.36276  0.34318  0.85259  1.0000
  S   S271      1.0  0.35887  0.31384  0.87182  1.0000
  S   S272      1.0  0.39199  0.35449  0.84959  1.0000
  S   S273      1.0  0.58332  0.46310  0.90356  1.0000
  C   C1954     1.0  0.32258  0.31582  0.93266  1.0000
  H   H1555     1.0  0.53806  0.03863  0.79178  1.0000
  Fe  Fe133     1.0  0.34710  0.30685  0.84705  1.0000
  S   S274      1.0  0.35820  0.27489  0.84137  1.0000
  H   H1556     1.0  0.41837  0.27485  0.84984  1.0000
  S   S275      1.0  0.35324  0.33526  0.82706  1.0000
  C   C1955     1.0  0.45016  0.23290  0.86404  1.0000
  C   C1956     1.0  0.38224  0.25320  0.78257  1.0000
  C   C1957     1.0  0.38239  0.23979  0.80001  1.0000
  C   C1958     1.0  0.37521  0.24673  0.81790  1.0000
  C   C1959     1.0  0.36796  0.26713  0.81852  1.0000
  C   C1960     1.0  0.36840  0.28063  0.80108  1.0000
  C   C1961     1.0  0.37544  0.27363  0.78320  1.0000
  H   H1557     1.0  0.38758  0.22403  0.79967  1.0000
  H   H1558     1.0  0.37497  0.23618  0.83130  1.0000
  H   H1559     1.0  0.36297  0.29636  0.80137  1.0000
  H   H1560     1.0  0.37530  0.28399  0.76973  1.0000
  H   H1561     1.0  0.51896  0.19466  0.72453  1.0000
  C   C1962     1.0  0.53838  0.10684  0.74729  1.0000
  C   C1963     1.0  0.57590  0.29670  0.95465  1.0000
  H   H1562     1.0  0.49436  0.20020  0.79379  1.0000
  C   C1964     1.0  0.52187  0.14434  0.72927  1.0000
  Fe  Fe134     1.0  0.32758  0.32836  0.88155  1.0000
  H   H1563     1.0  0.33724  0.39564  0.81065  1.0000
  C   C1965     1.0  0.61217  0.40697  0.83662  1.0000
  C   C1966     1.0  0.61315  0.41093  0.85490  1.0000
  C   C1967     1.0  0.44516  0.02666  0.95833  1.0000
  H   H1564     1.0  0.44521  0.12152  0.77586  1.0000
  H   H1565     1.0  0.63103  0.45864  0.86483  1.0000
  C   C1968     1.0  0.38836  0.40560  0.88331  1.0000
  C   C1969     1.0  0.40604  0.39199  0.88045  1.0000
  C   C1970     1.0  0.40733  0.37665  0.86955  1.0000
  C   C1971     1.0  0.39085  0.37477  0.86173  1.0000
  C   C1972     1.0  0.37335  0.38865  0.86431  1.0000
  C   C1973     1.0  0.37212  0.40397  0.87510  1.0000
  H   H1566     1.0  0.41865  0.39339  0.88656  1.0000
  H   H1567     1.0  0.42090  0.36595  0.86757  1.0000
  H   H1568     1.0  0.36068  0.38748  0.85815  1.0000
  H   H1569     1.0  0.35847  0.41456  0.87718  1.0000
  C   C1974     1.0  0.49452  0.40980  0.93228  1.0000
  C   C1975     1.0  0.51380  0.40122  0.93578  1.0000
  C   C1976     1.0  0.52733  0.41347  0.93729  1.0000
  C   C1977     1.0  0.52147  0.43427  0.93552  1.0000
  C   C1978     1.0  0.50228  0.44263  0.93202  1.0000
  C   C1979     1.0  0.48907  0.43057  0.92992  1.0000
  H   H1570     1.0  0.51817  0.38515  0.93756  1.0000
  H   H1571     1.0  0.54206  0.40684  0.94030  1.0000
  H   H1572     1.0  0.47461  0.43751  0.92648  1.0000
  C   C1980     1.0  0.44963  0.14990  0.84221  1.0000
  C   C1981     1.0  0.43317  0.13999  0.84909  1.0000
  C   C1982     1.0  0.42088  0.13828  0.83623  1.0000
  C   C1983     1.0  0.42514  0.14636  0.81649  1.0000
  C   C1984     1.0  0.44230  0.15514  0.80948  1.0000
  C   C1985     1.0  0.45437  0.15715  0.82234  1.0000
  H   H1573     1.0  0.42945  0.13439  0.86443  1.0000
  H   H1574     1.0  0.40769  0.13136  0.84168  1.0000
  H   H1575     1.0  0.44620  0.16057  0.79415  1.0000
  H   H1576     1.0  0.46718  0.16464  0.81684  1.0000
  C   C1986     1.0  0.56777  0.10609  0.84090  1.0000
  C   C1987     1.0  0.58746  0.09742  0.83486  1.0000
  C   C1988     1.0  0.60096  0.10894  0.82270  1.0000
  C   C1989     1.0  0.59487  0.12921  0.81611  1.0000
  C   C1990     1.0  0.57499  0.13791  0.82165  1.0000
  C   C1991     1.0  0.56143  0.12634  0.83420  1.0000
  H   H1577     1.0  0.59241  0.08176  0.83986  1.0000
  H   H1578     1.0  0.61629  0.10218  0.81851  1.0000
  H   H1579     1.0  0.57037  0.15370  0.81695  1.0000
  H   H1580     1.0  0.54623  0.13310  0.83886  1.0000
  C   C1992     1.0  0.47315  0.04146  0.89263  1.0000
  C   C1993     1.0  0.46881  0.04923  0.87404  1.0000
  C   C1994     1.0  0.46641  0.03631  0.86200  1.0000
  C   C1995     1.0  0.47542  0.02073  0.89902  1.0000
  H   H1581     1.0  0.46687  0.06521  0.86911  1.0000
  H   H1582     1.0  0.46278  0.04236  0.84770  1.0000
  H   H1583     1.0  0.47855  0.01470  0.91349  1.0000
  C   C1996     1.0  0.51221  0.11774  0.95376  1.0000
  C   C1997     1.0  0.52654  0.10132  0.94920  1.0000
  C   C1998     1.0  0.36015  0.15027  0.75344  1.0000
  Fe  Fe135     1.0  0.60810  0.45998  0.92023  1.0000
  H   H1584     1.0  0.53537  0.41365  0.89780  1.0000
  H   H1585     1.0  0.40560  0.30661  0.73601  1.0000
  H   H1586     1.0  0.52892  0.09714  0.93497  1.0000
  H   H1587     1.0  0.33791  0.26115  0.88572  1.0000
  C   C1999     1.0  0.54538  0.98404  0.88923  1.0000
  H   H1588     1.0  0.60482  0.41836  0.82650  1.0000
  S   S276      1.0  0.43805  0.43731  0.95188  1.0000
  H   H1589     1.0  0.56400  0.34594  0.94020  1.0000
  C   C2000     1.0  0.45062  0.22714  0.79675  1.0000
  C   C2001     1.0  0.48617  0.27228  0.77328  1.0000
  H   H1590     1.0  0.58726  0.36888  0.94081  1.0000
  H   H1591     1.0  0.62042  0.36618  0.91965  1.0000
  H   H1592     1.0  0.53834  0.28693  0.93525  1.0000
  H   H1593     1.0  0.48018  0.09390  0.94415  1.0000
  H   H1594     1.0  0.39437  0.25153  0.86076  1.0000
  H   H1595     1.0  0.36062  0.19800  0.87677  1.0000
  C   C2002     1.0  0.57515  0.14641  0.86750  1.0000
  C   C2003     1.0  0.59376  0.14726  0.85566  1.0000
  C   C2004     1.0  0.59953  0.16575  0.84734  1.0000
  C   C2005     1.0  0.58679  0.18345  0.85097  1.0000
  C   C2006     1.0  0.56794  0.18276  0.86267  1.0000
  C   C2007     1.0  0.56233  0.16406  0.87113  1.0000
  P   P66       1.0  0.55163  0.20562  0.86781  1.0000
  C   C2008     1.0  0.52620  0.20073  0.87352  1.0000
  C   C2009     1.0  0.55821  0.21308  0.88840  1.0000
  C   C2010     1.0  0.55449  0.23331  0.89071  1.0000
  C   C2011     1.0  0.56009  0.23906  0.90640  1.0000
  C   C2012     1.0  0.56905  0.22464  0.92008  1.0000
  C   C2013     1.0  0.57228  0.20444  0.91816  1.0000
  C   C2014     1.0  0.56690  0.19868  0.90239  1.0000
  C   C2015     1.0  0.51931  0.19058  0.86151  1.0000
  C   C2016     1.0  0.50014  0.18559  0.86644  1.0000
  C   C2017     1.0  0.48788  0.19006  0.88368  1.0000
  C   C2018     1.0  0.49456  0.20017  0.89574  1.0000
  C   C2019     1.0  0.51360  0.20559  0.89066  1.0000
  C   C2020     1.0  0.55513  0.22469  0.84653  1.0000
  C   C2021     1.0  0.54332  0.22775  0.83198  1.0000
  C   C2022     1.0  0.54704  0.24168  0.81511  1.0000
  C   C2023     1.0  0.56249  0.25274  0.81262  1.0000
  C   C2024     1.0  0.57411  0.25003  0.82710  1.0000
  C   C2025     1.0  0.57066  0.23592  0.84386  1.0000
  H   H1596     1.0  0.57044  0.13204  0.87338  1.0000
  H   H1597     1.0  0.60349  0.13360  0.85239  1.0000
  H   H1598     1.0  0.61368  0.16632  0.83753  1.0000
  H   H1599     1.0  0.59161  0.19756  0.84424  1.0000
  H   H1600     1.0  0.54798  0.16298  0.88033  1.0000
  H   H1601     1.0  0.54747  0.24465  0.88029  1.0000
  H   H1602     1.0  0.55765  0.25472  0.90788  1.0000
  H   H1603     1.0  0.57351  0.22911  0.93215  1.0000
  H   H1604     1.0  0.57909  0.19320  0.92882  1.0000
  H   H1605     1.0  0.56963  0.18301  0.90110  1.0000
  H   H1606     1.0  0.52898  0.18602  0.84859  1.0000
  H   H1607     1.0  0.49500  0.17758  0.85723  1.0000
  H   H1608     1.0  0.35454  0.39879  0.92985  1.0000
  H   H1609     1.0  0.48512  0.20337  0.90926  1.0000
  H   H1610     1.0  0.51857  0.21309  0.90039  1.0000
  H   H1611     1.0  0.53164  0.21909  0.83308  1.0000
  H   H1612     1.0  0.53840  0.24334  0.80362  1.0000
  H   H1613     1.0  0.56595  0.26292  0.79919  1.0000
  H   H1614     1.0  0.58641  0.25828  0.82486  1.0000
  H   H1615     1.0  0.58058  0.23336  0.85435  1.0000
  H   H1616     1.0  0.35100  0.18485  0.85065  1.0000
  H   H1617     1.0  0.50434  0.24309  0.77260  1.0000
  C   C2026     1.0  0.55158  0.46571  0.79942  1.0000
  C   C2027     1.0  0.32573  0.36871  0.75109  1.0000
  P   P67       1.0  0.59368  0.13058  0.93014  1.0000
  H   H1618     1.0  0.63891  0.36606  0.87255  1.0000
  C   C2028     1.0  0.49161  0.01323  0.96053  1.0000
  C   C2029     1.0  0.59486  0.27106  0.87326  1.0000
  C   C2030     1.0  0.43083  0.01726  0.92752  1.0000
  C   C2031     1.0  0.43075  0.03722  0.92884  1.0000
  C   C2032     1.0  0.43776  0.04195  0.94424  1.0000
  C   C2033     1.0  0.39854  0.19045  0.82961  1.0000
  H   H1619     1.0  0.41941  0.13692  0.90126  1.0000
  H   H1620     1.0  0.44210  0.20389  0.87521  1.0000
  C   C2034     1.0  0.51352  0.19582  0.73969  1.0000
  H   H1621     1.0  0.42315  0.25367  0.72963  1.0000
  C   C2035     1.0  0.53117  0.46486  0.80465  1.0000
  H   H1622     1.0  0.34034  0.39467  0.74680  1.0000
  H   H1623     1.0  0.42597  0.01363  0.91524  1.0000
  H   H1624     1.0  0.42595  0.04902  0.91749  1.0000
  H   H1625     1.0  0.43787  0.05750  0.94470  1.0000
  C   C2036     1.0  0.36042  0.23680  0.92391  1.0000
  C   C2037     1.0  0.51540  0.13797  0.74904  1.0000
  C   C2038     1.0  0.52341  0.11904  0.75820  1.0000
  P   P68       1.0  0.51603  0.11175  0.78415  1.0000
  C   C2039     1.0  0.51957  0.13164  0.79558  1.0000
  C   C2040     1.0  0.49032  0.10780  0.79091  1.0000
  C   C2041     1.0  0.48411  0.09637  0.80900  1.0000
  C   C2042     1.0  0.46413  0.09396  0.81499  1.0000
  C   C2043     1.0  0.45017  0.10292  0.80296  1.0000
  S   S277      1.0  0.62529  0.38719  0.94702  1.0000
  C   C2044     1.0  0.47618  0.11668  0.77887  1.0000
  C   C2045     1.0  0.53533  0.14238  0.78743  1.0000
  C   C2046     1.0  0.53778  0.15825  0.79575  1.0000
  C   C2047     1.0  0.52474  0.16347  0.81230  1.0000
  C   C2048     1.0  0.50936  0.15254  0.82078  1.0000
  C   C2049     1.0  0.50672  0.13668  0.81248  1.0000
  H   H1626     1.0  0.60693  0.11194  0.73931  1.0000
  H   H1627     1.0  0.50436  0.14802  0.75723  1.0000
  H   H1628     1.0  0.49462  0.08974  0.81873  1.0000
  H   H1629     1.0  0.45936  0.08548  0.82913  1.0000
  C   C2050     1.0  0.42914  0.15461  0.91829  1.0000
  H   H1630     1.0  0.54534  0.09248  0.75397  1.0000
  H   H1631     1.0  0.48029  0.12576  0.76498  1.0000
  H   H1632     1.0  0.52653  0.17610  0.81835  1.0000
  H   H1633     1.0  0.49930  0.15648  0.83363  1.0000
  H   H1634     1.0  0.49448  0.12869  0.81921  1.0000
  H   H1635     1.0  0.54839  0.10243  0.80769  1.0000
  H   H1636     1.0  0.60662  0.31981  0.89526  1.0000
  C   C2051     1.0  0.51916  0.20233  0.77039  1.0000
  H   H1637     1.0  0.40199  0.28870  0.82089  1.0000
  H   H1638     1.0  0.50658  0.01210  0.83346  1.0000
  P   P69       1.0  0.52729  0.43078  0.85878  1.0000
  C   C2052     1.0  0.50643  0.41869  0.85880  1.0000
  C   C2053     1.0  0.50427  0.25897  0.77137  1.0000
  C   C2054     1.0  0.57645  0.28319  0.87159  1.0000
  C   C2055     1.0  0.57380  0.37901  0.88146  1.0000
  H   H1639     1.0  0.43456  0.10155  0.80778  1.0000
  H   H1640     1.0  0.61916  0.09543  0.87339  1.0000
  H   H1641     1.0  0.57595  0.13984  0.96938  1.0000
  C   C2056     1.0  0.49342  0.41393  0.87628  1.0000
  C   C2057     1.0  0.47737  0.40430  0.87655  1.0000
  C   C2058     1.0  0.47426  0.39919  0.85945  1.0000
  C   C2059     1.0  0.48757  0.40323  0.84213  1.0000
  C   C2060     1.0  0.50375  0.41274  0.84183  1.0000
  C   C2061     1.0  0.54567  0.41069  0.86760  1.0000
  C   C2062     1.0  0.51129  0.00353  0.96031  1.0000
  H   H1642     1.0  0.52073  0.99152  0.91214  1.0000
  H   H1643     1.0  0.48534  0.01586  0.94732  1.0000
  C   C2063     1.0  0.54617  0.15488  0.96756  1.0000
  C   C2064     1.0  0.64571  0.25023  0.84077  1.0000
  H   H1644     1.0  0.49558  0.41774  0.88972  1.0000
  H   H1645     1.0  0.46728  0.40097  0.89008  1.0000
  H   H1646     1.0  0.46154  0.39211  0.85964  1.0000
  H   H1647     1.0  0.48528  0.39905  0.82891  1.0000
  H   H1648     1.0  0.51411  0.41542  0.82837  1.0000
  H   H1649     1.0  0.32181  0.19833  0.76782  1.0000
  H   H1650     1.0  0.55867  0.40269  0.83920  1.0000
  C   C2065     1.0  0.47334  0.24020  0.72584  1.0000
  C   C2066     1.0  0.54592  0.40543  0.88759  1.0000
  C   C2067     1.0  0.40946  0.16843  0.89284  1.0000
  H   H1651     1.0  0.38932  0.38355  0.92747  1.0000
  C   C2068     1.0  0.60804  0.11096  0.89798  1.0000
  S   S278      1.0  0.42195  0.20706  0.72737  1.0000
  H   H1652     1.0  0.34103  0.10092  0.77897  1.0000
  C   C2069     1.0  0.42822  0.25742  0.91860  1.0000
  C   C2070     1.0  0.41379  0.25489  0.90853  1.0000
  C   C2071     1.0  0.39898  0.27087  0.90370  1.0000
  C   C2072     1.0  0.39854  0.28944  0.90896  1.0000
  C   C2073     1.0  0.41295  0.29216  0.91916  1.0000
  C   C2074     1.0  0.42780  0.27599  0.92394  1.0000
  P   P70       1.0  0.41221  0.31580  0.92690  1.0000
  C   C2075     1.0  0.38846  0.33113  0.92423  1.0000
  C   C2076     1.0  0.55723  0.44525  0.83017  1.0000
  H   H1653     1.0  0.34755  0.29928  0.91607  1.0000
  S   S279      1.0  0.59297  0.44180  0.94688  1.0000
  C   C2077     1.0  0.34708  0.19701  0.72160  1.0000
  C   C2078     1.0  0.34054  0.14810  0.75308  1.0000
  H   H1654     1.0  0.32556  0.38037  0.78737  1.0000
  C   C2079     1.0  0.38473  0.34021  0.90562  1.0000
  C   C2080     1.0  0.36578  0.35046  0.90312  1.0000
  C   C2081     1.0  0.35068  0.35245  0.91913  1.0000
  C   C2082     1.0  0.35443  0.34392  0.93773  1.0000
  C   C2083     1.0  0.37313  0.33300  0.94031  1.0000
  C   C2084     1.0  0.43169  0.32908  0.91254  1.0000
  C   C2085     1.0  0.44809  0.31931  0.90093  1.0000
  C   C2086     1.0  0.46354  0.32961  0.89075  1.0000
  C   C2087     1.0  0.46278  0.34967  0.89219  1.0000
  C   C2088     1.0  0.57592  0.01021  0.86959  1.0000
  C   C2089     1.0  0.43076  0.34941  0.91339  1.0000
  H   H1655     1.0  0.43956  0.24494  0.92251  1.0000
  H   H1656     1.0  0.41396  0.24053  0.90459  1.0000
  H   H1657     1.0  0.38764  0.26887  0.89605  1.0000
  H   H1658     1.0  0.38664  0.30138  0.90533  1.0000
  H   H1659     1.0  0.43884  0.27770  0.93206  1.0000
  C   C2090     1.0  0.51018  0.04159  0.83652  1.0000
  C   C2091     1.0  0.60676  0.09862  0.88494  1.0000
  H   H1660     1.0  0.43171  0.26401  0.81236  1.0000
  H   H1661     1.0  0.63204  0.18327  0.93242  1.0000
  H   H1662     1.0  0.39618  0.33860  0.89292  1.0000
  H   H1663     1.0  0.36258  0.35642  0.88872  1.0000
  C   C2092     1.0  0.34631  0.11476  0.77194  1.0000
  H   H1664     1.0  0.58817  0.30513  0.95138  1.0000
  H   H1665     1.0  0.64465  0.28109  0.82740  1.0000
  H   H1666     1.0  0.44902  0.30380  0.89964  1.0000
  H   H1667     1.0  0.47614  0.32203  0.88177  1.0000
  H   H1668     1.0  0.47484  0.35758  0.88449  1.0000
  H   H1669     1.0  0.34266  0.34520  0.95013  1.0000
  C   C2093     1.0  0.34158  0.29897  0.96509  1.0000
  C   C2094     1.0  0.36781  0.35471  0.72371  1.0000
  H   H1670     1.0  0.55728  0.47414  0.78557  1.0000
  H   H1671     1.0  0.51545  0.15892  0.72235  1.0000
  H   H1672     1.0  0.32562  0.42090  0.92267  1.0000
  C   C2095     1.0  0.36574  0.34382  0.74264  1.0000
  C   C2096     1.0  0.37972  0.32666  0.74703  1.0000
  P   P71       1.0  0.34555  0.35160  0.76143  1.0000
  C   C2097     1.0  0.52249  0.26591  0.76799  1.0000
  C   C2098     1.0  0.52984  0.47180  0.89233  1.0000
  C   C2099     1.0  0.59176  0.11557  0.91261  1.0000
  C   C2100     1.0  0.42350  0.25938  0.85556  1.0000
  C   C2101     1.0  0.33537  0.32973  0.77489  1.0000
  C   C2102     1.0  0.47599  0.24627  0.74266  1.0000
  C   C2103     1.0  0.35456  0.36385  0.77753  1.0000
  C   C2104     1.0  0.37474  0.35992  0.77958  1.0000
  C   C2105     1.0  0.38129  0.36866  0.79285  1.0000
  C   C2106     1.0  0.36782  0.38156  0.80403  1.0000
  C   C2107     1.0  0.34782  0.38593  0.80175  1.0000
  C   C2108     1.0  0.34122  0.37715  0.78856  1.0000
  H   H1673     1.0  0.45037  0.99462  0.96790  1.0000
  H   H1674     1.0  0.59570  0.14856  0.73578  1.0000
  H   H1675     1.0  0.37852  0.31820  0.76162  1.0000
  C   C2109     1.0  0.64099  0.26673  0.82667  1.0000
  C   C2110     1.0  0.37123  0.19627  0.86353  1.0000
  C   C2111     1.0  0.53402  0.02199  0.86427  1.0000
  C   C2112     1.0  0.55897  0.39930  0.85466  1.0000
  H   H1676     1.0  0.38541  0.34992  0.77124  1.0000
  H   H1677     1.0  0.39673  0.36512  0.79488  1.0000
  H   H1678     1.0  0.37279  0.38783  0.81474  1.0000
  H   H1679     1.0  0.48667  0.21808  0.83387  1.0000
  C   C2113     1.0  0.34825  0.25057  0.89378  1.0000
  C   C2114     1.0  0.52879  0.35702  0.88966  1.0000
  C   C2115     1.0  0.51208  0.35998  0.90409  1.0000
  C   C2116     1.0  0.51160  0.34828  0.92250  1.0000
  C   C2117     1.0  0.52788  0.33363  0.92657  1.0000
  C   C2118     1.0  0.54466  0.33034  0.91205  1.0000
  C   C2119     1.0  0.54508  0.34237  0.89366  1.0000
  P   P72       1.0  0.56707  0.31387  0.91772  1.0000
  C   C2120     1.0  0.56314  0.29820  0.94119  1.0000
  C   C2121     1.0  0.57739  0.29676  0.90049  1.0000
  S   S280      1.0  0.33230  0.35835  0.86412  1.0000
  H   H1680     1.0  0.61874  0.26212  0.88985  1.0000
  H   H1681     1.0  0.38761  0.13699  0.76382  1.0000
  C   C2122     1.0  0.33117  0.20257  0.75411  1.0000
  C   C2123     1.0  0.56766  0.29592  0.88520  1.0000
  H   H1682     1.0  0.63549  0.15978  0.72682  1.0000
  H   H1683     1.0  0.51695  0.16891  0.96175  1.0000
  C   C2124     1.0  0.47087  0.08724  0.95698  1.0000
  H   H1684     1.0  0.60314  0.47513  0.95758  1.0000
  C   C2125     1.0  0.54802  0.28632  0.94563  1.0000
  C   C2126     1.0  0.58392  0.33062  0.91810  1.0000
  C   C2127     1.0  0.57837  0.34486  0.93072  1.0000
  C   C2128     1.0  0.59143  0.35784  0.93114  1.0000
  C   C2129     1.0  0.61014  0.35642  0.91922  1.0000
  C   C2130     1.0  0.61567  0.34233  0.90669  1.0000
  C   C2131     1.0  0.60242  0.32985  0.90575  1.0000
  H   H1685     1.0  0.52940  0.36655  0.87559  1.0000
  H   H1686     1.0  0.49969  0.37171  0.90123  1.0000
  H   H1687     1.0  0.49879  0.35111  0.93379  1.0000
  H   H1688     1.0  0.52752  0.32546  0.94120  1.0000
  H   H1689     1.0  0.55829  0.34087  0.88257  1.0000
  H   H1690     1.0  0.41917  0.20084  0.84256  1.0000
  H   H1691     1.0  0.61949  0.18112  0.87620  1.0000
  H   H1692     1.0  0.35932  0.23665  0.93938  1.0000
  C   C2132     1.0  0.60855  0.15888  0.89962  1.0000
  H   H1693     1.0  0.55345  0.30515  0.88355  1.0000
  C   C2133     1.0  0.46328  0.24101  0.79572  1.0000
  H   H1694     1.0  0.56956  0.03843  0.85045  1.0000
  H   H1695     1.0  0.55036  0.44873  0.87909  1.0000
  C   C2134     1.0  0.52285  0.28628  0.76672  1.0000
  H   H1696     1.0  0.54967  0.16675  0.78922  1.0000
  H   H1697     1.0  0.49757  0.45859  0.93073  1.0000
  S   S281      1.0  0.53700  0.45013  0.93920  1.0000
  C   C2135     1.0  0.45963  0.25542  0.75484  1.0000
  Fe  Fe136     1.0  0.42961  0.45775  0.92520  1.0000
  C   C2136     1.0  0.62274  0.39617  0.86795  1.0000
  H   H1698     1.0  0.62357  0.39928  0.88206  1.0000
  S   S282      1.0  0.53378  0.20992  0.78456  1.0000
  H   H1699     1.0  0.56923  0.28298  0.85947  1.0000
  H   H1700     1.0  0.57605  0.01493  0.90759  1.0000
  C   C2137     1.0  0.62944  0.37317  0.84467  1.0000
  S   S283      1.0  0.61522  0.24460  0.79034  1.0000
  C   C2138     1.0  0.61582  0.01176  0.85199  1.0000
  C   C2139     1.0  0.53496  0.45603  0.88160  1.0000
  H   H1701     1.0  0.56009  0.08787  0.90304  1.0000
  C   C2140     1.0  0.62705  0.24608  0.80995  1.0000
  C   C2141     1.0  0.63120  0.37734  0.86269  1.0000
  H   H1702     1.0  0.37541  0.10545  0.78016  1.0000
  H   H1703     1.0  0.56015  0.38573  0.90995  1.0000
  C   C2142     1.0  0.48667  0.29273  0.77223  1.0000
  C   C2143     1.0  0.56501  0.14536  0.95988  1.0000
  H   H1704     1.0  0.54564  0.13869  0.77453  1.0000
  H   H1705     1.0  0.60203  0.26167  0.86239  1.0000
  H   H1706     1.0  0.36406  0.28414  0.94459  1.0000
  C   C2144     1.0  0.37925  0.38026  0.94101  1.0000
  C   C2145     1.0  0.62627  0.11115  0.94780  1.0000
  C   C2146     1.0  0.37715  0.22414  0.89410  1.0000
  C   C2147     1.0  0.49963  0.19927  0.77864  1.0000
  H   H1707     1.0  0.36220  0.23649  0.73351  1.0000
  H   H1708     1.0  0.53352  0.26454  0.96691  1.0000
  C   C2148     1.0  0.63145  0.22962  0.82425  1.0000
  H   H1709     1.0  0.62790  0.21527  0.82337  1.0000
  C   C2149     1.0  0.37256  0.13504  0.76339  1.0000
  C   C2150     1.0  0.43772  0.00199  0.94175  1.0000
  S   S284      1.0  0.38964  0.24506  0.75968  1.0000
  H   H1710     1.0  0.52104  0.47275  0.79490  1.0000
  S   S285      1.0  0.63819  0.34950  0.83796  1.0000
  P   P73       1.0  0.46281  0.26277  0.77701  1.0000
  S   S286      1.0  0.47820  0.18798  0.73323  1.0000
  H   H1711     1.0  0.62171  0.11687  0.89663  1.0000
  C   C2151     1.0  0.54600  0.08871  0.80392  1.0000
  H   H1712     1.0  0.47200  0.19234  0.77413  1.0000
  C   C2152     1.0  0.36312  0.23742  0.88410  1.0000
  S   S287      1.0  0.58457  0.17733  0.76328  1.0000
  H   H1713     1.0  0.33033  0.28288  0.76969  1.0000
  H   H1714     1.0  0.41809  0.35734  0.92194  1.0000
  H   H1715     1.0  0.45418  0.26324  0.85167  1.0000
  H   H1716     1.0  0.36394  0.23807  0.86862  1.0000
  C   C2153     1.0  0.62698  0.18393  0.90339  1.0000
  H   H1717     1.0  0.62287  0.98416  0.87119  1.0000
  H   H1718     1.0  0.38104  0.99388  0.74069  1.0000
  Fe  Fe137     1.0  0.40715  0.17974  0.73197  1.0000
  H   H1719     1.0  0.33929  0.22710  0.76402  1.0000
  C   C2154     1.0  0.42888  0.27766  0.80223  1.0000
  C   C2155     1.0  0.47351  0.00776  0.88678  1.0000
  C   C2156     1.0  0.39035  0.20130  0.86117  1.0000
  H   H1720     1.0  0.56746  0.43837  0.84015  1.0000
  C   C2157     1.0  0.47588  0.23795  0.80958  1.0000
  C   C2158     1.0  0.57470  0.10668  0.91469  1.0000
  C   C2159     1.0  0.48698  0.19472  0.76751  1.0000
  C   C2160     1.0  0.53176  0.16217  0.95564  1.0000
  C   C2161     1.0  0.53143  0.08877  0.79276  1.0000
  C   C2162     1.0  0.34698  0.25037  0.91366  1.0000
  H   H1721     1.0  0.40227  0.16583  0.88159  1.0000
  C   C2163     1.0  0.52379  0.45410  0.82259  1.0000
  H   H1722     1.0  0.50073  0.04912  0.82601  1.0000
  C   C2164     1.0  0.39518  0.32015  0.73259  1.0000
  S   S288      1.0  0.58681  0.22526  0.75781  1.0000
  C   C2165     1.0  0.57346  0.09436  0.90166  1.0000
  H   H1723     1.0  0.54106  0.47621  0.89851  1.0000
  H   H1724     1.0  0.56922  0.03197  0.93623  1.0000
  H   H1725     1.0  0.53498  0.04876  0.94762  1.0000
  H   H1726     1.0  0.41649  0.32633  0.76615  1.0000
  H   H1727     1.0  0.32367  0.34258  0.80114  1.0000
  C   C2166     1.0  0.35921  0.38884  0.94238  1.0000
  C   C2167     1.0  0.60733  0.15098  0.91947  1.0000
  H   H1728     1.0  0.53631  0.25539  0.76629  1.0000
  H   H1729     1.0  0.47531  0.99180  0.89175  1.0000
  P   P74       1.0  0.55029  0.00942  0.88135  1.0000
  Fe  Fe138     1.0  0.40743  0.42950  0.95672  1.0000
  Fe  Fe139     1.0  0.60544  0.19807  0.74610  1.0000
  H   H1730     1.0  0.65132  0.09604  0.96153  1.0000
  C   C2168     1.0  0.55724  0.03176  0.92861  1.0000
  C   C2169     1.0  0.53799  0.04122  0.93504  1.0000
  H   H1731     1.0  0.48564  0.24851  0.80928  1.0000
  C   C2170     1.0  0.60071  0.02699  0.84625  1.0000
  C   C2171     1.0  0.60427  0.27130  0.88879  1.0000
  C   C2172     1.0  0.44363  0.25286  0.85670  1.0000
  H   H1732     1.0  0.56858  0.07078  0.81946  1.0000
  C   C2173     1.0  0.44481  0.00666  0.95713  1.0000
  C   C2174     1.0  0.40984  0.24604  0.86197  1.0000
  C   C2175     1.0  0.52028  0.44977  0.87422  1.0000
  H   H1733     1.0  0.38556  0.21344  0.92257  1.0000
  C   C2176     1.0  0.46849  0.06725  0.95908  1.0000
  C   C2177     1.0  0.55761  0.07071  0.81060  1.0000
  C   C2178     1.0  0.34068  0.30271  0.93033  1.0000
  C   C2179     1.0  0.59434  0.10131  0.96309  1.0000
  C   C2180     1.0  0.52863  0.07059  0.78845  1.0000
  C   C2181     1.0  0.52255  0.04093  0.92525  1.0000
  H   H1734     1.0  0.32760  0.13202  0.72503  1.0000
  H   H1735     1.0  0.50763  0.04824  0.93019  1.0000
  C   C2182     1.0  0.42945  0.17390  0.92140  1.0000
  C   C2183     1.0  0.37539  0.22367  0.91423  1.0000
  C   C2184     1.0  0.40409  0.19797  0.84427  1.0000
  H   H1736     1.0  0.40912  0.18788  0.81655  1.0000
  C   C2185     1.0  0.60312  0.12016  0.72561  1.0000
  C   C2186     1.0  0.56457  0.45601  0.81224  1.0000
  C   C2187     1.0  0.41978  0.19048  0.91025  1.0000
  S   S289      1.0  0.43173  0.15998  0.74625  1.0000
  C   C2188     1.0  0.56104  0.02216  0.91230  1.0000
  H   H1737     1.0  0.33596  0.36008  0.91702  1.0000
  S   S290      1.0  0.46637  0.99991  0.85243  1.0000
  H   H1738     1.0  0.34341  0.31285  0.75089  1.0000
  C   C2189     1.0  0.52982  0.97979  0.90465  1.0000
  H   H1739     1.0  0.61886  0.38491  0.81760  1.0000
  C   C2190     1.0  0.57307  0.38359  0.86160  1.0000
  H   H1740     1.0  0.60327  0.28417  0.91419  1.0000
  H   H1741     1.0  0.40173  0.36130  0.95610  1.0000
  C   C2191     1.0  0.34572  0.38462  0.95966  1.0000
  C   C2192     1.0  0.53617  0.15997  0.93604  1.0000
  P   P75       1.0  0.39813  0.20950  0.88065  1.0000
  C   C2193     1.0  0.37942  0.18579  0.83187  1.0000
  C   C2194     1.0  0.52628  0.03141  0.90893  1.0000
  C   C2195     1.0  0.60558  0.11341  0.94852  1.0000
  C   C2196     1.0  0.62548  0.17643  0.92327  1.0000
  H   H1742     1.0  0.36519  0.47603  0.95638  1.0000
  C   C2197     1.0  0.54561  0.02216  0.90216  1.0000
  H   H1743     1.0  0.51406  0.03140  0.90155  1.0000
  H   H1744     1.0  0.63119  0.01230  0.84509  1.0000
  H   H1745     1.0  0.50525  0.31546  0.76801  1.0000
  H   H1746     1.0  0.58797  0.98298  0.88714  1.0000
  C   C2198     1.0  0.42466  0.32227  0.96006  1.0000
  H   H1747     1.0  0.44154  0.19926  0.81145  1.0000
  H   H1748     1.0  0.46409  0.19374  0.83558  1.0000
  C   C2199     1.0  0.63174  0.26464  0.81139  1.0000
  C   C2200     1.0  0.55490  0.15028  0.92839  1.0000
  H   H1749     1.0  0.55793  0.14839  0.91327  1.0000
  H   H1750     1.0  0.47338  0.18528  0.88780  1.0000
  C   C2201     1.0  0.45090  0.21020  0.81113  1.0000
  C   C2202     1.0  0.46369  0.20705  0.82467  1.0000
  H   H1751     1.0  0.62831  0.27750  0.80050  1.0000
  H   H1752     1.0  0.58034  0.45698  0.80845  1.0000
  H   H1753     1.0  0.63473  0.19655  0.89711  1.0000
  C   C2203     1.0  0.32332  0.31178  0.96748  1.0000
  H   H1754     1.0  0.44574  0.37509  0.90476  1.0000
  C   C2204     1.0  0.51863  0.05269  0.84623  1.0000
  Fe  Fe140     1.0  0.44501  0.18784  0.74405  1.0000
  C   C2205     1.0  0.52619  0.20031  0.75090  1.0000
  H   H1755     1.0  0.51732  0.07032  0.78002  1.0000
  C   C2206     1.0  0.61845  0.17520  0.89159  1.0000
  C   C2207     1.0  0.34105  0.21895  0.75204  1.0000
  C   C2208     1.0  0.47630  0.22084  0.82379  1.0000
  C   C2209     1.0  0.40956  0.18793  0.89593  1.0000
  C   C2210     1.0  0.49380  0.19319  0.74790  1.0000
  C   C2211     1.0  0.54039  0.05264  0.79502  1.0000
  H   H1756     1.0  0.46581  0.22777  0.86468  1.0000
  H   H1757     1.0  0.57846  0.10228  0.96358  1.0000
  C   C2212     1.0  0.58944  0.09041  0.88674  1.0000
  C   C2213     1.0  0.33373  0.13016  0.76234  1.0000
  C   C2214     1.0  0.38615  0.36767  0.95699  1.0000
  H   H1758     1.0  0.48910  0.45605  0.87101  1.0000
  H   H1759     1.0  0.56236  0.10921  0.92640  1.0000
  H   H1760     1.0  0.44580  0.30134  0.75687  1.0000
  H   H1761     1.0  0.54123  0.20263  0.74433  1.0000
  C   C2215     1.0  0.43658  0.21945  0.87026  1.0000
  C   C2216     1.0  0.55992  0.38959  0.89450  1.0000
  C   C2217     1.0  0.59550  0.28390  0.90248  1.0000
  H   H1762     1.0  0.47590  0.05865  0.94774  1.0000
  H   H1763     1.0  0.43178  0.33422  0.95097  1.0000
  S   S291      1.0  0.64381  0.30286  0.87886  1.0000
  C   C2218     1.0  0.53024  0.04299  0.86027  1.0000
  C   C2219     1.0  0.41458  0.31068  0.95229  1.0000
  C   C2220     1.0  0.61556  0.16011  0.93132  1.0000
  C   C2221     1.0  0.56938  0.14266  0.94030  1.0000
  H   H1764     1.0  0.36600  0.16364  0.74592  1.0000
  C   C2222     1.0  0.58086  0.02628  0.85503  1.0000
  H   H1765     1.0  0.53649  0.05190  0.86776  1.0000
  H   H1766     1.0  0.51633  0.06883  0.84281  1.0000
  C   C2223     1.0  0.49555  0.47572  0.88794  1.0000
  H   H1767     1.0  0.42736  0.26399  0.75951  1.0000
  H   H1768     1.0  0.49080  0.24316  0.74617  1.0000
  H   H1769     1.0  0.42059  0.20529  0.91259  1.0000
  C   C2224     1.0  0.41615  0.22609  0.86999  1.0000
  C   C2225     1.0  0.55484  0.05270  0.80614  1.0000
  H   H1770     1.0  0.52475  0.16503  0.92699  1.0000
  C   C2226     1.0  0.35001  0.29415  0.94653  1.0000
  H   H1771     1.0  0.56369  0.03875  0.81153  1.0000
  C   C2227     1.0  0.32553  0.32958  0.79417  1.0000
  H   H1772     1.0  0.43791  0.98650  0.94065  1.0000
  C   C2228     1.0  0.41922  0.15189  0.90399  1.0000
  H   H1773     1.0  0.61427  0.15465  0.94680  1.0000
  C   C2229     1.0  0.51360  0.02073  0.84061  1.0000
  C   C2230     1.0  0.62011  0.38807  0.83160  1.0000
  H   H1774     1.0  0.60168  0.15263  0.89037  1.0000
  C   C2231     1.0  0.33650  0.31297  0.76594  1.0000
  H   H1775     1.0  0.58374  0.37519  0.85155  1.0000
  H   H1776     1.0  0.58834  0.08095  0.87660  1.0000
  H   H1777     1.0  0.54972  0.07827  0.95918  1.0000
  H   H1778     1.0  0.44064  0.22930  0.78634  1.0000
  H   H1779     1.0  0.37539  0.17963  0.82053  1.0000
  H   H1780     1.0  0.47311  0.30340  0.77404  1.0000
  C   C2232     1.0  0.61112  0.99591  0.86668  1.0000
  C   C2233     1.0  0.41994  0.31278  0.77625  1.0000
  H   H1781     1.0  0.51985  0.99863  0.94710  1.0000
  H   H1782     1.0  0.37526  0.32589  0.95486  1.0000
  H   H1783     1.0  0.53702  0.29163  0.76400  1.0000
  C   C2234     1.0  0.53836  0.09071  0.96288  1.0000
  C   C2235     1.0  0.35396  0.22430  0.73481  1.0000
  C   C2236     1.0  0.50495  0.29967  0.76894  1.0000
  C   C2237     1.0  0.44149  0.28117  0.78419  1.0000
  H   H1784     1.0  0.50788  0.45405  0.82668  1.0000
  C   C2238     1.0  0.44049  0.25795  0.75002  1.0000
  C   C2239     1.0  0.40760  0.30926  0.79429  1.0000
  H   H1785     1.0  0.64437  0.21883  0.85033  1.0000
  C   C2240     1.0  0.41200  0.29166  0.80719  1.0000
  H   H1786     1.0  0.60436  0.03942  0.83501  1.0000
  C   C2241     1.0  0.43666  0.29869  0.77111  1.0000
  C   C2242     1.0  0.53686  0.44378  0.83524  1.0000
  C   C2243     1.0  0.43796  0.25198  0.73309  1.0000
  C   C2244     1.0  0.50061  0.46005  0.87709  1.0000
  C   C2245     1.0  0.63538  0.09763  0.96202  1.0000
  H   H1787     1.0  0.39446  0.31997  0.79830  1.0000
  H   H1788     1.0  0.52776  0.99474  0.85730  1.0000
  H   H1789     1.0  0.63540  0.11970  0.93624  1.0000
  C   C2246     1.0  0.32880  0.29601  0.77646  1.0000
  C   C2247     1.0  0.44639  0.35955  0.90353  1.0000
  C   C2248     1.0  0.36568  0.11727  0.77259  1.0000
  C   C2249     1.0  0.52550  0.01093  0.85438  1.0000
  C   C2250     1.0  0.59666  0.14080  0.72370  1.0000
  H   H1790     1.0  0.39574  0.13314  0.72562  1.0000
  C   C2251     1.0  0.64075  0.23171  0.83954  1.0000
  P   P76       1.0  0.32369  0.16867  0.74231  1.0000
  H   H1791     1.0  0.39703  0.28659  0.95930  1.0000
  C   C2252     1.0  0.54502  0.11342  0.72756  1.0000
  C   C2253     1.0  0.32715  0.38914  0.74552  1.0000
  C   C2254     1.0  0.64599  0.46234  0.86099  1.0000
  H   H1792     1.0  0.64840  0.32717  0.96231  1.0000
  C   C2255     1.0  0.54532  0.27357  0.96350  1.0000
  H   H1793     1.0  0.64778  0.46543  0.95033  1.0000
  H   H1794     1.0  0.61234  0.34640  0.96382  1.0000
  C   C2256     1.0  0.40547  0.29535  0.96472  1.0000
  H   H1795     1.0  0.33558  0.26076  0.92111  1.0000
  Fe  Fe141     1.0  0.32194  0.34849  0.83993  1.0000
  H   H1796     1.0  0.64840  0.38444  0.90313  1.0000
  C   C2257     1.0  0.46458  0.47795  0.96072  1.0000
  H   H1797     1.0  0.46335  0.11412  0.96972  1.0000
  C   C2258     1.0  0.45436  0.24307  0.72104  1.0000
  P   P77       1.0  0.31994  0.39642  0.96151  1.0000
  C   C2259     1.0  0.40426  0.72054  0.01447  1.0000
  S   S292      1.0  0.52157  0.93767  0.01730  1.0000
  C   C2260     1.0  0.48367  0.85324  0.20130  1.0000
  Fe  Fe142     1.0  0.47416  0.94603  0.05593  1.0000
  S   S293      1.0  0.47729  0.92470  0.03509  1.0000
  S   S294      1.0  0.44577  0.95241  0.07688  1.0000
  Fe  Fe143     1.0  0.50840  0.91587  0.04190  1.0000
  S   S295      1.0  0.52198  0.88378  0.04964  1.0000
  Fe  Fe144     1.0  0.48999  0.94871  0.01273  1.0000
  S   S296      1.0  0.50434  0.93560  0.06443  1.0000
  H   H1798     1.0  0.47192  0.52993  0.97405  1.0000
  H   H1799     1.0  0.45361  0.48541  0.06485  1.0000
  C   C2261     1.0  0.45227  0.86162  0.97097  1.0000
  S   S297      1.0  0.37478  0.60284  0.00889  1.0000
  S   S298      1.0  0.62557  0.61451  0.99597  1.0000
  H   H1800     1.0  0.52859  0.86921  0.18701  1.0000
  Fe  Fe145     1.0  0.59331  0.85588  0.12093  1.0000
  S   S299      1.0  0.58314  0.82615  0.12467  1.0000
  S   S300      1.0  0.59430  0.87814  0.09325  1.0000
  Fe  Fe146     1.0  0.60066  0.85086  0.16233  1.0000
  S   S301      1.0  0.59101  0.82055  0.16942  1.0000
  S   S302      1.0  0.60814  0.86187  0.18789  1.0000
  Fe  Fe147     1.0  0.60897  0.81484  0.14046  1.0000
  S   S303      1.0  0.62706  0.78412  0.13815  1.0000
  Fe  Fe148     1.0  0.56592  0.83430  0.15307  1.0000
  S   S304      1.0  0.53476  0.82786  0.16614  1.0000
  S   S305      1.0  0.62081  0.84398  0.13455  1.0000
  S   S306      1.0  0.57403  0.86502  0.14817  1.0000
  Fe  Fe149     1.0  0.43812  0.83576  0.11915  1.0000
  S   S307      1.0  0.41579  0.85908  0.13317  1.0000
  S   S308      1.0  0.47089  0.83901  0.11061  1.0000
  Fe  Fe150     1.0  0.40537  0.81479  0.11151  1.0000
  S   S309      1.0  0.38058  0.83669  0.12510  1.0000
  S   S310      1.0  0.40294  0.78771  0.09843  1.0000
  Fe  Fe151     1.0  0.39919  0.85998  0.10908  1.0000
  S   S311      1.0  0.38625  0.88988  0.09408  1.0000
  Fe  Fe152     1.0  0.39924  0.83398  0.14827  1.0000
  S   S312      1.0  0.38561  0.83067  0.18038  1.0000
  S   S313      1.0  0.42247  0.83855  0.09372  1.0000
  S   S314      1.0  0.42296  0.81013  0.13601  1.0000
  H   H1801     1.0  0.63079  0.52384  0.99149  1.0000
  H   H1802     1.0  0.34420  0.85353  0.17515  1.0000
  H   H1803     1.0  0.63644  0.82425  0.17717  1.0000
  C   C2262     1.0  0.58513  0.88259  0.02147  1.0000
  H   H1804     1.0  0.38766  0.87282  0.16640  1.0000
  C   C2263     1.0  0.62221  0.88081  0.18783  1.0000
  C   C2264     1.0  0.62932  0.89308  0.17076  1.0000
  C   C2265     1.0  0.52476  0.96912  0.13776  1.0000
  C   C2266     1.0  0.43012  0.93764  0.01724  1.0000
  H   H1805     1.0  0.62657  0.89090  0.15693  1.0000
  C   C2267     1.0  0.51671  0.83172  0.15090  1.0000
  C   C2268     1.0  0.49772  0.82654  0.15854  1.0000
  C   C2269     1.0  0.48339  0.82883  0.14643  1.0000
  C   C2270     1.0  0.48789  0.83662  0.12669  1.0000
  C   C2271     1.0  0.50678  0.84204  0.11917  1.0000
  C   C2272     1.0  0.52122  0.83938  0.13114  1.0000
  S   S315      1.0  0.32572  0.74396  0.97541  1.0000
  H   H1806     1.0  0.46903  0.82427  0.15227  1.0000
  H   H1807     1.0  0.51033  0.84827  0.10398  1.0000
  H   H1808     1.0  0.53587  0.84317  0.12509  1.0000
  C   C2273     1.0  0.38401  0.76692  0.08010  1.0000
  C   C2274     1.0  0.38340  0.78506  0.08665  1.0000
  H   H1809     1.0  0.39620  0.75484  0.08245  1.0000
  H   H1810     1.0  0.36671  0.81449  0.08861  1.0000
  H   H1811     1.0  0.62806  0.48841  0.00268  1.0000
  C   C2275     1.0  0.63508  0.77729  0.11481  1.0000
  H   H1812     1.0  0.64949  0.79579  0.03280  1.0000
  C   C2276     1.0  0.32575  0.82047  0.15671  1.0000
  Fe  Fe153     1.0  0.33699  0.70567  0.04178  1.0000
  C   C2277     1.0  0.62248  0.63575  0.00719  1.0000
  C   C2278     1.0  0.60461  0.64220  0.01904  1.0000
  C   C2279     1.0  0.60357  0.65759  0.02981  1.0000
  C   C2280     1.0  0.62043  0.66645  0.02888  1.0000
  C   C2281     1.0  0.35248  0.79787  0.07393  1.0000
  C   C2282     1.0  0.63907  0.64511  0.00572  1.0000
  C   C2283     1.0  0.36893  0.76422  0.07058  1.0000
  H   H1813     1.0  0.58990  0.66220  0.03936  1.0000
  H   H1814     1.0  0.58586  0.90776  0.18857  1.0000
  C   C2284     1.0  0.37034  0.62427  0.01998  1.0000
  C   C2285     1.0  0.36442  0.64345  0.01001  1.0000
  C   C2286     1.0  0.35972  0.66002  0.01995  1.0000
  C   C2287     1.0  0.36167  0.65743  0.03954  1.0000
  C   C2288     1.0  0.36790  0.63831  0.04924  1.0000
  C   C2289     1.0  0.37188  0.62176  0.03962  1.0000
  H   H1815     1.0  0.36298  0.64544  0.99486  1.0000
  H   H1816     1.0  0.35482  0.67477  0.01249  1.0000
  H   H1817     1.0  0.36913  0.63624  0.06443  1.0000
  H   H1818     1.0  0.37629  0.60698  0.04741  1.0000
  H   H1819     1.0  0.63428  0.84972  0.08787  1.0000
  H   H1820     1.0  0.51717  0.95705  0.14607  1.0000
  C   C2290     1.0  0.48233  0.77782  0.08909  1.0000
  H   H1821     1.0  0.57642  0.96031  0.05052  1.0000
  C   C2291     1.0  0.42975  0.93458  0.08128  1.0000
  C   C2292     1.0  0.43702  0.91442  0.07980  1.0000
  C   C2293     1.0  0.42378  0.90044  0.08419  1.0000
  C   C2294     1.0  0.40325  0.90677  0.08943  1.0000
  C   C2295     1.0  0.39607  0.92691  0.09078  1.0000
  C   C2296     1.0  0.40930  0.94071  0.08699  1.0000
  H   H1822     1.0  0.45285  0.90953  0.07572  1.0000
  H   H1823     1.0  0.42939  0.88483  0.08331  1.0000
  H   H1824     1.0  0.38024  0.93180  0.09490  1.0000
  H   H1825     1.0  0.40365  0.95623  0.08827  1.0000
  C   C2297     1.0  0.54164  0.88257  0.06219  1.0000
  C   C2298     1.0  0.54743  0.86514  0.07479  1.0000
  C   C2299     1.0  0.56334  0.86389  0.08459  1.0000
  C   C2300     1.0  0.57393  0.87983  0.08146  1.0000
  C   C2301     1.0  0.56822  0.89724  0.06874  1.0000
  C   C2302     1.0  0.55187  0.89878  0.05938  1.0000
  H   H1826     1.0  0.53954  0.85264  0.07717  1.0000
  H   H1827     1.0  0.56760  0.85041  0.09427  1.0000
  H   H1828     1.0  0.57630  0.90963  0.06624  1.0000
  H   H1829     1.0  0.54750  0.91234  0.04968  1.0000
  C   C2303     1.0  0.52153  0.73654  0.07648  1.0000
  C   C2304     1.0  0.35306  0.77972  0.06738  1.0000
  H   H1830     1.0  0.50697  0.89968  0.17346  1.0000
  S   S316      1.0  0.53845  0.97753  0.03740  1.0000
  C   C2305     1.0  0.40302  0.70135  0.02496  1.0000
  C   C2306     1.0  0.39985  0.68635  0.01581  1.0000
  C   C2307     1.0  0.39727  0.69065  0.99638  1.0000
  H   H1831     1.0  0.63537  0.74591  0.12557  1.0000
  C   C2308     1.0  0.63860  0.84579  0.07339  1.0000
  C   C2309     1.0  0.46183  0.77797  0.09523  1.0000
  H   H1832     1.0  0.43862  0.77016  0.11903  1.0000
  H   H1833     1.0  0.64650  0.70322  0.99644  1.0000
  C   C2310     1.0  0.41384  0.94540  0.03023  1.0000
  H   H1834     1.0  0.59999  0.93460  0.16435  1.0000
  H   H1835     1.0  0.35841  0.70467  0.98819  1.0000
  C   C2311     1.0  0.40048  0.86872  0.03174  1.0000
  Fe  Fe154     1.0  0.32763  0.74998  0.04489  1.0000
  H   H1836     1.0  0.38567  0.55991  0.03357  1.0000
  H   H1837     1.0  0.42489  0.91287  0.12244  1.0000
  H   H1838     1.0  0.52955  0.87834  0.11316  1.0000
  H   H1839     1.0  0.40652  0.53624  0.01314  1.0000
  C   C2312     1.0  0.52509  0.89406  0.11415  1.0000
  C   C2313     1.0  0.53902  0.90521  0.11642  1.0000
  Fe  Fe155     1.0  0.51498  0.95837  0.03941  1.0000
  H   H1840     1.0  0.55421  0.89789  0.11720  1.0000
  H   H1841     1.0  0.52875  0.58161  0.97401  1.0000
  C   C2314     1.0  0.59811  0.77765  0.07805  1.0000
  H   H1842     1.0  0.57479  0.83279  0.06288  1.0000
  C   C2315     1.0  0.36596  0.85073  0.21048  1.0000
  H   H1843     1.0  0.40418  0.69817  0.04025  1.0000
  H   H1844     1.0  0.39876  0.67151  0.02395  1.0000
  H   H1845     1.0  0.39450  0.67887  0.98964  1.0000
  H   H1846     1.0  0.59293  0.91779  0.11170  1.0000
  C   C2316     1.0  0.59900  0.80907  0.05568  1.0000
  H   H1847     1.0  0.63702  0.61800  0.04363  1.0000
  C   C2317     1.0  0.63515  0.69754  0.97249  1.0000
  S   S317      1.0  0.52727  0.62271  0.97894  1.0000
  C   C2318     1.0  0.43214  0.80552  0.20556  1.0000
  C   C2319     1.0  0.62514  0.83845  0.06545  1.0000
  C   C2320     1.0  0.38017  0.54667  0.03216  1.0000
  H   H1848     1.0  0.37229  0.94763  0.20990  1.0000
  C   C2321     1.0  0.54480  0.78440  0.13745  1.0000
  C   C2322     1.0  0.47547  0.92828  0.97234  1.0000
  H   H1849     1.0  0.61924  0.79797  0.97479  1.0000
  C   C2323     1.0  0.63937  0.79159  0.09838  1.0000
  C   C2324     1.0  0.63636  0.89917  0.20655  1.0000
  H   H1850     1.0  0.61803  0.91865  0.08189  1.0000
  C   C2325     1.0  0.60368  0.92819  0.08173  1.0000
  H   H1851     1.0  0.43696  0.49005  0.01448  1.0000
  C   C2326     1.0  0.38936  0.86457  0.01895  1.0000
  C   C2327     1.0  0.37192  0.88836  0.18993  1.0000
  C   C2328     1.0  0.64976  0.61970  0.04949  1.0000
  C   C2329     1.0  0.45099  0.88039  0.15435  1.0000
  C   C2330     1.0  0.50967  0.61015  0.97337  1.0000
  H   H1852     1.0  0.57442  0.77759  0.10266  1.0000
  C   C2331     1.0  0.55233  0.74844  0.13986  1.0000
  C   C2332     1.0  0.63664  0.70919  0.98597  1.0000
  S   S318      1.0  0.58851  0.53473  0.98864  1.0000
  C   C2333     1.0  0.65186  0.78400  0.00657  1.0000
  S   S319      1.0  0.57544  0.58998  0.99956  1.0000
  Fe  Fe156     1.0  0.60142  0.60537  0.98399  1.0000
  C   C2334     1.0  0.41613  0.90848  0.15361  1.0000
  C   C2335     1.0  0.33349  0.84727  0.16998  1.0000
  C   C2336     1.0  0.64684  0.62681  0.06711  1.0000
  C   C2337     1.0  0.59917  0.94018  0.06445  1.0000
  C   C2338     1.0  0.57901  0.93661  0.14510  1.0000
  H   H1853     1.0  0.48822  0.48831  0.04815  1.0000
  C   C2339     1.0  0.51619  0.86575  0.97097  1.0000
  C   C2340     1.0  0.44075  0.65855  0.98464  1.0000
  H   H1854     1.0  0.52820  0.90201  0.99095  1.0000
  C   C2341     1.0  0.42442  0.52307  0.97496  1.0000
  C   C2342     1.0  0.63888  0.75698  0.11294  1.0000
  C   C2343     1.0  0.47986  0.88715  0.18371  1.0000
  H   H1855     1.0  0.45195  0.88946  0.04354  1.0000
  Fe  Fe157     1.0  0.39155  0.60544  0.97813  1.0000
  H   H1856     1.0  0.39370  0.86830  0.00337  1.0000
  C   C2344     1.0  0.46047  0.67403  0.00010  1.0000
  C   C2345     1.0  0.38006  0.48634  0.97548  1.0000
  C   C2346     1.0  0.56419  0.86071  0.01600  1.0000
  H   H1857     1.0  0.62032  0.87456  0.21898  1.0000
  H   H1858     1.0  0.59188  0.63479  0.02048  1.0000
  H   H1859     1.0  0.60617  0.97773  0.19223  1.0000
  C   C2347     1.0  0.39197  0.53310  0.02057  1.0000
  H   H1860     1.0  0.33937  0.49419  0.99803  1.0000
  H   H1861     1.0  0.41159  0.96094  0.03195  1.0000
  C   C2348     1.0  0.39767  0.71009  0.98596  1.0000
  C   C2349     1.0  0.41948  0.90500  0.02600  1.0000
  C   C2350     1.0  0.47138  0.87022  0.19337  1.0000
  C   C2351     1.0  0.32599  0.89723  0.16735  1.0000
  H   H1862     1.0  0.64491  0.91810  0.15842  1.0000
  C   C2352     1.0  0.35246  0.90701  0.14110  1.0000
  H   H1863     1.0  0.58533  0.94831  0.13459  1.0000
  C   C2353     1.0  0.50556  0.90323  0.11265  1.0000
  H   H1864     1.0  0.55902  0.73407  0.14690  1.0000
  C   C2354     1.0  0.49704  0.86753  0.00323  1.0000
  H   H1865     1.0  0.64519  0.84281  0.19969  1.0000
  P   P78       1.0  0.44508  0.87026  0.19475  1.0000
  H   H1866     1.0  0.54146  0.73574  0.11964  1.0000
  C   C2355     1.0  0.36101  0.54360  0.04144  1.0000
  H   H1867     1.0  0.43139  0.80991  0.17496  1.0000
  S   S320      1.0  0.35720  0.67765  0.05236  1.0000
  Fe  Fe158     1.0  0.58762  0.56783  0.97901  1.0000
  H   H1868     1.0  0.54583  0.79790  0.14254  1.0000
  C   C2356     1.0  0.46772  0.76184  0.12739  1.0000
  C   C2357     1.0  0.48823  0.76168  0.12133  1.0000
  C   C2358     1.0  0.49569  0.76980  0.10216  1.0000
  H   H1869     1.0  0.61017  0.94025  0.05126  1.0000
  P   P79       1.0  0.52219  0.76939  0.09407  1.0000
  C   C2359     1.0  0.52559  0.79223  0.07722  1.0000
  C   C2360     1.0  0.53844  0.79189  0.05922  1.0000
  C   C2361     1.0  0.54017  0.80959  0.04601  1.0000
  C   C2362     1.0  0.52936  0.82779  0.05075  1.0000
  C   C2363     1.0  0.51659  0.82824  0.06856  1.0000
  C   C2364     1.0  0.51450  0.81054  0.08164  1.0000
  P   P80       1.0  0.42322  0.87913  0.02276  1.0000
  H   H1870     1.0  0.61219  0.86853  0.03160  1.0000
  H   H1871     1.0  0.46195  0.75583  0.14226  1.0000
  H   H1872     1.0  0.49814  0.75538  0.13170  1.0000
  C   C2365     1.0  0.51256  0.86981  0.18923  1.0000
  H   H1873     1.0  0.50542  0.74026  0.07914  1.0000
  H   H1874     1.0  0.52787  0.80009  0.11567  1.0000
  H   H1875     1.0  0.54698  0.77807  0.05512  1.0000
  H   H1876     1.0  0.54981  0.80911  0.03206  1.0000
  H   H1877     1.0  0.53070  0.84162  0.04072  1.0000
  H   H1878     1.0  0.50813  0.84239  0.07218  1.0000
  H   H1879     1.0  0.50405  0.81115  0.09515  1.0000
  C   C2366     1.0  0.56578  0.95092  0.08090  1.0000
  H   H1880     1.0  0.44568  0.91166  0.00512  1.0000
  H   H1881     1.0  0.65017  0.73522  0.09365  1.0000
  H   H1882     1.0  0.60504  0.76246  0.08272  1.0000
  H   H1883     1.0  0.37452  0.90287  0.18197  1.0000
  H   H1884     1.0  0.37521  0.53514  0.98119  1.0000
  H   H1885     1.0  0.60322  0.67123  0.98289  1.0000
  C   C2367     1.0  0.45454  0.76994  0.11434  1.0000
  C   C2368     1.0  0.36518  0.51348  0.02730  1.0000
  C   C2369     1.0  0.35353  0.52699  0.03905  1.0000
  C   C2370     1.0  0.61668  0.81036  0.00101  1.0000
  H   H1886     1.0  0.60299  0.82017  0.99862  1.0000
  H   H1887     1.0  0.45268  0.85054  0.00116  1.0000
  C   C2371     1.0  0.37766  0.85424  0.05914  1.0000
  C   C2372     1.0  0.50415  0.85313  0.19931  1.0000
  H   H1888     1.0  0.47638  0.83166  0.07111  1.0000
  H   H1889     1.0  0.33859  0.52483  0.04605  1.0000
  H   H1890     1.0  0.49493  0.89453  0.11055  1.0000
  H   H1891     1.0  0.63185  0.63086  0.07476  1.0000
  H   H1892     1.0  0.55100  0.95944  0.08022  1.0000
  H   H1893     1.0  0.43346  0.83616  0.03439  1.0000
  C   C2373     1.0  0.63964  0.90853  0.17166  1.0000
  H   H1894     1.0  0.49840  0.60348  0.08211  1.0000
  H   H1895     1.0  0.48502  0.93094  0.11130  1.0000
  C   C2374     1.0  0.55124  0.71493  0.06360  1.0000
  C   C2375     1.0  0.37668  0.85236  0.19136  1.0000
  H   H1896     1.0  0.48771  0.78409  0.07422  1.0000
  C   C2376     1.0  0.39445  0.86352  0.05187  1.0000
  H   H1897     1.0  0.42864  0.79050  0.20818  1.0000
  C   C2377     1.0  0.57219  0.80594  0.08346  1.0000
  H   H1898     1.0  0.55043  0.85879  0.01214  1.0000
  H   H1899     1.0  0.62656  0.73715  0.99665  1.0000
  C   C2378     1.0  0.42229  0.50825  0.99143  1.0000
  H   H1900     1.0  0.33015  0.62624  0.06837  1.0000
  H   H1901     1.0  0.57925  0.72214  0.06644  1.0000
  C   C2379     1.0  0.42092  0.89803  0.17142  1.0000
  C   C2380     1.0  0.56304  0.90647  0.17256  1.0000
  H   H1902     1.0  0.52888  0.60563  0.05704  1.0000
  C   C2381     1.0  0.40189  0.72485  0.99493  1.0000
  C   C2382     1.0  0.50041  0.88687  0.18152  1.0000
  H   H1903     1.0  0.46443  0.86934  0.15432  1.0000
  C   C2383     1.0  0.57805  0.84405  0.02166  1.0000
  C   C2384     1.0  0.38460  0.51628  0.01812  1.0000
  C   C2385     1.0  0.54243  0.74950  0.12430  1.0000
  H   H1904     1.0  0.40280  0.86658  0.06201  1.0000
  C   C2386     1.0  0.40046  0.93306  0.04114  1.0000
  C   C2387     1.0  0.64808  0.78550  0.08037  1.0000
  H   H1905     1.0  0.55887  0.81269  0.09224  1.0000
  C   C2388     1.0  0.46728  0.84074  0.06099  1.0000
  C   C2389     1.0  0.60714  0.78900  0.06131  1.0000
  H   H1906     1.0  0.63661  0.80726  0.09972  1.0000
  C   C2390     1.0  0.43254  0.62520  0.05357  1.0000
  C   C2391     1.0  0.42662  0.60951  0.06806  1.0000
  P   P81       1.0  0.45269  0.61995  0.03382  1.0000
  C   C2392     1.0  0.44900  0.59855  0.02458  1.0000
  C   C2393     1.0  0.45200  0.64117  0.01450  1.0000
  C   C2394     1.0  0.44155  0.64197  0.99935  1.0000
  C   C2395     1.0  0.43296  0.91750  0.01517  1.0000
  H   H1907     1.0  0.51371  0.83973  0.20482  1.0000
  S   S321      1.0  0.48160  0.96252  0.98352  1.0000
  C   C2396     1.0  0.46139  0.65738  0.01484  1.0000
  C   C2397     1.0  0.46535  0.58534  0.01666  1.0000
  C   C2398     1.0  0.46228  0.56957  0.00846  1.0000
  C   C2399     1.0  0.44296  0.56704  0.00780  1.0000
  C   C2400     1.0  0.42664  0.58005  0.01567  1.0000
  C   C2401     1.0  0.42959  0.59569  0.02411  1.0000
  C   C2402     1.0  0.47671  0.61550  0.04147  1.0000
  C   C2403     1.0  0.47838  0.61070  0.06126  1.0000
  C   C2404     1.0  0.59911  0.86598  0.02694  1.0000
  H   H1908     1.0  0.57105  0.66068  0.99883  1.0000
  C   C2405     1.0  0.51275  0.61329  0.03307  1.0000
  C   C2406     1.0  0.49404  0.61689  0.02746  1.0000
  C   C2407     1.0  0.36748  0.80052  0.08356  1.0000
  H   H1909     1.0  0.43406  0.59427  0.06745  1.0000
  H   H1910     1.0  0.43400  0.62986  0.99874  1.0000
  H   H1911     1.0  0.50261  0.88996  0.01768  1.0000
  C   C2408     1.0  0.56285  0.92900  0.14173  1.0000
  H   H1912     1.0  0.33755  0.88232  0.14218  1.0000
  H   H1913     1.0  0.46934  0.65719  0.02652  1.0000
  H   H1914     1.0  0.48050  0.58744  0.01618  1.0000
  H   H1915     1.0  0.47494  0.55989  0.00173  1.0000
  H   H1916     1.0  0.44064  0.55545  0.00058  1.0000
  H   H1917     1.0  0.41172  0.57845  0.01460  1.0000
  H   H1918     1.0  0.41671  0.60602  0.02951  1.0000
  H   H1919     1.0  0.46532  0.60969  0.07241  1.0000
  C   C2409     1.0  0.58124  0.81733  0.06673  1.0000
  H   H1920     1.0  0.52604  0.61422  0.02207  1.0000
  H   H1921     1.0  0.49314  0.62063  0.01211  1.0000
  C   C2410     1.0  0.53046  0.72009  0.06721  1.0000
  C   C2411     1.0  0.53394  0.76814  0.11492  1.0000
  H   H1922     1.0  0.40636  0.60125  0.09444  1.0000
  H   H1923     1.0  0.55722  0.89446  0.18305  1.0000
  H   H1924     1.0  0.55820  0.70218  0.05642  1.0000
  H   H1925     1.0  0.52128  0.71129  0.06282  1.0000
  C   C2412     1.0  0.41097  0.61340  0.08336  1.0000
  S   S322      1.0  0.61939  0.68440  0.04383  1.0000
  H   H1926     1.0  0.44944  0.68747  0.97358  1.0000
  H   H1927     1.0  0.36960  0.75018  0.06566  1.0000
  C   C2413     1.0  0.58018  0.95145  0.06402  1.0000
  C   C2414     1.0  0.53337  0.74795  0.08223  1.0000
  C   C2415     1.0  0.51433  0.60844  0.05276  1.0000
  C   C2416     1.0  0.42258  0.64483  0.05464  1.0000
  S   S323      1.0  0.33384  0.77745  0.05502  1.0000
  H   H1928     1.0  0.56808  0.94977  0.21343  1.0000
  H   H1929     1.0  0.35191  0.55431  0.05023  1.0000
  H   H1930     1.0  0.42669  0.65724  0.04370  1.0000
  H   H1931     1.0  0.56369  0.75128  0.08277  1.0000
  C   C2417     1.0  0.49715  0.60719  0.06684  1.0000
  C   C2418     1.0  0.63805  0.66042  0.01650  1.0000
  C   C2419     1.0  0.58081  0.78619  0.08927  1.0000
  H   H1932     1.0  0.38800  0.93899  0.05142  1.0000
  C   C2420     1.0  0.56312  0.72620  0.06927  1.0000
  H   H1933     1.0  0.35394  0.84246  0.05202  1.0000
  C   C2421     1.0  0.64915  0.83662  0.03567  1.0000
  C   C2422     1.0  0.40107  0.63295  0.08424  1.0000
  C   C2423     1.0  0.45627  0.50884  0.99524  1.0000
  S   S324      1.0  0.34834  0.73265  0.02305  1.0000
  C   C2424     1.0  0.40680  0.64863  0.06983  1.0000
  H   H1934     1.0  0.55139  0.49845  0.98344  1.0000
  H   H1935     1.0  0.34277  0.93788  0.17496  1.0000
  S   S325      1.0  0.35164  0.90907  0.21885  1.0000
  H   H1936     1.0  0.39870  0.66371  0.07025  1.0000
  H   H1937     1.0  0.38871  0.63599  0.09587  1.0000
  C   C2425     1.0  0.43759  0.83612  0.18334  1.0000
  H   H1938     1.0  0.40244  0.91909  0.15326  1.0000
  C   C2426     1.0  0.55425  0.74264  0.07855  1.0000
  C   C2427     1.0  0.58935  0.92777  0.09869  1.0000
  H   H1939     1.0  0.54213  0.90805  0.15371  1.0000
  C   C2428     1.0  0.50205  0.85866  0.98648  1.0000
  C   C2429     1.0  0.57317  0.66714  0.98358  1.0000
  C   C2430     1.0  0.50000  0.92371  0.11319  1.0000
  H   H1940     1.0  0.45641  0.81558  0.05546  1.0000
  C   C2431     1.0  0.43146  0.87791  0.99716  1.0000
  C   C2432     1.0  0.43836  0.50121  0.00155  1.0000
  C   C2433     1.0  0.45017  0.67460  0.98498  1.0000
  H   H1941     1.0  0.33039  0.80618  0.15162  1.0000
  H   H1942     1.0  0.34024  0.80991  0.07163  1.0000
  H   H1943     1.0  0.56146  0.76522  0.15827  1.0000
  C   C2434     1.0  0.53474  0.78555  0.12201  1.0000
  H   H1944     1.0  0.45574  0.88784  0.12306  1.0000
  C   C2435     1.0  0.63042  0.83352  0.04662  1.0000
  C   C2436     1.0  0.54191  0.96510  0.12388  1.0000
  H   H1945     1.0  0.58746  0.89750  0.02216  1.0000
  Fe  Fe159     1.0  0.64920  0.69239  0.04513  1.0000
  H   H1946     1.0  0.41090  0.90101  0.18465  1.0000
  H   H1947     1.0  0.61056  0.83693  0.07402  1.0000
  C   C2437     1.0  0.62534  0.72825  0.98608  1.0000
  H   H1948     1.0  0.49420  0.82041  0.17379  1.0000
  C   C2438     1.0  0.37957  0.87129  0.18112  1.0000
  C   C2439     1.0  0.46606  0.86154  0.05752  1.0000
  H   H1949     1.0  0.62093  0.78217  0.05338  1.0000
  H   H1950     1.0  0.36413  0.85177  0.01642  1.0000
  C   C2440     1.0  0.42878  0.90499  0.13623  1.0000
  C   C2441     1.0  0.35384  0.92288  0.15004  1.0000
  C   C2442     1.0  0.62515  0.81004  0.01745  1.0000
  P   P82       1.0  0.61258  0.82481  0.03622  1.0000
  C   C2443     1.0  0.59565  0.84650  0.02716  1.0000
  C   C2444     1.0  0.56764  0.87995  0.01612  1.0000
  H   H1951     1.0  0.46778  0.68647  0.00039  1.0000
  H   H1952     1.0  0.55643  0.89279  0.01272  1.0000
  H   H1953     1.0  0.36474  0.93260  0.14345  1.0000
  C   C2445     1.0  0.62580  0.88394  0.20569  1.0000
  C   C2446     1.0  0.44622  0.89096  0.13659  1.0000
  H   H1954     1.0  0.57484  0.82922  0.02225  1.0000
  C   C2447     1.0  0.55366  0.76592  0.14632  1.0000
  H   H1955     1.0  0.43822  0.84438  0.16875  1.0000
  H   H1956     1.0  0.47771  0.83986  0.20855  1.0000
  H   H1957     1.0  0.35897  0.50103  0.02508  1.0000
  C   C2448     1.0  0.37258  0.85518  0.02628  1.0000
  H   H1958     1.0  0.46865  0.50329  0.00301  1.0000
  C   C2449     1.0  0.43834  0.88381  0.17193  1.0000
  H   H1959     1.0  0.45142  0.78440  0.08531  1.0000
  C   C2450     1.0  0.38311  0.50292  0.98269  1.0000
  C   C2451     1.0  0.43377  0.81646  0.18678  1.0000
  H   H1960     1.0  0.36224  0.90448  0.12755  1.0000
  Fe  Fe160     1.0  0.55952  0.60717  0.97523  1.0000
  C   C2452     1.0  0.43048  0.88135  0.21523  1.0000
  C   C2453     1.0  0.53348  0.92570  0.11740  1.0000
  H   H1961     1.0  0.40296  0.73978  0.98708  1.0000
  H   H1962     1.0  0.59067  0.49360  0.98536  1.0000
  C   C2454     1.0  0.62585  0.79772  0.98742  1.0000
  H   H1963     1.0  0.47726  0.92067  0.98682  1.0000
  C   C2455     1.0  0.45819  0.52372  0.97891  1.0000
  H   H1964     1.0  0.40335  0.87154  0.21290  1.0000
  C   C2456     1.0  0.51398  0.93501  0.11523  1.0000
  H   H1965     1.0  0.36361  0.83612  0.21848  1.0000
  C   C2457     1.0  0.33852  0.89430  0.14960  1.0000
  C   C2458     1.0  0.45311  0.87336  0.04552  1.0000
  C   C2459     1.0  0.44004  0.84492  0.19873  1.0000
  C   C2460     1.0  0.57047  0.93955  0.09850  1.0000
  C   C2461     1.0  0.55472  0.91406  0.15574  1.0000
  C   C2462     1.0  0.34139  0.92595  0.16765  1.0000
  C   C2463     1.0  0.32760  0.91313  0.17633  1.0000
  C   C2464     1.0  0.64340  0.78450  0.99023  1.0000
  C   C2465     1.0  0.64323  0.91164  0.18955  1.0000
  H   H1966     1.0  0.50959  0.95099  0.11461  1.0000
  C   C2466     1.0  0.45587  0.83165  0.05225  1.0000
  C   C2467     1.0  0.61226  0.73559  0.97279  1.0000
  C   C2468     1.0  0.57926  0.91394  0.17567  1.0000
  C   C2469     1.0  0.40327  0.91291  0.03913  1.0000
  H   H1967     1.0  0.54783  0.53517  0.98156  1.0000
  P   P83       1.0  0.55189  0.93969  0.12028  1.0000
  C   C2470     1.0  0.58723  0.92904  0.16198  1.0000
  P   P84       1.0  0.39852  0.50005  0.00114  1.0000
  H   H1968     1.0  0.35426  0.82069  0.16423  1.0000
  H   H1969     1.0  0.40660  0.73220  0.02163  1.0000
  H   H1970     1.0  0.47465  0.86853  0.06472  1.0000
  S   S326      1.0  0.48435  0.97100  0.03313  1.0000
  H   H1971     1.0  0.39281  0.90367  0.04800  1.0000
  H   H1972     1.0  0.41200  0.90514  0.98773  1.0000
  H   H1973     1.0  0.48610  0.86208  0.01528  1.0000
  C   C2471     1.0  0.33924  0.82868  0.16373  1.0000
  C   C2472     1.0  0.36092  0.88684  0.20886  1.0000
  C   C2473     1.0  0.64725  0.75091  0.09487  1.0000
  C   C2474     1.0  0.52073  0.89023  0.98924  1.0000
  C   C2475     1.0  0.43863  0.83372  0.21757  1.0000
  C   C2476     1.0  0.42322  0.89287  0.98326  1.0000
  C   C2477     1.0  0.37289  0.52197  0.97629  1.0000
  H   H1974     1.0  0.32759  0.57588  0.02040  1.0000
  C   C2478     1.0  0.44284  0.84339  0.04038  1.0000
  H   H1975     1.0  0.33074  0.68872  0.98490  1.0000
  C   C2479     1.0  0.44128  0.86434  0.03699  1.0000
  C   C2480     1.0  0.44603  0.86224  0.99086  1.0000
  H   H1976     1.0  0.47067  0.90040  0.17744  1.0000
  C   C2481     1.0  0.50640  0.88326  0.00460  1.0000
  H   H1977     1.0  0.37320  0.85028  0.07473  1.0000
  C   C2482     1.0  0.36679  0.84994  0.04635  1.0000
  H   H1978     1.0  0.44062  0.94718  0.00882  1.0000
  C   C2483     1.0  0.64284  0.79673  0.02005  1.0000
  H   H1979     1.0  0.60330  0.75026  0.97303  1.0000
  H   H1980     1.0  0.65291  0.64016  0.99656  1.0000
  H   H1981     1.0  0.32068  0.84942  0.20834  1.0000
  H   H1982     1.0  0.65103  0.66729  0.01546  1.0000
  H   H1983     1.0  0.36664  0.74682  0.97915  1.0000
  H   H1984     1.0  0.49501  0.84627  0.98552  1.0000
  C   C2484     1.0  0.33123  0.48330  0.00784  1.0000
  C   C2485     1.0  0.64065  0.49221  0.99178  1.0000
  C   C2486     1.0  0.49058  0.62054  0.97091  1.0000
  H   H1985     1.0  0.64386  0.68269  0.97303  1.0000
  H   H1986     1.0  0.48674  0.63616  0.97250  1.0000
  C   C2487     1.0  0.55787  0.66904  0.97291  1.0000
  C   C2488     1.0  0.59699  0.50125  0.97139  1.0000
  H   H1987     1.0  0.65039  0.77450  0.97987  1.0000
  H   H1988     1.0  0.32330  0.47967  0.08599  1.0000
  H   H1989     1.0  0.54398  0.66378  0.97983  1.0000
  C   C2489     1.0  0.64211  0.51244  0.98543  1.0000
  C   C2490     1.0  0.65202  0.76514  0.07854  1.0000
  H   H1990     1.0  0.60703  0.87344  0.97839  1.0000
  C   C2491     1.0  0.65067  0.81967  0.18217  1.0000
  C   C2492     1.0  0.59143  0.67304  0.97445  1.0000
  Fe  Fe161     1.0  0.32178  0.73503  0.00837  1.0000
  C   C2493     1.0  0.52518  0.88204  0.97197  1.0000
  H   H1991     1.0  0.57504  0.89456  0.97296  1.0000
  C   C2494     1.0  0.51434  0.58988  0.97159  1.0000
  C   C2495     1.0  0.35841  0.70013  0.97445  1.0000
  H   H1992     1.0  0.43273  0.65882  0.97306  1.0000
  C   C2496     1.0  0.34256  0.69123  0.97261  1.0000
  H   H1993     1.0  0.63897  0.90138  0.22040  1.0000
  C   C2497     1.0  0.35803  0.86792  0.21920  1.0000
  H   H1994     1.0  0.65186  0.79660  0.06786  1.0000
  H   H1995     1.0  0.56566  0.97826  0.10369  1.0000
  H   H1996     1.0  0.35340  0.95325  0.46419  1.0000
  H   H1997     1.0  0.41526  0.90108  0.32696  1.0000
  S   S327      1.0  0.34549  0.92849  0.26658  1.0000
  H   H1998     1.0  0.42610  0.93279  0.32837  1.0000
  S   S328      1.0  0.32134  0.89046  0.27465  1.0000
  H   H1999     1.0  0.44044  0.84018  0.22970  1.0000
  H   H2000     1.0  0.32461  0.90820  0.37828  1.0000
  C   C2498     1.0  0.39950  0.91377  0.30313  1.0000
  H   H2001     1.0  0.55453  0.96774  0.31177  1.0000
  C   C2499     1.0  0.60684  0.94614  0.23711  1.0000
  H   H2002     1.0  0.57492  0.96942  0.27903  1.0000
  H   H2003     1.0  0.52485  0.95153  0.45966  1.0000
  H   H2004     1.0  0.34968  0.86655  0.23386  1.0000
  C   C2500     1.0  0.39342  0.93118  0.29064  1.0000
  C   C2501     1.0  0.55207  0.96905  0.46955  1.0000
  P   P85       1.0  0.39088  0.97195  0.27540  1.0000
  C   C2502     1.0  0.37606  0.89924  0.35869  1.0000
  H   H2005     1.0  0.64423  0.81884  0.23532  1.0000
  C   C2503     1.0  0.39972  0.94928  0.29105  1.0000
  H   H2006     1.0  0.38393  0.88923  0.36938  1.0000
  H   H2007     1.0  0.61166  0.96855  0.25203  1.0000
  Fe  Fe162     1.0  0.39490  0.95875  0.37190  1.0000
  S   S329      1.0  0.38694  0.92826  0.37305  1.0000
  C   C2504     1.0  0.36461  0.93279  0.34327  1.0000
  C   C2505     1.0  0.35540  0.92471  0.33116  1.0000
  C   C2506     1.0  0.35714  0.90391  0.33250  1.0000
  C   C2507     1.0  0.36731  0.89130  0.34644  1.0000
  C   C2508     1.0  0.63872  0.97426  0.28956  1.0000
  H   H2008     1.0  0.43506  0.90443  0.25210  1.0000
  H   H2009     1.0  0.34696  0.93441  0.32088  1.0000
  H   H2010     1.0  0.36856  0.87524  0.34773  1.0000
  C   C2509     1.0  0.60655  0.96740  0.30748  1.0000
  C   C2510     1.0  0.62366  0.96247  0.29389  1.0000
  H   H2011     1.0  0.59491  0.95825  0.31092  1.0000
  Fe  Fe163     1.0  0.33146  0.90905  0.29254  1.0000
  C   C2511     1.0  0.43933  0.89068  0.22643  1.0000
  C   C2512     1.0  0.59470  0.94085  0.22612  1.0000
  C   C2513     1.0  0.60220  0.96477  0.24335  1.0000
  C   C2514     1.0  0.57766  0.95407  0.22168  1.0000
  C   C2515     1.0  0.57294  0.97270  0.22798  1.0000
  H   H2012     1.0  0.63654  0.88008  0.26478  1.0000
  C   C2516     1.0  0.49433  0.95721  0.45573  1.0000
  H   H2013     1.0  0.38327  0.93054  0.28115  1.0000
  C   C2517     1.0  0.38568  0.96504  0.25388  1.0000
  S   S330      1.0  0.34711  0.89256  0.31723  1.0000
  Fe  Fe164     1.0  0.33300  0.91206  0.24871  1.0000
  H   H2014     1.0  0.43320  0.80570  0.23556  1.0000
  C   C2518     1.0  0.40807  0.89531  0.24891  1.0000
  H   H2015     1.0  0.35448  0.95600  0.29269  1.0000
  H   H2016     1.0  0.39936  0.90056  0.26195  1.0000
  C   C2519     1.0  0.62328  0.85480  0.26315  1.0000
  C   C2520     1.0  0.36377  0.96832  0.23038  1.0000
  C   C2521     1.0  0.41752  0.93225  0.31737  1.0000
  H   H2017     1.0  0.41239  0.94303  0.24993  1.0000
  H   H2018     1.0  0.50528  0.97049  0.37309  1.0000
  H   H2019     1.0  0.36354  0.94881  0.34206  1.0000
  H   H2020     1.0  0.60095  0.94012  0.44354  1.0000
  C   C2522     1.0  0.39883  0.95026  0.24451  1.0000
  H   H2021     1.0  0.64605  0.92431  0.31500  1.0000
  C   C2523     1.0  0.47571  0.96918  0.45929  1.0000
  H   H2022     1.0  0.39405  0.90005  0.30313  1.0000
  S   S331      1.0  0.41881  0.97165  0.34954  1.0000
  H   H2023     1.0  0.61390  0.82836  0.25852  1.0000
  C   C2524     1.0  0.41143  0.91433  0.31658  1.0000
  C   C2525     1.0  0.58725  0.94800  0.45074  1.0000
  C   C2526     1.0  0.37506  0.91993  0.35705  1.0000
  H   H2024     1.0  0.38608  0.95611  0.44344  1.0000
  C   C2527     1.0  0.57707  0.96496  0.44058  1.0000
  C   C2528     1.0  0.39916  0.88623  0.23773  1.0000
  H   H2025     1.0  0.38357  0.88454  0.24205  1.0000
  S   S332      1.0  0.62638  0.94143  0.28253  1.0000
  H   H2026     1.0  0.41521  0.95757  0.45805  1.0000
  S   S333      1.0  0.46347  0.97013  0.37663  1.0000
  S   S334      1.0  0.40871  0.96186  0.39700  1.0000
  H   H2027     1.0  0.41641  0.96326  0.30596  1.0000
  C   C2529     1.0  0.41180  0.94962  0.30462  1.0000
  C   C2530     1.0  0.38448  0.95533  0.45905  1.0000
  H   H2028     1.0  0.60990  0.85895  0.27334  1.0000
  C   C2531     1.0  0.42814  0.89757  0.24327  1.0000
  C   C2532     1.0  0.35247  0.97095  0.29603  1.0000
  H   H2029     1.0  0.46305  0.96616  0.45417  1.0000
  C   C2533     1.0  0.39415  0.94423  0.22848  1.0000
  H   H2030     1.0  0.58286  0.97038  0.42552  1.0000
  H   H2031     1.0  0.61986  0.93576  0.24094  1.0000
  H   H2032     1.0  0.49611  0.94488  0.44781  1.0000
  C   C2534     1.0  0.62555  0.83756  0.25482  1.0000
  H   H2033     1.0  0.32277  0.96938  0.31198  1.0000
  C   C2535     1.0  0.63827  0.86670  0.25831  1.0000
  H   H2034     1.0  0.34985  0.97498  0.22533  1.0000
  H   H2035     1.0  0.65176  0.97085  0.27887  1.0000
  C   C2536     1.0  0.51061  0.96110  0.46244  1.0000
  C   C2537     1.0  0.40090  0.95619  0.46727  1.0000
  C   C2538     1.0  0.36851  0.97450  0.24627  1.0000
  C   C2539     1.0  0.64275  0.83230  0.24154  1.0000
  C   C2540     1.0  0.55943  0.97522  0.44984  1.0000
  C   C2541     1.0  0.41034  0.87910  0.22108  1.0000
  H   H2036     1.0  0.51687  0.97499  0.40888  1.0000
  Fe  Fe165     1.0  0.43072  0.97751  0.37461  1.0000
  H   H2037     1.0  0.40389  0.93234  0.22166  1.0000
  C   C2542     1.0  0.37644  0.95300  0.22166  1.0000
  C   C2543     1.0  0.58542  0.97833  0.23859  1.0000
  H   H2038     1.0  0.45491  0.89225  0.22249  1.0000
  H   H2039     1.0  0.59847  0.92642  0.22124  1.0000
  C   C2544     1.0  0.57964  0.94118  0.47012  1.0000
  C   C2545     1.0  0.43463  0.81413  0.22096  1.0000
  C   C2546     1.0  0.32393  0.95466  0.68669  1.0000
  H   H2040     1.0  0.42367  0.79880  0.64332  1.0000
  C   C2547     1.0  0.33369  0.90435  0.68892  1.0000
  S   S335      1.0  0.34792  0.88979  0.59064  1.0000
  C   C2548     1.0  0.54215  0.96784  0.53664  1.0000
  C   C2549     1.0  0.39883  0.95528  0.48736  1.0000
  C   C2550     1.0  0.39253  0.81167  0.64666  1.0000
  Fe  Fe166     1.0  0.41563  0.96417  0.53513  1.0000
  C   C2551     1.0  0.40062  0.92910  0.66461  1.0000
  C   C2552     1.0  0.42333  0.90162  0.65161  1.0000
  C   C2553     1.0  0.59401  0.90984  0.65730  1.0000
  H   H2041     1.0  0.38480  0.93831  0.60261  1.0000
  S   S336      1.0  0.41523  0.97473  0.56298  1.0000
  C   C2554     1.0  0.39528  0.92176  0.54911  1.0000
  H   H2042     1.0  0.39978  0.97491  0.63865  1.0000
  H   H2043     1.0  0.43382  0.89151  0.56317  1.0000
  H   H2044     1.0  0.39261  0.94422  0.66292  1.0000
  H   H2045     1.0  0.38094  0.94836  0.56120  1.0000
  C   C2555     1.0  0.35356  0.97030  0.67892  1.0000
  H   H2046     1.0  0.38960  0.92358  0.69548  1.0000
  C   C2556     1.0  0.62525  0.93933  0.50522  1.0000
  C   C2557     1.0  0.50835  0.97712  0.47267  1.0000
  H   H2047     1.0  0.59957  0.93432  0.54651  1.0000
  C   C2558     1.0  0.38074  0.93266  0.56156  1.0000
  C   C2559     1.0  0.37360  0.81055  0.64310  1.0000
  H   H2048     1.0  0.62794  0.84803  0.67592  1.0000
  H   H2049     1.0  0.42872  0.97461  0.60300  1.0000
  S   S337      1.0  0.32637  0.92305  0.63288  1.0000
  C   C2560     1.0  0.34795  0.90579  0.69988  1.0000
  C   C2561     1.0  0.33100  0.88746  0.52446  1.0000
  H   H2050     1.0  0.60427  0.90711  0.62702  1.0000
  H   H2051     1.0  0.41164  0.95558  0.49379  1.0000
  C   C2562     1.0  0.40840  0.96820  0.68982  1.0000
  C   C2563     1.0  0.60475  0.90650  0.70789  1.0000
  C   C2564     1.0  0.64197  0.94890  0.50084  1.0000
  H   H2052     1.0  0.59790  0.87147  0.69300  1.0000
  C   C2565     1.0  0.38175  0.95141  0.60962  1.0000
  S   S338      1.0  0.41458  0.93251  0.53320  1.0000
  C   C2566     1.0  0.34358  0.91613  0.52948  1.0000
  C   C2567     1.0  0.40928  0.89800  0.68592  1.0000
  H   H2053     1.0  0.35487  0.96297  0.59747  1.0000
  C   C2568     1.0  0.38035  0.89201  0.56250  1.0000
  C   C2569     1.0  0.36584  0.90270  0.57498  1.0000
  C   C2570     1.0  0.36588  0.92310  0.57448  1.0000
  C   C2571     1.0  0.33879  0.81807  0.67399  1.0000
  H   H2054     1.0  0.38029  0.87629  0.56278  1.0000
  H   H2055     1.0  0.35451  0.93143  0.58398  1.0000
  P   P86       1.0  0.35205  0.82835  0.65078  1.0000
  H   H2056     1.0  0.52667  0.96988  0.69944  1.0000
  C   C2572     1.0  0.39484  0.90155  0.54946  1.0000
  C   C2573     1.0  0.33645  0.92758  0.51299  1.0000
  C   C2574     1.0  0.40909  0.79780  0.64059  1.0000
  H   H2057     1.0  0.38643  0.76981  0.61991  1.0000
  C   C2575     1.0  0.43682  0.92709  0.58906  1.0000
  C   C2576     1.0  0.42316  0.92182  0.60592  1.0000
  C   C2577     1.0  0.36590  0.95395  0.47087  1.0000
  H   H2058     1.0  0.41977  0.77205  0.62621  1.0000
  H   H2059     1.0  0.36046  0.83912  0.60843  1.0000
  H   H2060     1.0  0.61091  0.94766  0.50233  1.0000
  H   H2061     1.0  0.64584  0.89347  0.52591  1.0000
  C   C2578     1.0  0.32258  0.88872  0.69441  1.0000
  C   C2579     1.0  0.35177  0.97229  0.69849  1.0000
  C   C2580     1.0  0.62219  0.91450  0.69911  1.0000
  H   H2062     1.0  0.61381  0.91195  0.51765  1.0000
  C   C2581     1.0  0.33275  0.84248  0.59827  1.0000
  C   C2582     1.0  0.60810  0.93910  0.55543  1.0000
  C   C2583     1.0  0.35971  0.86768  0.63939  1.0000
  C   C2584     1.0  0.52567  0.95947  0.54728  1.0000
  C   C2585     1.0  0.60067  0.91708  0.63774  1.0000
  C   C2586     1.0  0.39893  0.91752  0.68315  1.0000
  C   C2587     1.0  0.41343  0.90542  0.60720  1.0000
  C   C2588     1.0  0.62998  0.93069  0.57950  1.0000
  H   H2063     1.0  0.63589  0.97128  0.61493  1.0000
  H   H2064     1.0  0.42971  0.87499  0.67243  1.0000
  H   H2065     1.0  0.60190  0.96518  0.64137  1.0000
  H   H2066     1.0  0.39465  0.82323  0.65402  1.0000
  C   C2589     1.0  0.55186  0.85794  0.70417  1.0000
  H   H2067     1.0  0.40944  0.88214  0.59271  1.0000
  C   C2590     1.0  0.34300  0.79769  0.68175  1.0000
  C   C2591     1.0  0.60803  0.95953  0.55463  1.0000
  C   C2592     1.0  0.64511  0.90883  0.51866  1.0000
  H   H2068     1.0  0.33922  0.84700  0.58322  1.0000
  H   H2069     1.0  0.35412  0.78754  0.67385  1.0000
  H   H2070     1.0  0.40237  0.90149  0.61976  1.0000
  C   C2593     1.0  0.58989  0.92262  0.67128  1.0000
  H   H2071     1.0  0.62339  0.92359  0.68486  1.0000
  C   C2594     1.0  0.37319  0.88523  0.65879  1.0000
  C   C2595     1.0  0.36674  0.85144  0.67117  1.0000
  Fe  Fe167     1.0  0.32312  0.90660  0.60966  1.0000
  H   H2072     1.0  0.40596  0.89317  0.53978  1.0000
  C   C2596     1.0  0.40690  0.78273  0.63097  1.0000
  C   C2597     1.0  0.36642  0.88474  0.64171  1.0000
  H   H2073     1.0  0.35423  0.86785  0.62623  1.0000
  H   H2074     1.0  0.58147  0.84203  0.69630  1.0000
  H   H2075     1.0  0.49808  0.96527  0.51167  1.0000
  H   H2076     1.0  0.59250  0.89423  0.66138  1.0000
  C   C2598     1.0  0.43970  0.96771  0.61218  1.0000
  C   C2599     1.0  0.54297  0.97515  0.51680  1.0000
  C   C2600     1.0  0.60326  0.93706  0.63199  1.0000
  H   H2077     1.0  0.35705  0.79412  0.63063  1.0000
  H   H2078     1.0  0.59047  0.95261  0.67595  1.0000
  C   C2601     1.0  0.43769  0.94946  0.62457  1.0000
  C   C2602     1.0  0.33301  0.79025  0.70010  1.0000
  C   C2603     1.0  0.63690  0.85167  0.68516  1.0000
  C   C2604     1.0  0.59279  0.94266  0.66536  1.0000
  H   H2079     1.0  0.37901  0.95302  0.51478  1.0000
  H   H2080     1.0  0.35131  0.92259  0.53793  1.0000
  C   C2605     1.0  0.63857  0.91072  0.70869  1.0000
  C   C2606     1.0  0.53752  0.95996  0.70733  1.0000
  C   C2607     1.0  0.62687  0.91925  0.51394  1.0000
  H   H2081     1.0  0.52496  0.95399  0.56270  1.0000
  H   H2082     1.0  0.52446  0.87737  0.71247  1.0000
  C   C2608     1.0  0.54966  0.89311  0.70554  1.0000
  C   C2609     1.0  0.36466  0.96535  0.60664  1.0000
  C   C2610     1.0  0.41744  0.89438  0.59194  1.0000
  C   C2611     1.0  0.45644  0.97674  0.61090  1.0000
  C   C2612     1.0  0.56547  0.93260  0.70839  1.0000
  C   C2613     1.0  0.33587  0.96539  0.71210  1.0000
  H   H2083     1.0  0.61865  0.90905  0.56844  1.0000
  C   C2614     1.0  0.33630  0.83348  0.63236  1.0000
  C   C2615     1.0  0.63398  0.84392  0.70512  1.0000
  C   C2616     1.0  0.57253  0.85636  0.69864  1.0000
  C   C2617     1.0  0.37151  0.79530  0.63348  1.0000
  H   H2084     1.0  0.32269  0.92671  0.48844  1.0000
  C   C2618     1.0  0.46938  0.94954  0.63427  1.0000
  H   H2085     1.0  0.48104  0.94232  0.64258  1.0000
  H   H2086     1.0  0.43337  0.89539  0.63972  1.0000
  C   C2619     1.0  0.43117  0.89963  0.57529  1.0000
  C   C2620     1.0  0.34472  0.83817  0.61267  1.0000
  C   C2621     1.0  0.50989  0.95863  0.53814  1.0000
  C   C2622     1.0  0.59938  0.94983  0.64579  1.0000
  H   H2087     1.0  0.32113  0.84661  0.67911  1.0000
  C   C2623     1.0  0.36349  0.95395  0.49097  1.0000
  H   H2088     1.0  0.49690  0.95256  0.54652  1.0000
  C   C2624     1.0  0.34056  0.89624  0.53536  1.0000
  P   P87       1.0  0.41694  0.93687  0.62511  1.0000
  H   H2089     1.0  0.58737  0.92788  0.47795  1.0000
  H   H2090     1.0  0.36691  0.83873  0.68279  1.0000
  H   H2091     1.0  0.44412  0.93999  0.58731  1.0000
  C   C2625     1.0  0.39466  0.95469  0.62120  1.0000
  H   H2092     1.0  0.45076  0.92054  0.56054  1.0000
  C   C2626     1.0  0.58183  0.87306  0.69679  1.0000
  C   C2627     1.0  0.42147  0.89005  0.67016  1.0000
  S   S339      1.0  0.64257  0.91205  0.59549  1.0000
  C   C2628     1.0  0.44077  0.91601  0.57382  1.0000
  H   H2093     1.0  0.36607  0.89767  0.63030  1.0000
  C   C2629     1.0  0.63011  0.95109  0.57867  1.0000
  H   H2094     1.0  0.37844  0.86907  0.68685  1.0000
  H   H2095     1.0  0.55097  0.94439  0.68336  1.0000
  C   C2630     1.0  0.35990  0.85084  0.65401  1.0000
  H   H2096     1.0  0.33648  0.77457  0.70616  1.0000
  C   C2631     1.0  0.37343  0.86856  0.67348  1.0000
  C   C2632     1.0  0.61891  0.92478  0.56784  1.0000
  C   C2633     1.0  0.56204  0.95151  0.47944  1.0000
  C   C2634     1.0  0.38811  0.78147  0.62742  1.0000
  C   C2635     1.0  0.33978  0.96137  0.67307  1.0000
  H   H2097     1.0  0.37779  0.89868  0.66083  1.0000
  C   C2636     1.0  0.41271  0.92119  0.64861  1.0000
  C   C2637     1.0  0.32445  0.83081  0.68479  1.0000
  H   H2098     1.0  0.40791  0.88908  0.70035  1.0000
  H   H2099     1.0  0.60867  0.94250  0.61688  1.0000
  C   C2638     1.0  0.55140  0.94559  0.69823  1.0000
  C   C2639     1.0  0.45267  0.94046  0.63564  1.0000
  S   S340      1.0  0.61622  0.82774  0.71469  1.0000
  H   H2100     1.0  0.45178  0.92623  0.64505  1.0000
  C   C2640     1.0  0.57046  0.89166  0.69991  1.0000
  P   P88       1.0  0.58258  0.91331  0.69684  1.0000
  H   H2101     1.0  0.33113  0.91543  0.67633  1.0000
  H   H2102     1.0  0.54476  0.84483  0.70616  1.0000
  H   H2103     1.0  0.35601  0.91830  0.69584  1.0000
  H   H2104     1.0  0.40781  0.95579  0.70174  1.0000
  P   P89       1.0  0.33920  0.95361  0.50606  1.0000
  H   H2105     1.0  0.48449  0.97445  0.62035  1.0000
  C   C2641     1.0  0.33702  0.96557  0.52702  1.0000
  C   C2642     1.0  0.51055  0.96607  0.51833  1.0000
  C   C2643     1.0  0.32635  0.87409  0.71056  1.0000
  C   C2644     1.0  0.38025  0.95396  0.49921  1.0000
  C   C2645     1.0  0.32204  0.95658  0.70619  1.0000
  H   H2106     1.0  0.55631  0.94567  0.49434  1.0000
  H   H2107     1.0  0.34554  0.88768  0.54845  1.0000
  C   C2646     1.0  0.61876  0.96559  0.56657  1.0000
  H   H2108     1.0  0.63870  0.95549  0.58764  1.0000
  C   C2647     1.0  0.52717  0.97432  0.50745  1.0000
  H   H2109     1.0  0.34110  0.96001  0.65790  1.0000
  C   C2648     1.0  0.35184  0.89112  0.71591  1.0000
  S   S341      1.0  0.59490  0.97654  0.53785  1.0000
  C   C2649     1.0  0.65107  0.86444  0.67713  1.0000
  H   H2110     1.0  0.32860  0.87208  0.52910  1.0000
  C   C2650     1.0  0.54044  0.87628  0.70774  1.0000
  H   H2111     1.0  0.54048  0.90708  0.70851  1.0000
  H   H2112     1.0  0.55429  0.96876  0.54378  1.0000
  C   C2651     1.0  0.32751  0.91845  0.50170  1.0000
  C   C2652     1.0  0.64589  0.84841  0.71688  1.0000
  H   H2113     1.0  0.64054  0.96454  0.49431  1.0000
  C   C2653     1.0  0.32339  0.96882  0.56078  1.0000
  C   C2654     1.0  0.32539  0.95894  0.54489  1.0000
  C   C2655     1.0  0.32468  0.89849  0.50752  1.0000
  H   H2114     1.0  0.36542  0.97577  0.66812  1.0000
  H   H2115     1.0  0.43845  0.95680  0.67734  1.0000
  S   S342      1.0  0.44267  0.97719  0.51915  1.0000
  C   C2656     1.0  0.42585  0.96872  0.67599  1.0000
  C   C2657     1.0  0.47132  0.96762  0.62181  1.0000
  C   C2658     1.0  0.39006  0.97209  0.62976  1.0000
  H   H2116     1.0  0.65292  0.87067  0.66182  1.0000
  H   H2117     1.0  0.65215  0.91651  0.70161  1.0000
  C   C2659     1.0  0.33053  0.79505  0.81639  1.0000
  C   C2660     1.0  0.61563  0.69953  0.88521  1.0000
  S   S343      1.0  0.44941  0.94702  0.87213  1.0000
  C   C2661     1.0  0.62530  0.71954  0.91185  1.0000
  Fe  Fe168     1.0  0.50703  0.93101  0.85953  1.0000
  S   S344      1.0  0.48605  0.90893  0.86999  1.0000
  S   S345      1.0  0.53965  0.91813  0.85452  1.0000
  Fe  Fe169     1.0  0.46670  0.92832  0.84973  1.0000
  S   S346      1.0  0.45772  0.91673  0.82564  1.0000
  Fe  Fe170     1.0  0.47092  0.92929  0.89154  1.0000
  S   S347      1.0  0.46388  0.91467  0.92303  1.0000
  H   H2118     1.0  0.33336  0.76971  0.76724  1.0000
  C   C2662     1.0  0.40855  0.73283  0.81792  1.0000
  S   S348      1.0  0.49340  0.95019  0.88239  1.0000
  C   C2663     1.0  0.63268  0.74525  0.80928  1.0000
  H   H2119     1.0  0.58003  0.94816  0.93001  1.0000
  C   C2664     1.0  0.44678  0.74768  0.81622  1.0000
  S   S349      1.0  0.40143  0.65811  0.91916  1.0000
  H   H2120     1.0  0.38972  0.72072  0.84405  1.0000
  H   H2121     1.0  0.49714  0.73363  0.81344  1.0000
  S   S350      1.0  0.56763  0.84612  0.74877  1.0000
  S   S351      1.0  0.42168  0.60031  0.92639  1.0000
  C   C2665     1.0  0.65168  0.63286  0.95000  1.0000
  C   C2666     1.0  0.62656  0.77894  0.81704  1.0000
  C   C2667     1.0  0.46505  0.73680  0.82074  1.0000
  H   H2122     1.0  0.57544  0.92397  0.73634  1.0000
  S   S352      1.0  0.44237  0.48626  0.91743  1.0000
  H   H2123     1.0  0.35494  0.68726  0.92469  1.0000
  C   C2668     1.0  0.46493  0.76894  0.78998  1.0000
  H   H2124     1.0  0.34429  0.86379  0.73333  1.0000
  H   H2125     1.0  0.59575  0.83036  0.94731  1.0000
  C   C2669     1.0  0.44228  0.53081  0.96882  1.0000
  S   S353      1.0  0.60637  0.60796  0.91195  1.0000
  H   H2126     1.0  0.43154  0.73114  0.94590  1.0000
  H   H2127     1.0  0.49748  0.85473  0.73167  1.0000
  H   H2128     1.0  0.37276  0.73933  0.90782  1.0000
  C   C2670     1.0  0.59784  0.52170  0.96896  1.0000
  C   C2671     1.0  0.51015  0.48154  0.89562  1.0000
  Fe  Fe171     1.0  0.59821  0.81813  0.78888  1.0000
  S   S354      1.0  0.60865  0.84353  0.76655  1.0000
  Fe  Fe172     1.0  0.56018  0.82083  0.77252  1.0000
  Fe  Fe173     1.0  0.57691  0.85872  0.77168  1.0000
  S   S355      1.0  0.56824  0.89187  0.77170  1.0000
  S   S356      1.0  0.56713  0.83486  0.79580  1.0000
  Fe  Fe174     1.0  0.39477  0.85834  0.79144  1.0000
  S   S357      1.0  0.41460  0.82963  0.78552  1.0000
  S   S358      1.0  0.39082  0.86751  0.82104  1.0000
  Fe  Fe175     1.0  0.38964  0.82497  0.77193  1.0000
  S   S359      1.0  0.38222  0.79359  0.77712  1.0000
  H   H2129     1.0  0.54306  0.55763  0.95092  1.0000
  S   S360      1.0  0.36883  0.85261  0.77981  1.0000
  P   P90       1.0  0.54403  0.89044  0.95210  1.0000
  H   H2130     1.0  0.57620  0.91285  0.93282  1.0000
  C   C2672     1.0  0.36121  0.78687  0.79399  1.0000
  C   C2673     1.0  0.35838  0.76680  0.79794  1.0000
  C   C2674     1.0  0.34178  0.76079  0.81112  1.0000
  C   C2675     1.0  0.34136  0.68661  0.95467  1.0000
  H   H2131     1.0  0.61956  0.78659  0.73455  1.0000
  C   C2676     1.0  0.34733  0.80097  0.80342  1.0000
  H   H2132     1.0  0.36896  0.75593  0.79054  1.0000
  H   H2133     1.0  0.33971  0.74528  0.81395  1.0000
  C   C2677     1.0  0.34391  0.82084  0.85861  1.0000
  H   H2134     1.0  0.34947  0.81642  0.80058  1.0000
  C   C2678     1.0  0.49254  0.81310  0.77664  1.0000
  C   C2679     1.0  0.47565  0.82233  0.76825  1.0000
  H   H2135     1.0  0.49115  0.80148  0.78919  1.0000
  H   H2136     1.0  0.46134  0.81772  0.77417  1.0000
  C   C2680     1.0  0.51121  0.81896  0.76896  1.0000
  C   C2681     1.0  0.40506  0.50915  0.91937  1.0000
  S   S361      1.0  0.59071  0.80239  0.76714  1.0000
  C   C2682     1.0  0.61268  0.50044  0.93775  1.0000
  H   H2137     1.0  0.34089  0.81754  0.91421  1.0000
  H   H2138     1.0  0.33582  0.81767  0.94956  1.0000
  H   H2139     1.0  0.40903  0.67663  0.94799  1.0000
  C   C2683     1.0  0.64712  0.78713  0.74379  1.0000
  C   C2684     1.0  0.61389  0.52081  0.93539  1.0000
  Fe  Fe176     1.0  0.43295  0.59339  0.95488  1.0000
  C   C2685     1.0  0.41755  0.70531  0.94730  1.0000
  C   C2686     1.0  0.64545  0.58562  0.82740  1.0000
  H   H2140     1.0  0.62050  0.52843  0.92152  1.0000
  C   C2687     1.0  0.63557  0.64852  0.95068  1.0000
  C   C2688     1.0  0.38762  0.66103  0.90030  1.0000
  C   C2689     1.0  0.38129  0.68031  0.89084  1.0000
  C   C2690     1.0  0.36980  0.68308  0.87611  1.0000
  C   C2691     1.0  0.36517  0.66653  0.87032  1.0000
  C   C2692     1.0  0.37197  0.64720  0.87941  1.0000
  C   C2693     1.0  0.38290  0.64445  0.89461  1.0000
  H   H2141     1.0  0.38495  0.69313  0.89515  1.0000
  H   H2142     1.0  0.36477  0.69797  0.86898  1.0000
  H   H2143     1.0  0.36850  0.63436  0.87489  1.0000
  H   H2144     1.0  0.38781  0.62951  0.90178  1.0000
  C   C2694     1.0  0.35690  0.50778  0.95606  1.0000
  C   C2695     1.0  0.41842  0.54204  0.92731  1.0000
  C   C2696     1.0  0.43175  0.52442  0.92447  1.0000
  C   C2697     1.0  0.42509  0.50795  0.92070  1.0000
  H   H2145     1.0  0.42362  0.55466  0.93048  1.0000
  H   H2146     1.0  0.44715  0.52326  0.92566  1.0000
  C   C2698     1.0  0.32348  0.83946  0.88312  1.0000
  C   C2699     1.0  0.53747  0.96136  0.72669  1.0000
  H   H2147     1.0  0.39218  0.93644  0.77608  1.0000
  C   C2700     1.0  0.62621  0.72836  0.89229  1.0000
  C   C2701     1.0  0.62998  0.61525  0.90696  1.0000
  H   H2148     1.0  0.63359  0.54957  0.80718  1.0000
  H   H2149     1.0  0.63047  0.73492  0.80055  1.0000
  C   C2702     1.0  0.54881  0.50825  0.97002  1.0000
  Fe  Fe177     1.0  0.59890  0.82917  0.74521  1.0000
  C   C2703     1.0  0.48307  0.74198  0.80989  1.0000
  C   C2704     1.0  0.43908  0.90264  0.82559  1.0000
  C   C2705     1.0  0.42342  0.89982  0.84120  1.0000
  C   C2706     1.0  0.40870  0.88880  0.83991  1.0000
  C   C2707     1.0  0.40964  0.88063  0.82304  1.0000
  C   C2708     1.0  0.42551  0.88320  0.80771  1.0000
  C   C2709     1.0  0.44008  0.89420  0.80895  1.0000
  H   H2150     1.0  0.42245  0.90648  0.85399  1.0000
  H   H2151     1.0  0.39644  0.88690  0.85184  1.0000
  H   H2152     1.0  0.42663  0.87677  0.79479  1.0000
  H   H2153     1.0  0.45222  0.89622  0.79688  1.0000
  C   C2710     1.0  0.54714  0.91051  0.83164  1.0000
  C   C2711     1.0  0.55864  0.89165  0.82993  1.0000
  C   C2712     1.0  0.56491  0.88562  0.81159  1.0000
  C   C2713     1.0  0.56018  0.89870  0.79490  1.0000
  C   C2714     1.0  0.54897  0.91765  0.79664  1.0000
  C   C2715     1.0  0.54216  0.92342  0.81500  1.0000
  H   H2154     1.0  0.56257  0.88165  0.84277  1.0000
  H   H2155     1.0  0.57370  0.87105  0.81031  1.0000
  H   H2156     1.0  0.54521  0.92773  0.78380  1.0000
  H   H2157     1.0  0.53337  0.93801  0.81624  1.0000
  S   S362      1.0  0.40829  0.57623  0.97011  1.0000
  C   C2716     1.0  0.35612  0.69068  0.93861  1.0000
  C   C2717     1.0  0.47144  0.91787  0.95877  1.0000
  C   C2718     1.0  0.46926  0.92768  0.93988  1.0000
  C   C2719     1.0  0.47130  0.94786  0.93463  1.0000
  C   C2720     1.0  0.47529  0.95822  0.94816  1.0000
  H   H2158     1.0  0.35060  0.77081  0.91359  1.0000
  H   H2159     1.0  0.46941  0.95563  0.92023  1.0000
  P   P91       1.0  0.39410  0.71531  0.96091  1.0000
  S   S363      1.0  0.61479  0.58165  0.96534  1.0000
  C   C2721     1.0  0.60620  0.53151  0.95090  1.0000
  H   H2160     1.0  0.43042  0.68075  0.89607  1.0000
  C   C2722     1.0  0.35218  0.76589  0.89973  1.0000
  P   P92       1.0  0.61825  0.68879  0.94334  1.0000
  H   H2161     1.0  0.42420  0.74263  0.78898  1.0000
  Fe  Fe178     1.0  0.42519  0.84705  0.75639  1.0000
  C   C2723     1.0  0.33076  0.82109  0.87643  1.0000
  C   C2724     1.0  0.59455  0.68095  0.95453  1.0000
  H   H2162     1.0  0.41665  0.71538  0.90166  1.0000
  H   H2163     1.0  0.43353  0.76839  0.85433  1.0000
  C   C2725     1.0  0.38911  0.79797  0.83006  1.0000
  C   C2726     1.0  0.40177  0.72574  0.78791  1.0000
  H   H2164     1.0  0.60689  0.54730  0.94890  1.0000
  C   C2727     1.0  0.39557  0.77781  0.82834  1.0000
  C   C2728     1.0  0.42694  0.72375  0.85201  1.0000
  H   H2165     1.0  0.38883  0.77115  0.81923  1.0000
  C   C2729     1.0  0.56638  0.94310  0.93796  1.0000
  S   S364      1.0  0.48910  0.94906  0.83755  1.0000
  H   H2166     1.0  0.59988  0.72938  0.94960  1.0000
  S   S365      1.0  0.35140  0.66989  0.85138  1.0000
  C   C2730     1.0  0.41262  0.73462  0.79754  1.0000
  C   C2731     1.0  0.54646  0.91643  0.94985  1.0000
  H   H2167     1.0  0.35722  0.74624  0.85111  1.0000
  H   H2168     1.0  0.41348  0.74270  0.87381  1.0000
  C   C2732     1.0  0.38897  0.77092  0.92737  1.0000
  C   C2733     1.0  0.54683  0.52896  0.96897  1.0000
  C   C2734     1.0  0.37334  0.75347  0.96481  1.0000
  Fe  Fe179     1.0  0.39560  0.58570  0.94266  1.0000
  S   S366      1.0  0.37681  0.61368  0.95181  1.0000
  C   C2735     1.0  0.38228  0.71367  0.81871  1.0000
  C   C2736     1.0  0.56415  0.92310  0.93960  1.0000
  C   C2737     1.0  0.62214  0.70481  0.95903  1.0000
  H   H2169     1.0  0.39473  0.77764  0.91274  1.0000
  C   C2738     1.0  0.63855  0.66816  0.94268  1.0000
  H   H2170     1.0  0.39134  0.97319  0.77040  1.0000
  C   C2739     1.0  0.62110  0.71849  0.87905  1.0000
  H   H2171     1.0  0.61961  0.88219  0.75031  1.0000
  S   S367      1.0  0.62225  0.48719  0.91823  1.0000
  H   H2172     1.0  0.39991  0.49658  0.91607  1.0000
  C   C2740     1.0  0.38667  0.71521  0.79849  1.0000
  C   C2741     1.0  0.37573  0.78267  0.93986  1.0000
  H   H2173     1.0  0.35696  0.78272  0.96808  1.0000
  C   C2742     1.0  0.38701  0.96624  0.75980  1.0000
  C   C2743     1.0  0.32766  0.77496  0.82017  1.0000
  H   H2174     1.0  0.52718  0.83876  0.74678  1.0000
  H   H2175     1.0  0.64396  0.84237  0.73222  1.0000
  H   H2176     1.0  0.33415  0.96685  0.72727  1.0000
  S   S368      1.0  0.53218  0.80654  0.77949  1.0000
  H   H2177     1.0  0.43305  0.77291  0.79730  1.0000
  C   C2744     1.0  0.57947  0.88068  0.96712  1.0000
  H   H2178     1.0  0.46393  0.71686  0.92798  1.0000
  C   C2745     1.0  0.44691  0.76395  0.80086  1.0000
  C   C2746     1.0  0.43915  0.67763  0.93341  1.0000
  H   H2179     1.0  0.40497  0.72718  0.77219  1.0000
  H   H2180     1.0  0.54889  0.67851  0.94489  1.0000
  H   H2181     1.0  0.52660  0.97233  0.73385  1.0000
  H   H2182     1.0  0.56697  0.97177  0.86615  1.0000
  S   S369      1.0  0.36985  0.89350  0.72930  1.0000
  H   H2183     1.0  0.37756  0.80658  0.82226  1.0000
  C   C2747     1.0  0.57924  0.55384  0.86088  1.0000
  C   C2748     1.0  0.59595  0.54002  0.86529  1.0000
  C   C2749     1.0  0.59573  0.52905  0.88400  1.0000
  C   C2750     1.0  0.57880  0.53173  0.89830  1.0000
  C   C2751     1.0  0.56179  0.54531  0.89389  1.0000
  C   C2752     1.0  0.56228  0.55658  0.87516  1.0000
  P   P93       1.0  0.54007  0.54991  0.91234  1.0000
  C   C2753     1.0  0.51796  0.54391  0.90652  1.0000
  C   C2754     1.0  0.54358  0.53378  0.93498  1.0000
  C   C2755     1.0  0.54531  0.51296  0.93619  1.0000
  H   H2184     1.0  0.37645  0.72703  0.87662  1.0000
  H   H2185     1.0  0.61551  0.77077  0.79396  1.0000
  H   H2186     1.0  0.48024  0.48321  0.89060  1.0000
  C   C2756     1.0  0.32968  0.80963  0.92375  1.0000
  C   C2757     1.0  0.50035  0.54482  0.92033  1.0000
  C   C2758     1.0  0.48272  0.54160  0.91576  1.0000
  C   C2759     1.0  0.48270  0.53627  0.89779  1.0000
  C   C2760     1.0  0.50039  0.53430  0.88432  1.0000
  C   C2761     1.0  0.51800  0.53811  0.88863  1.0000
  C   C2762     1.0  0.53688  0.57606  0.91484  1.0000
  C   C2763     1.0  0.55378  0.58515  0.91306  1.0000
  C   C2764     1.0  0.55164  0.60522  0.91521  1.0000
  C   C2765     1.0  0.53270  0.61631  0.91952  1.0000
  C   C2766     1.0  0.51582  0.60754  0.92106  1.0000
  C   C2767     1.0  0.51785  0.58759  0.91860  1.0000
  H   H2187     1.0  0.57947  0.56258  0.84647  1.0000
  H   H2188     1.0  0.60915  0.53795  0.85431  1.0000
  H   H2189     1.0  0.60876  0.51857  0.88760  1.0000
  H   H2190     1.0  0.57935  0.52339  0.91278  1.0000
  H   H2191     1.0  0.54957  0.56763  0.87169  1.0000
  H   H2192     1.0  0.54483  0.50652  0.92357  1.0000
  C   C2768     1.0  0.59117  0.84439  0.95290  1.0000
  H   H2193     1.0  0.34734  0.50978  0.94530  1.0000
  C   C2769     1.0  0.35612  0.75182  0.86460  1.0000
  H   H2194     1.0  0.50002  0.54875  0.93445  1.0000
  H   H2195     1.0  0.46903  0.54369  0.92612  1.0000
  H   H2196     1.0  0.46897  0.53369  0.89429  1.0000
  H   H2197     1.0  0.50040  0.52993  0.87047  1.0000
  H   H2198     1.0  0.53148  0.53646  0.87799  1.0000
  H   H2199     1.0  0.56868  0.57670  0.91038  1.0000
  H   H2200     1.0  0.56472  0.61204  0.91410  1.0000
  H   H2201     1.0  0.53114  0.63161  0.92193  1.0000
  H   H2202     1.0  0.50109  0.61606  0.92461  1.0000
  H   H2203     1.0  0.50440  0.58143  0.92000  1.0000
  H   H2204     1.0  0.62093  0.64511  0.95739  1.0000
  C   C2770     1.0  0.39311  0.72248  0.82836  1.0000
  H   H2205     1.0  0.36045  0.83834  0.83440  1.0000
  H   H2206     1.0  0.50612  0.49328  0.90450  1.0000
  C   C2771     1.0  0.34381  0.85646  0.85542  1.0000
  C   C2772     1.0  0.38200  0.93650  0.74939  1.0000
  C   C2773     1.0  0.48146  0.59071  0.96382  1.0000
  H   H2207     1.0  0.38355  0.70218  0.92787  1.0000
  C   C2774     1.0  0.53821  0.88806  0.92912  1.0000
  C   C2775     1.0  0.55353  0.88490  0.91323  1.0000
  C   C2776     1.0  0.54897  0.88263  0.89558  1.0000
  C   C2777     1.0  0.52915  0.88364  0.89364  1.0000
  C   C2778     1.0  0.51383  0.88749  0.90915  1.0000
  C   C2779     1.0  0.51828  0.89005  0.92672  1.0000
  C   C2780     1.0  0.63174  0.77784  0.74145  1.0000
  C   C2781     1.0  0.54431  0.54169  0.95149  1.0000
  H   H2208     1.0  0.64824  0.73016  0.76144  1.0000
  C   C2782     1.0  0.50033  0.58023  0.96680  1.0000
  H   H2209     1.0  0.63991  0.78224  0.84087  1.0000
  C   C2783     1.0  0.49605  0.84320  0.74430  1.0000
  C   C2784     1.0  0.54812  0.50023  0.95361  1.0000
  P   P94       1.0  0.42326  0.74271  0.83107  1.0000
  C   C2785     1.0  0.55584  0.96869  0.87892  1.0000
  H   H2210     1.0  0.55116  0.94923  0.75203  1.0000
  H   H2211     1.0  0.52006  0.85850  0.95821  1.0000
  S   S370      1.0  0.41719  0.62207  0.96515  1.0000
  S   S371      1.0  0.45675  0.84834  0.74039  1.0000
  C   C2786     1.0  0.53311  0.95021  0.95614  1.0000
  C   C2787     1.0  0.53618  0.94508  0.90009  1.0000
  H   H2212     1.0  0.44920  0.87646  0.94186  1.0000
  H   H2213     1.0  0.56896  0.88434  0.91436  1.0000
  H   H2214     1.0  0.56069  0.88062  0.88314  1.0000
  H   H2215     1.0  0.52564  0.88224  0.87981  1.0000
  H   H2216     1.0  0.49845  0.88896  0.90739  1.0000
  H   H2217     1.0  0.50610  0.89372  0.93829  1.0000
  H   H2218     1.0  0.47688  0.97384  0.94392  1.0000
  C   C2788     1.0  0.35031  0.83849  0.84816  1.0000
  C   C2789     1.0  0.56521  0.93405  0.72788  1.0000
  H   H2219     1.0  0.63032  0.72700  0.92158  1.0000
  C   C2790     1.0  0.34302  0.76935  0.86802  1.0000
  C   C2791     1.0  0.42962  0.89227  0.96341  1.0000
  C   C2792     1.0  0.49757  0.48593  0.95789  1.0000
  C   C2793     1.0  0.32396  0.82756  0.75468  1.0000
  H   H2220     1.0  0.46358  0.84960  0.96613  1.0000
  H   H2221     1.0  0.56346  0.85112  0.94210  1.0000
  C   C2794     1.0  0.43596  0.68858  0.86499  1.0000
  C   C2795     1.0  0.41376  0.79632  0.85023  1.0000
  C   C2796     1.0  0.39822  0.80725  0.84094  1.0000
  H   H2222     1.0  0.43894  0.70031  0.83453  1.0000
  H   H2223     1.0  0.44136  0.67325  0.86269  1.0000
  H   H2224     1.0  0.42112  0.80371  0.85824  1.0000
  H   H2225     1.0  0.39369  0.82307  0.84171  1.0000
  H   H2226     1.0  0.49697  0.76218  0.78621  1.0000
  H   H2227     1.0  0.37216  0.94067  0.72207  1.0000
  H   H2228     1.0  0.45039  0.48072  0.95571  1.0000
  H   H2229     1.0  0.34924  0.80713  0.85268  1.0000
  C   C2797     1.0  0.37222  0.69924  0.94047  1.0000
  C   C2798     1.0  0.60419  0.89434  0.72619  1.0000
  C   C2799     1.0  0.64659  0.75170  0.83559  1.0000
  H   H2230     1.0  0.61774  0.57607  0.82717  1.0000
  C   C2800     1.0  0.33051  0.78586  0.76341  1.0000
  H   H2231     1.0  0.37061  0.70541  0.82693  1.0000
  S   S372      1.0  0.46463  0.57802  0.95720  1.0000
  C   C2801     1.0  0.34123  0.81660  0.74558  1.0000
  C   C2802     1.0  0.36694  0.74105  0.87891  1.0000
  H   H2232     1.0  0.61262  0.69150  0.87472  1.0000
  H   H2233     1.0  0.38241  0.92042  0.75186  1.0000
  C   C2803     1.0  0.42040  0.72785  0.87109  1.0000
  Fe  Fe180     1.0  0.47329  0.96645  0.86131  1.0000
  C   C2804     1.0  0.33022  0.85700  0.87280  1.0000
  C   C2805     1.0  0.45179  0.70825  0.93212  1.0000
  C   C2806     1.0  0.56722  0.87475  0.95651  1.0000
  H   H2234     1.0  0.63149  0.74258  0.88726  1.0000
  S   S373      1.0  0.40200  0.83990  0.74195  1.0000
  C   C2807     1.0  0.43338  0.71636  0.94209  1.0000
  C   C2808     1.0  0.45466  0.68889  0.92772  1.0000
  C   C2809     1.0  0.42197  0.71240  0.88695  1.0000
  H   H2235     1.0  0.61782  0.84165  0.96507  1.0000
  H   H2236     1.0  0.51294  0.95725  0.92159  1.0000
  H   H2237     1.0  0.37630  0.52804  0.92058  1.0000
  C   C2810     1.0  0.47718  0.94855  0.96706  1.0000
  C   C2811     1.0  0.38712  0.74169  0.95262  1.0000
  Fe  Fe181     1.0  0.40389  0.62769  0.93774  1.0000
  H   H2238     1.0  0.47666  0.50069  0.93887  1.0000
  Fe  Fe182     1.0  0.38309  0.86802  0.75082  1.0000
  H   H2239     1.0  0.47011  0.90221  0.96290  1.0000
  H   H2240     1.0  0.37824  0.70833  0.79105  1.0000
  C   C2812     1.0  0.48301  0.75805  0.79454  1.0000
  C   C2813     1.0  0.63793  0.77195  0.83197  1.0000
  C   C2814     1.0  0.55094  0.95662  0.94643  1.0000
  H   H2241     1.0  0.63793  0.48920  0.87382  1.0000
  P   P95       1.0  0.32262  0.79830  0.89034  1.0000
  C   C2815     1.0  0.55142  0.94926  0.88452  1.0000
  C   C2816     1.0  0.42060  0.77629  0.84813  1.0000
  C   C2817     1.0  0.61884  0.70091  0.91835  1.0000
  C   C2818     1.0  0.36495  0.74806  0.89647  1.0000
  H   H2242     1.0  0.64287  0.59051  0.92646  1.0000
  C   C2819     1.0  0.62041  0.89105  0.73594  1.0000
  C   C2820     1.0  0.55130  0.94840  0.73694  1.0000
  C   C2821     1.0  0.37363  0.70378  0.95850  1.0000
  H   H2243     1.0  0.49156  0.84896  0.90539  1.0000
  C   C2822     1.0  0.63199  0.75739  0.74802  1.0000
  S   S374      1.0  0.56993  0.58382  0.95596  1.0000
  C   C2823     1.0  0.42070  0.68579  0.94321  1.0000
  S   S375      1.0  0.38122  0.56439  0.93195  1.0000
  H   H2244     1.0  0.44132  0.66251  0.93024  1.0000
  C   C2824     1.0  0.52528  0.96038  0.91003  1.0000
  H   H2245     1.0  0.55923  0.93756  0.87626  1.0000
  C   C2825     1.0  0.64799  0.74603  0.75639  1.0000
  C   C2826     1.0  0.34454  0.79575  0.75000  1.0000
  C   C2827     1.0  0.53072  0.93030  0.95753  1.0000
  Fe  Fe183     1.0  0.59602  0.59987  0.94408  1.0000
  C   C2828     1.0  0.39174  0.52693  0.92191  1.0000
  H   H2246     1.0  0.34926  0.86998  0.84744  1.0000
  C   C2829     1.0  0.56071  0.67721  0.95317  1.0000
  C   C2830     1.0  0.47738  0.83732  0.75199  1.0000
  C   C2831     1.0  0.61481  0.69062  0.90471  1.0000
  C   C2832     1.0  0.34094  0.77657  0.88557  1.0000
  H   H2247     1.0  0.33411  0.77706  0.85716  1.0000
  C   C2833     1.0  0.47934  0.48936  0.95134  1.0000
  H   H2248     1.0  0.51655  0.92589  0.96451  1.0000
  H   H2249     1.0  0.40434  0.74152  0.92360  1.0000
  C   C2834     1.0  0.59760  0.86871  0.97027  1.0000
  C   C2835     1.0  0.39832  0.54318  0.92640  1.0000
  H   H2250     1.0  0.62215  0.72517  0.86384  1.0000
  H   H2251     1.0  0.63958  0.83506  0.79353  1.0000
  C   C2836     1.0  0.45575  0.83308  0.81140  1.0000
  C   C2837     1.0  0.45406  0.81320  0.81929  1.0000
  C   C2838     1.0  0.46655  0.80243  0.83220  1.0000
  C   C2839     1.0  0.48080  0.81156  0.83713  1.0000
  C   C2840     1.0  0.48328  0.83120  0.82841  1.0000
  C   C2841     1.0  0.47034  0.84202  0.81582  1.0000
  P   P96       1.0  0.50087  0.84350  0.83538  1.0000
  C   C2842     1.0  0.48813  0.85248  0.85760  1.0000
  C   C2843     1.0  0.52469  0.82787  0.83761  1.0000
  C   C2844     1.0  0.53892  0.83491  0.84496  1.0000
  C   C2845     1.0  0.55766  0.82329  0.84628  1.0000
  C   C2846     1.0  0.56252  0.80480  0.83979  1.0000
  C   C2847     1.0  0.54878  0.79810  0.83165  1.0000
  C   C2848     1.0  0.53003  0.80968  0.83035  1.0000
  C   C2849     1.0  0.46968  0.86515  0.85766  1.0000
  C   C2850     1.0  0.45928  0.87201  0.87472  1.0000
  C   C2851     1.0  0.46722  0.86630  0.89189  1.0000
  C   C2852     1.0  0.48539  0.85336  0.89209  1.0000
  C   C2853     1.0  0.49572  0.84627  0.87507  1.0000
  C   C2854     1.0  0.50666  0.86367  0.81600  1.0000
  C   C2855     1.0  0.50278  0.88363  0.81909  1.0000
  C   C2856     1.0  0.50677  0.89897  0.80358  1.0000
  C   C2857     1.0  0.51507  0.89447  0.78502  1.0000
  C   C2858     1.0  0.51934  0.87461  0.78193  1.0000
  C   C2859     1.0  0.51510  0.85927  0.79735  1.0000
  H   H2252     1.0  0.44606  0.84157  0.80148  1.0000
  H   H2253     1.0  0.44312  0.80620  0.81528  1.0000
  H   H2254     1.0  0.46524  0.78703  0.83831  1.0000
  H   H2255     1.0  0.49001  0.80327  0.84755  1.0000
  H   H2256     1.0  0.47137  0.85745  0.80941  1.0000
  H   H2257     1.0  0.53570  0.84964  0.84917  1.0000
  H   H2258     1.0  0.56876  0.82898  0.85150  1.0000
  H   H2259     1.0  0.57733  0.79618  0.84008  1.0000
  H   H2260     1.0  0.55303  0.78442  0.82545  1.0000
  H   H2261     1.0  0.52023  0.80479  0.82281  1.0000
  H   H2262     1.0  0.46348  0.87004  0.84439  1.0000
  H   H2263     1.0  0.44536  0.88228  0.87441  1.0000
  H   H2264     1.0  0.45944  0.87225  0.90489  1.0000
  H   H2265     1.0  0.46893  0.68251  0.92010  1.0000
  H   H2266     1.0  0.50952  0.83596  0.87569  1.0000
  H   H2267     1.0  0.49655  0.88755  0.83330  1.0000
  H   H2268     1.0  0.50349  0.91437  0.80603  1.0000
  H   H2269     1.0  0.51863  0.90634  0.77313  1.0000
  H   H2270     1.0  0.52612  0.87107  0.76763  1.0000
  H   H2271     1.0  0.51842  0.84395  0.79474  1.0000
  H   H2272     1.0  0.42371  0.90417  0.95269  1.0000
  H   H2273     1.0  0.46491  0.78138  0.77804  1.0000
  H   H2274     1.0  0.53225  0.93018  0.90386  1.0000
  S   S376      1.0  0.40711  0.87620  0.76333  1.0000
  H   H2275     1.0  0.32866  0.68052  0.95303  1.0000
  S   S377      1.0  0.61541  0.80437  0.81356  1.0000
  H   H2276     1.0  0.46199  0.61906  0.96397  1.0000
  H   H2277     1.0  0.61980  0.75039  0.74653  1.0000
  C   C2860     1.0  0.43456  0.70395  0.84912  1.0000
  C   C2861     1.0  0.42975  0.69282  0.88387  1.0000
  H   H2278     1.0  0.62145  0.64139  0.88651  1.0000
  H   H2279     1.0  0.65057  0.80240  0.78242  1.0000
  H   H2280     1.0  0.58049  0.68992  0.92887  1.0000
  C   C2862     1.0  0.57888  0.68336  0.94404  1.0000
  H   H2281     1.0  0.61134  0.67556  0.90911  1.0000
  C   C2863     1.0  0.47653  0.61087  0.96610  1.0000
  C   C2864     1.0  0.39451  0.75046  0.93365  1.0000
  C   C2865     1.0  0.41150  0.76687  0.83721  1.0000
  H   H2282     1.0  0.59100  0.88785  0.73317  1.0000
  C   C2866     1.0  0.57295  0.85626  0.94984  1.0000
  C   C2867     1.0  0.63347  0.63239  0.89343  1.0000
  C   C2868     1.0  0.51288  0.83419  0.75286  1.0000
  H   H2283     1.0  0.37142  0.79850  0.93501  1.0000
  C   C2869     1.0  0.62415  0.76555  0.80555  1.0000
  C   C2870     1.0  0.64551  0.60375  0.91600  1.0000
  C   C2871     1.0  0.60407  0.49075  0.95570  1.0000
  C   C2872     1.0  0.38748  0.94553  0.76304  1.0000
  C   C2873     1.0  0.37615  0.94812  0.73247  1.0000
  C   C2874     1.0  0.44408  0.87663  0.95728  1.0000
  H   H2284     1.0  0.46555  0.72453  0.83274  1.0000
  C   C2875     1.0  0.36775  0.77389  0.95850  1.0000
  C   C2876     1.0  0.63374  0.57369  0.82237  1.0000
  H   H2285     1.0  0.50417  0.56460  0.96528  1.0000
  C   C2877     1.0  0.38115  0.97794  0.74287  1.0000
  H   H2286     1.0  0.35829  0.78729  0.74352  1.0000
  S   S378      1.0  0.32201  0.71867  0.87075  1.0000
  H   H2287     1.0  0.32519  0.84423  0.78609  1.0000
  C   C2878     1.0  0.60358  0.85070  0.96294  1.0000
  C   C2879     1.0  0.37560  0.96898  0.72905  1.0000
  H   H2288     1.0  0.32823  0.63349  0.96767  1.0000
  S   S379      1.0  0.58449  0.62465  0.96150  1.0000
  H   H2289     1.0  0.64925  0.61769  0.95605  1.0000
  H   H2290     1.0  0.55263  0.97213  0.94515  1.0000
  C   C2880     1.0  0.35979  0.52433  0.96315  1.0000
  H   H2291     1.0  0.52093  0.96071  0.96237  1.0000
  H   H2292     1.0  0.35256  0.53920  0.95776  1.0000
  C   C2881     1.0  0.63758  0.89924  0.72721  1.0000
  H   H2293     1.0  0.64656  0.80305  0.73868  1.0000
  C   C2882     1.0  0.61048  0.72382  0.95945  1.0000
  H   H2294     1.0  0.33292  0.85929  0.81177  1.0000
  C   C2883     1.0  0.36709  0.48882  0.96217  1.0000
  C   C2884     1.0  0.65243  0.63806  0.88902  1.0000
  H   H2295     1.0  0.54996  0.48416  0.95429  1.0000
  H   H2296     1.0  0.44370  0.54263  0.95639  1.0000
  H   H2297     1.0  0.32497  0.87104  0.87828  1.0000
  H   H2298     1.0  0.65030  0.89633  0.73459  1.0000
  C   C2885     1.0  0.64267  0.55876  0.81115  1.0000
  H   H2299     1.0  0.32169  0.84372  0.75129  1.0000
  H   H2300     1.0  0.33323  0.74461  0.93415  1.0000
  H   H2301     1.0  0.50909  0.49459  0.95040  1.0000
  C   C2886     1.0  0.32705  0.80955  0.94380  1.0000
  C   C2887     1.0  0.64385  0.73824  0.82435  1.0000
  H   H2302     1.0  0.63831  0.59707  0.83621  1.0000
  Fe  Fe184     1.0  0.32353  0.69256  0.85569  1.0000
  C   C2888     1.0  0.34122  0.87510  0.72105  1.0000
  H   H2303     1.0  0.35230  0.82427  0.73545  1.0000
  C   C2889     1.0  0.64865  0.65061  0.80652  1.0000
  H   H2304     1.0  0.41220  0.52903  0.96709  1.0000
  C   C2890     1.0  0.64832  0.66311  0.81988  1.0000
  H   H2305     1.0  0.64132  0.65632  0.79402  1.0000
  C   C2891     1.0  0.32097  0.73651  0.94009  1.0000
  C   C2892     1.0  0.65229  0.83320  0.78195  1.0000
  C   C2893     1.0  0.64986  0.47964  0.86596  1.0000
  H   H2306     1.0  0.64080  0.67850  0.81777  1.0000
  H   H2307     1.0  0.71427  0.34601  0.09036  1.0000
  S   S380      1.0  0.69799  0.35822  0.01723  1.0000
  H   H2308     1.0  0.82265  0.35126  0.06567  1.0000
  Fe  Fe185     1.0  0.68447  0.31694  0.06104  1.0000
  S   S381      1.0  0.71514  0.31611  0.04304  1.0000
  H   H2309     1.0  0.68388  0.21381  0.08403  1.0000
  Fe  Fe186     1.0  0.71136  0.34902  0.04468  1.0000
  S   S382      1.0  0.73859  0.36108  0.04881  1.0000
  Fe  Fe187     1.0  0.69937  0.32537  0.01706  1.0000
  C   C2894     1.0  0.81165  0.34796  0.07851  1.0000
  S   S383      1.0  0.68167  0.34920  0.06442  1.0000
  H   H2310     1.0  0.71957  0.28261  0.09753  1.0000
  Fe  Fe188     1.0  0.82242  0.41550  0.10833  1.0000
  S   S384      1.0  0.80045  0.43866  0.09374  1.0000
  S   S385      1.0  0.84864  0.39717  0.09230  1.0000
  Fe  Fe189     1.0  0.79964  0.41896  0.14889  1.0000
  S   S386      1.0  0.77540  0.44248  0.13759  1.0000
  S   S387      1.0  0.79827  0.40676  0.18113  1.0000
  Fe  Fe190     1.0  0.77712  0.42324  0.11465  1.0000
  S   S388      1.0  0.74853  0.41787  0.10642  1.0000
  H   H2311     1.0  0.88668  0.38070  0.07361  1.0000
  S   S389      1.0  0.79921  0.39879  0.12779  1.0000
  S   S390      1.0  0.82472  0.43367  0.13041  1.0000
  C   C2895     1.0  0.88676  0.39644  0.07319  1.0000
  C   C2896     1.0  0.87011  0.42873  0.08113  1.0000
  C   C2897     1.0  0.81104  0.35627  0.09508  1.0000
  H   H2312     1.0  0.87803  0.34370  0.17592  1.0000
  Fe  Fe191     1.0  0.80066  0.45592  0.11764  1.0000
  H   H2313     1.0  0.81609  0.35283  0.20990  1.0000
  H   H2314     1.0  0.91692  0.39528  0.05778  1.0000
  C   C2898     1.0  0.70087  0.43516  0.01933  1.0000
  C   C2899     1.0  0.67806  0.15016  0.19199  1.0000
  C   C2900     1.0  0.82143  0.32827  0.17181  1.0000
  C   C2901     1.0  0.85665  0.39506  0.18733  1.0000
  C   C2902     1.0  0.71521  0.31067  0.13092  1.0000
  H   H2315     1.0  0.68677  0.13936  0.18315  1.0000
  H   H2316     1.0  0.77343  0.32143  0.09475  1.0000
  C   C2903     1.0  0.78378  0.33123  0.09506  1.0000
  H   H2317     1.0  0.82154  0.36608  0.09509  1.0000
  C   C2904     1.0  0.79138  0.29895  0.14131  1.0000
  C   C2905     1.0  0.90385  0.40471  0.06417  1.0000
  C   C2906     1.0  0.81289  0.39908  0.04352  1.0000
  C   C2907     1.0  0.83909  0.40169  0.17938  1.0000
  C   C2908     1.0  0.82057  0.39951  0.19095  1.0000
  H   H2318     1.0  0.85715  0.43791  0.08793  1.0000
  H   H2319     1.0  0.83995  0.40835  0.16425  1.0000
  C   C2909     1.0  0.87337  0.43916  0.15517  1.0000
  H   H2320     1.0  0.73534  0.37151  0.12989  1.0000
  S   S391      1.0  0.92628  0.43434  0.05185  1.0000
  H   H2321     1.0  0.69603  0.31895  0.10924  1.0000
  H   H2322     1.0  0.72888  0.40103  0.14603  1.0000
  H   H2323     1.0  0.79014  0.41556  0.02745  1.0000
  C   C2910     1.0  0.74090  0.37686  0.06503  1.0000
  C   C2911     1.0  0.76010  0.37922  0.06696  1.0000
  C   C2912     1.0  0.76275  0.39142  0.07976  1.0000
  C   C2913     1.0  0.74616  0.40172  0.09057  1.0000
  C   C2914     1.0  0.72697  0.39934  0.08865  1.0000
  C   C2915     1.0  0.72433  0.38694  0.07604  1.0000
  H   H2324     1.0  0.77299  0.37141  0.05859  1.0000
  H   H2325     1.0  0.77758  0.39300  0.08117  1.0000
  H   H2326     1.0  0.71404  0.40719  0.09698  1.0000
  H   H2327     1.0  0.70947  0.38526  0.07480  1.0000
  C   C2916     1.0  0.79805  0.33542  0.07851  1.0000
  H   H2328     1.0  0.74882  0.40297  0.17072  1.0000
  H   H2329     1.0  0.73670  0.30523  0.14985  1.0000
  H   H2330     1.0  0.86533  0.45587  0.97233  1.0000
  H   H2331     1.0  0.73411  0.16818  0.18118  1.0000
  C   C2917     1.0  0.76619  0.37373  0.16901  1.0000
  C   C2918     1.0  0.96738  0.35632  0.09352  1.0000
  C   C2919     1.0  0.95275  0.37581  0.19745  1.0000
  H   H2332     1.0  0.79839  0.32912  0.06560  1.0000
  P   P97       1.0  0.76465  0.33421  0.13326  1.0000
  C   C2920     1.0  0.96516  0.37356  0.17964  1.0000
  H   H2333     1.0  0.89319  0.33390  0.21601  1.0000
  C   C2921     1.0  0.93229  0.38228  0.19811  1.0000
  C   C2922     1.0  0.92421  0.38639  0.18101  1.0000
  C   C2923     1.0  0.93648  0.38362  0.16311  1.0000
  C   C2924     1.0  0.95710  0.37749  0.16250  1.0000
  P   P98       1.0  0.92582  0.38886  0.14111  1.0000
  C   C2925     1.0  0.90216  0.37985  0.14601  1.0000
  C   C2926     1.0  0.92289  0.41541  0.13197  1.0000
  C   C2927     1.0  0.91981  0.42245  0.11274  1.0000
  C   C2928     1.0  0.91806  0.44287  0.10540  1.0000
  C   C2929     1.0  0.71352  0.18520  0.20114  1.0000
  C   C2930     1.0  0.92252  0.44965  0.13622  1.0000
  C   C2931     1.0  0.92436  0.42918  0.14364  1.0000
  C   C2932     1.0  0.88711  0.38885  0.13505  1.0000
  C   C2933     1.0  0.86899  0.38163  0.13885  1.0000
  C   C2934     1.0  0.86576  0.36530  0.15346  1.0000
  C   C2935     1.0  0.88068  0.35612  0.16433  1.0000
  C   C2936     1.0  0.89885  0.36326  0.16056  1.0000
  C   C2937     1.0  0.94224  0.37594  0.12268  1.0000
  C   C2938     1.0  0.93991  0.35671  0.12067  1.0000
  C   C2939     1.0  0.95244  0.34697  0.10612  1.0000
  C   C2940     1.0  0.84979  0.46425  0.17127  1.0000
  H   H2334     1.0  0.67048  0.27628  0.05769  1.0000
  C   C2941     1.0  0.95750  0.38510  0.11012  1.0000
  C   C2942     1.0  0.82648  0.30865  0.18109  1.0000
  C   C2943     1.0  0.69009  0.07244  0.20145  1.0000
  C   C2944     1.0  0.69678  0.41747  0.03162  1.0000
  H   H2335     1.0  0.90830  0.39140  0.18185  1.0000
  H   H2336     1.0  0.96698  0.37556  0.14890  1.0000
  H   H2337     1.0  0.91901  0.41219  0.10323  1.0000
  H   H2338     1.0  0.70735  0.40913  0.04078  1.0000
  H   H2339     1.0  0.81408  0.45139  0.17656  1.0000
  H   H2340     1.0  0.92370  0.46022  0.14520  1.0000
  H   H2341     1.0  0.92692  0.42424  0.15844  1.0000
  H   H2342     1.0  0.88915  0.40138  0.12351  1.0000
  H   H2343     1.0  0.85733  0.38882  0.13055  1.0000
  C   C2945     1.0  0.91939  0.45647  0.11709  1.0000
  C   C2946     1.0  0.85105  0.46531  0.97520  1.0000
  H   H2344     1.0  0.91022  0.35584  0.16912  1.0000
  H   H2345     1.0  0.92839  0.34922  0.13019  1.0000
  C   C2947     1.0  0.82745  0.30484  0.20097  1.0000
  H   H2346     1.0  0.83766  0.43134  0.20763  1.0000
  H   H2347     1.0  0.83181  0.46820  0.08071  1.0000
  H   H2348     1.0  0.95974  0.39986  0.11143  1.0000
  H   H2349     1.0  0.82091  0.33125  0.15637  1.0000
  C   C2948     1.0  0.84015  0.46519  0.99415  1.0000
  H   H2350     1.0  0.68637  0.18632  0.15339  1.0000
  C   C2949     1.0  0.65615  0.17864  0.21432  1.0000
  H   H2351     1.0  0.81398  0.35942  0.17520  1.0000
  H   H2352     1.0  0.68520  0.27730  0.01372  1.0000
  P   P99       1.0  0.84955  0.44946  0.01489  1.0000
  C   C2950     1.0  0.87503  0.43790  0.00788  1.0000
  H   H2353     1.0  0.90184  0.40250  0.98117  1.0000
  C   C2951     1.0  0.84774  0.46560  0.03257  1.0000
  H   H2354     1.0  0.91318  0.47779  0.98999  1.0000
  H   H2355     1.0  0.80409  0.38757  0.05083  1.0000
  C   C2952     1.0  0.83742  0.38403  0.21854  1.0000
  H   H2356     1.0  0.82998  0.29643  0.17281  1.0000
  C   C2953     1.0  0.87911  0.42279  0.99627  1.0000
  C   C2954     1.0  0.89877  0.41396  0.99032  1.0000
  C   C2955     1.0  0.91448  0.42002  0.99606  1.0000
  C   C2956     1.0  0.91051  0.43482  0.00784  1.0000
  C   C2957     1.0  0.89087  0.44361  0.01392  1.0000
  C   C2958     1.0  0.83532  0.42944  0.02527  1.0000
  C   C2959     1.0  0.81620  0.43006  0.02118  1.0000
  H   H2357     1.0  0.69097  0.20441  0.21751  1.0000
  S   S392      1.0  0.66911  0.32350  0.03510  1.0000
  C   C2960     1.0  0.83199  0.39824  0.04747  1.0000
  C   C2961     1.0  0.84318  0.41331  0.03837  1.0000
  S   S393      1.0  0.67633  0.29543  0.08877  1.0000
  C   C2962     1.0  0.67256  0.24377  0.15352  1.0000
  C   C2963     1.0  0.84441  0.47343  0.15325  1.0000
  H   H2358     1.0  0.91595  0.44809  0.09047  1.0000
  H   H2359     1.0  0.68772  0.26412  0.98317  1.0000
  C   C2964     1.0  0.86461  0.44722  0.17208  1.0000
  C   C2965     1.0  0.81041  0.47467  0.19430  1.0000
  C   C2966     1.0  0.65520  0.27535  0.16328  1.0000
  C   C2967     1.0  0.65591  0.26884  0.98410  1.0000
  C   C2968     1.0  0.85596  0.38606  0.20685  1.0000
  H   H2360     1.0  0.86707  0.41802  0.99163  1.0000
  H   H2361     1.0  0.66887  0.32722  0.98716  1.0000
  H   H2362     1.0  0.92974  0.41326  0.99145  1.0000
  H   H2363     1.0  0.92271  0.43948  0.01232  1.0000
  H   H2364     1.0  0.88819  0.45472  0.02335  1.0000
  C   C2969     1.0  0.81747  0.34409  0.18239  1.0000
  C   C2970     1.0  0.80369  0.46163  0.18502  1.0000
  H   H2365     1.0  0.85656  0.34030  0.21948  1.0000
  H   H2366     1.0  0.83801  0.38616  0.05794  1.0000
  H   H2367     1.0  0.77829  0.45123  0.17966  1.0000
  C   C2971     1.0  0.96992  0.37536  0.09555  1.0000
  C   C2972     1.0  0.86984  0.40837  0.08165  1.0000
  C   C2973     1.0  0.79678  0.35209  0.11164  1.0000
  C   C2974     1.0  0.78279  0.33986  0.11165  1.0000
  C   C2975     1.0  0.90411  0.42510  0.06313  1.0000
  C   C2976     1.0  0.74004  0.38846  0.15026  1.0000
  H   H2368     1.0  0.79664  0.35855  0.12434  1.0000
  H   H2369     1.0  0.79799  0.30135  0.12607  1.0000
  H   H2370     1.0  0.71457  0.44058  0.01912  1.0000
  C   C2977     1.0  0.75131  0.38960  0.16411  1.0000
  C   C2978     1.0  0.83979  0.45984  0.05220  1.0000
  H   H2371     1.0  0.69792  0.10062  0.20318  1.0000
  C   C2979     1.0  0.67908  0.41048  0.03204  1.0000
  H   H2372     1.0  0.83201  0.28964  0.20785  1.0000
  P   P100      1.0  0.69543  0.22736  0.14650  1.0000
  C   C2980     1.0  0.70322  0.21153  0.16798  1.0000
  C   C2981     1.0  0.69055  0.21189  0.13065  1.0000
  C   C2982     1.0  0.68961  0.21945  0.11098  1.0000
  C   C2983     1.0  0.68523  0.20762  0.09901  1.0000
  C   C2984     1.0  0.68194  0.18807  0.10647  1.0000
  C   C2985     1.0  0.68288  0.18037  0.12598  1.0000
  C   C2986     1.0  0.68675  0.19232  0.13812  1.0000
  C   C2987     1.0  0.69362  0.21509  0.18667  1.0000
  C   C2988     1.0  0.72316  0.18156  0.18264  1.0000
  H   H2373     1.0  0.96132  0.43000  0.20328  1.0000
  C   C2989     1.0  0.69533  0.31099  0.97237  1.0000
  C   C2990     1.0  0.71813  0.19471  0.16611  1.0000
  C   C2991     1.0  0.71425  0.24222  0.13331  1.0000
  C   C2992     1.0  0.70923  0.25876  0.11920  1.0000
  C   C2993     1.0  0.72364  0.27011  0.10862  1.0000
  C   C2994     1.0  0.74316  0.26539  0.11233  1.0000
  C   C2995     1.0  0.74827  0.24921  0.12659  1.0000
  C   C2996     1.0  0.73390  0.23763  0.13703  1.0000
  H   H2374     1.0  0.87089  0.39673  0.17823  1.0000
  S   S394      1.0  0.71056  0.31088  0.98973  1.0000
  C   C2997     1.0  0.83771  0.47283  0.06556  1.0000
  C   C2998     1.0  0.68248  0.15017  0.21041  1.0000
  H   H2375     1.0  0.68691  0.26855  0.15501  1.0000
  H   H2376     1.0  0.69169  0.23461  0.10481  1.0000
  H   H2377     1.0  0.72888  0.38342  0.98398  1.0000
  Fe  Fe192     1.0  0.92613  0.46754  0.04406  1.0000
  H   H2378     1.0  0.98143  0.38268  0.08570  1.0000
  C   C2999     1.0  0.68627  0.09143  0.20681  1.0000
  H   H2379     1.0  0.68173  0.22760  0.18865  1.0000
  C   C3000     1.0  0.65429  0.23671  0.15720  1.0000
  C   C3001     1.0  0.65658  0.06732  0.21660  1.0000
  C   C3002     1.0  0.86789  0.44835  0.13729  1.0000
  H   H2380     1.0  0.72541  0.19141  0.15185  1.0000
  H   H2381     1.0  0.69412  0.26293  0.11631  1.0000
  H   H2382     1.0  0.81188  0.27174  0.14760  1.0000
  H   H2383     1.0  0.75427  0.27427  0.10410  1.0000
  H   H2384     1.0  0.76341  0.24551  0.12945  1.0000
  H   H2385     1.0  0.73825  0.22519  0.14794  1.0000
  H   H2386     1.0  0.67835  0.04544  0.20259  1.0000
  C   C3003     1.0  0.88714  0.43722  0.07153  1.0000
  H   H2387     1.0  0.88721  0.45301  0.07081  1.0000
  C   C3004     1.0  0.70883  0.32203  0.11412  1.0000
  H   H2388     1.0  0.77512  0.37485  0.17952  1.0000
  C   C3005     1.0  0.74378  0.37159  0.14109  1.0000
  H   H2389     1.0  0.76822  0.28913  0.19606  1.0000
  H   H2390     1.0  0.78189  0.34495  0.16357  1.0000
  H   H2391     1.0  0.65491  0.27061  0.11979  1.0000
  C   C3006     1.0  0.73563  0.34123  0.10963  1.0000
  H   H2392     1.0  0.75400  0.31881  0.17469  1.0000
  C   C3007     1.0  0.76994  0.35680  0.15994  1.0000
  H   H2393     1.0  0.95047  0.33221  0.10452  1.0000
  H   H2394     1.0  0.85158  0.36001  0.15652  1.0000
  Fe  Fe193     1.0  0.66864  0.35560  0.03697  1.0000
  C   C3008     1.0  0.82299  0.32060  0.21182  1.0000
  H   H2395     1.0  0.74336  0.35312  0.10123  1.0000
  H   H2396     1.0  0.85777  0.41267  0.04203  1.0000
  H   H2397     1.0  0.98103  0.36855  0.17920  1.0000
  C   C3009     1.0  0.79931  0.28212  0.15349  1.0000
  C   C3010     1.0  0.80503  0.41492  0.03034  1.0000
  C   C3011     1.0  0.69883  0.20199  0.20315  1.0000
  H   H2398     1.0  0.65366  0.22169  0.15520  1.0000
  C   C3012     1.0  0.75872  0.35554  0.14592  1.0000
  C   C3013     1.0  0.73195  0.31441  0.13697  1.0000
  C   C3014     1.0  0.79101  0.27860  0.17321  1.0000
  C   C3015     1.0  0.74237  0.32972  0.12630  1.0000
  H   H2399     1.0  0.70469  0.06694  0.19381  1.0000
  C   C3016     1.0  0.77473  0.29190  0.18078  1.0000
  C   C3017     1.0  0.67536  0.32006  0.97461  1.0000
  C   C3018     1.0  0.68738  0.44572  0.00725  1.0000
  C   C3019     1.0  0.76673  0.30871  0.16864  1.0000
  C   C3020     1.0  0.77505  0.31241  0.14882  1.0000
  H   H2400     1.0  0.70727  0.29879  0.13907  1.0000
  H   H2401     1.0  0.92260  0.38381  0.21195  1.0000
  C   C3021     1.0  0.71906  0.33729  0.10349  1.0000
  H   H2402     1.0  0.95897  0.37238  0.21075  1.0000
  H   H2403     1.0  0.79712  0.26550  0.18262  1.0000
  H   H2404     1.0  0.83526  0.44535  0.05743  1.0000
  C   C3022     1.0  0.66311  0.26901  0.07136  1.0000
  C   C3023     1.0  0.66375  0.27550  0.08864  1.0000
  H   H2405     1.0  0.72741  0.34792  0.98344  1.0000
  H   H2406     1.0  0.80974  0.44220  0.01115  1.0000
  C   C3024     1.0  0.85346  0.46553  0.13633  1.0000
  H   H2407     1.0  0.67993  0.16533  0.13190  1.0000
  H   H2408     1.0  0.75367  0.47365  0.19950  1.0000
  H   H2409     1.0  0.87450  0.44196  0.12423  1.0000
  H   H2410     1.0  0.86921  0.43983  0.18568  1.0000
  H   H2411     1.0  0.67814  0.17908  0.09724  1.0000
  H   H2412     1.0  0.67586  0.39673  0.04150  1.0000
  H   H2413     1.0  0.69092  0.45926  0.99774  1.0000
  H   H2414     1.0  0.88411  0.42555  0.15601  1.0000
  C   C3025     1.0  0.67295  0.26303  0.15704  1.0000
  C   C3026     1.0  0.66558  0.42103  0.02005  1.0000
  S   S395      1.0  0.70297  0.13338  0.21840  1.0000
  C   C3027     1.0  0.81844  0.34029  0.20224  1.0000
  C   C3028     1.0  0.67175  0.27668  0.00841  1.0000
  H   H2415     1.0  0.97696  0.34885  0.08213  1.0000
  H   H2416     1.0  0.66927  0.40951  0.98481  1.0000
  H   H2417     1.0  0.92588  0.42535  0.20823  1.0000
  C   C3029     1.0  0.67318  0.26919  0.99120  1.0000
  C   C3030     1.0  0.84282  0.45863  0.21521  1.0000
  C   C3031     1.0  0.78330  0.46138  0.18685  1.0000
  C   C3032     1.0  0.81978  0.39098  0.21066  1.0000
  C   C3033     1.0  0.67523  0.06038  0.20634  1.0000
  H   H2418     1.0  0.91652  0.47281  0.18737  1.0000
  C   C3034     1.0  0.66965  0.43864  0.00746  1.0000
  H   H2419     1.0  0.91825  0.47226  0.11118  1.0000
  H   H2420     1.0  0.66040  0.35756  0.00105  1.0000
  C   C3035     1.0  0.93202  0.42810  0.22014  1.0000
  S   S396      1.0  0.87868  0.37737  0.21571  1.0000
  C   C3036     1.0  0.95194  0.43074  0.21736  1.0000
  C   C3037     1.0  0.76946  0.47390  0.19814  1.0000
  P   P101      1.0  0.83678  0.47415  0.19293  1.0000
  C   C3038     1.0  0.65499  0.47734  0.98370  1.0000
  C   C3039     1.0  0.66230  0.16396  0.18501  1.0000
  H   H2421     1.0  0.84884  0.47241  0.12254  1.0000
  C   C3040     1.0  0.84185  0.43809  0.21845  1.0000
  C   C3041     1.0  0.66763  0.09844  0.21714  1.0000
  H   H2422     1.0  0.71698  0.17462  0.21391  1.0000
  H   H2423     1.0  0.65880  0.16367  0.17093  1.0000
  H   H2424     1.0  0.80549  0.38939  0.21979  1.0000
  H   H2425     1.0  0.65553  0.29031  0.16564  1.0000
  C   C3042     1.0  0.65452  0.26567  0.10637  1.0000
  C   C3043     1.0  0.66673  0.41854  0.97103  1.0000
  C   C3044     1.0  0.82197  0.47825  0.99712  1.0000
  C   C3045     1.0  0.66844  0.10762  0.36963  1.0000
  C   C3046     1.0  0.94749  0.46037  0.28071  1.0000
  Fe  Fe194     1.0  0.91978  0.11459  0.44635  1.0000
  H   H2426     1.0  0.70790  0.03206  0.22160  1.0000
  S   S397      1.0  0.91798  0.14098  0.42207  1.0000
  C   C3047     1.0  0.94828  0.38339  0.32107  1.0000
  H   H2427     1.0  0.75048  0.21127  0.42294  1.0000
  H   H2428     1.0  0.89099  0.27495  0.24892  1.0000
  Fe  Fe195     1.0  0.97659  0.43683  0.38421  1.0000
  H   H2429     1.0  0.96998  0.01214  0.37686  1.0000
  S   S398      1.0  0.94842  0.09326  0.44802  1.0000
  H   H2430     1.0  0.83841  0.33398  0.26591  1.0000
  H   H2431     1.0  0.85459  0.28056  0.25171  1.0000
  H   H2432     1.0  0.82162  0.36128  0.28404  1.0000
  C   C3048     1.0  0.66787  0.04401  0.33383  1.0000
  Fe  Fe196     1.0  0.83118  0.17543  0.36712  1.0000
  S   S399      1.0  0.79996  0.17846  0.38391  1.0000
  S   S400      1.0  0.85099  0.14540  0.37212  1.0000
  Fe  Fe197     1.0  0.82457  0.21762  0.34417  1.0000
  S   S401      1.0  0.79259  0.22346  0.35911  1.0000
  S   S402      1.0  0.84189  0.23762  0.31964  1.0000
  Fe  Fe198     1.0  0.80466  0.20898  0.38668  1.0000
  S   S403      1.0  0.79341  0.21989  0.41592  1.0000
  Fe  Fe199     1.0  0.79057  0.19214  0.35512  1.0000
  S   S404      1.0  0.76222  0.18445  0.34810  1.0000
  S   S405      1.0  0.83663  0.20493  0.37198  1.0000
  S   S406      1.0  0.82165  0.18736  0.33815  1.0000
  S   S407      1.0  0.90019  0.09078  0.45526  1.0000
  S   S408      1.0  0.69804  0.09982  0.30543  1.0000
  H   H2433     1.0  0.91902  0.43083  0.26832  1.0000
  Fe  Fe200     1.0  0.72122  0.11728  0.28669  1.0000
  S   S409      1.0  0.74890  0.12221  0.29723  1.0000
  S   S410      1.0  0.69886  0.14148  0.27347  1.0000
  Fe  Fe201     1.0  0.88139  0.36910  0.24777  1.0000
  S   S411      1.0  0.85855  0.37880  0.27268  1.0000
  H   H2434     1.0  0.94484  0.00789  0.42836  1.0000
  Fe  Fe202     1.0  0.91257  0.35085  0.27401  1.0000
  S   S412      1.0  0.89181  0.35889  0.30096  1.0000
  S   S413      1.0  0.94366  0.33480  0.27738  1.0000
  Fe  Fe203     1.0  0.86868  0.34818  0.28906  1.0000
  S   S414      1.0  0.84528  0.33104  0.30893  1.0000
  Fe  Fe204     1.0  0.88367  0.38840  0.28239  1.0000
  S   S415      1.0  0.88264  0.41946  0.28889  1.0000
  S   S416      1.0  0.89008  0.33785  0.26343  1.0000
  S   S417      1.0  0.90586  0.38098  0.25620  1.0000
  C   C3049     1.0  0.96433  0.34701  0.26678  1.0000
  C   C3050     1.0  0.96265  0.36400  0.25249  1.0000
  S   S418      1.0  0.88210  0.98140  0.44763  1.0000
  H   H2435     1.0  0.85434  0.42513  0.26362  1.0000
  C   C3051     1.0  0.82403  0.34204  0.26290  1.0000
  C   C3052     1.0  0.65794  0.04547  0.42267  1.0000
  H   H2436     1.0  0.94848  0.36998  0.24792  1.0000
  C   C3053     1.0  0.98439  0.09594  0.38263  1.0000
  H   H2437     1.0  0.94342  0.36866  0.29877  1.0000
  H   H2438     1.0  0.65734  0.06606  0.25726  1.0000
  C   C3054     1.0  0.68905  0.01728  0.27657  1.0000
  C   C3055     1.0  0.68839  0.00448  0.26355  1.0000
  C   C3056     1.0  0.86536  0.15378  0.45763  1.0000
  H   H2439     1.0  0.85496  0.10878  0.31119  1.0000
  C   C3057     1.0  0.84280  0.26357  0.31717  1.0000
  C   C3058     1.0  0.85784  0.27182  0.30330  1.0000
  C   C3059     1.0  0.85896  0.29241  0.30064  1.0000
  C   C3060     1.0  0.84483  0.30500  0.31167  1.0000
  C   C3061     1.0  0.82964  0.29680  0.32529  1.0000
  C   C3062     1.0  0.82867  0.27620  0.32816  1.0000
  H   H2440     1.0  0.86877  0.26221  0.29464  1.0000
  H   H2441     1.0  0.87068  0.29851  0.29002  1.0000
  H   H2442     1.0  0.81851  0.30652  0.33362  1.0000
  H   H2443     1.0  0.81689  0.27012  0.33872  1.0000
  C   C3063     1.0  0.75901  0.16749  0.33331  1.0000
  C   C3064     1.0  0.77501  0.15461  0.32461  1.0000
  C   C3065     1.0  0.77159  0.14103  0.31356  1.0000
  C   C3066     1.0  0.75223  0.14020  0.31082  1.0000
  C   C3067     1.0  0.73626  0.15323  0.31932  1.0000
  C   C3068     1.0  0.73963  0.16668  0.33056  1.0000
  H   H2444     1.0  0.79001  0.15503  0.32649  1.0000
  H   H2445     1.0  0.78407  0.13122  0.30692  1.0000
  H   H2446     1.0  0.72132  0.15297  0.31720  1.0000
  H   H2447     1.0  0.72713  0.17663  0.33708  1.0000
  H   H2448     1.0  0.81086  0.26689  0.29655  1.0000
  H   H2449     1.0  0.68300  0.99040  0.26896  1.0000
  C   C3069     1.0  0.80133  0.22653  0.45037  1.0000
  C   C3070     1.0  0.80955  0.22131  0.43191  1.0000
  C   C3071     1.0  0.83029  0.21723  0.42672  1.0000
  C   C3072     1.0  0.93257  0.16429  0.46304  1.0000
  C   C3073     1.0  0.79186  0.27088  0.25521  1.0000
  H   H2450     1.0  0.83688  0.21371  0.41242  1.0000
  H   H2451     1.0  0.68421  0.01289  0.29199  1.0000
  H   H2452     1.0  0.73590  0.00563  0.28659  1.0000
  C   C3074     1.0  0.92819  0.43129  0.25404  1.0000
  H   H2453     1.0  0.67895  0.97968  0.31407  1.0000
  H   H2454     1.0  0.89353  0.21121  0.39991  1.0000
  H   H2455     1.0  0.83666  0.37712  0.23363  1.0000
  Fe  Fe205     1.0  0.70041  0.08361  0.28009  1.0000
  C   C3075     1.0  0.91719  0.99634  0.43662  1.0000
  C   C3076     1.0  0.97265  0.11463  0.37847  1.0000
  C   C3077     1.0  0.90888  0.42510  0.34142  1.0000
  C   C3078     1.0  0.90824  0.44073  0.32564  1.0000
  C   C3079     1.0  0.90010  0.43886  0.30960  1.0000
  C   C3080     1.0  0.89340  0.42112  0.30888  1.0000
  C   C3081     1.0  0.89459  0.40533  0.32442  1.0000
  C   C3082     1.0  0.90193  0.40748  0.34079  1.0000
  H   H2456     1.0  0.89878  0.45123  0.29781  1.0000
  H   H2457     1.0  0.88922  0.39172  0.32414  1.0000
  H   H2458     1.0  0.90227  0.39542  0.35301  1.0000
  C   C3083     1.0  0.96519  0.03503  0.39483  1.0000
  C   C3084     1.0  0.81456  0.35755  0.27323  1.0000
  H   H2459     1.0  0.70942  0.06951  0.37392  1.0000
  P   P102      1.0  0.82158  0.12071  0.45899  1.0000
  H   H2460     1.0  0.71920  0.09536  0.34572  1.0000
  C   C3085     1.0  0.90017  0.14191  0.40735  1.0000
  C   C3086     1.0  0.89331  0.16015  0.39631  1.0000
  C   C3087     1.0  0.87831  0.16139  0.38527  1.0000
  C   C3088     1.0  0.87056  0.14426  0.38482  1.0000
  C   C3089     1.0  0.87833  0.12583  0.39489  1.0000
  C   C3090     1.0  0.89274  0.12472  0.40652  1.0000
  H   H2461     1.0  0.89918  0.17343  0.39677  1.0000
  H   H2462     1.0  0.87270  0.17557  0.37718  1.0000
  H   H2463     1.0  0.87266  0.11250  0.39424  1.0000
  H   H2464     1.0  0.89811  0.11061  0.41483  1.0000
  H   H2465     1.0  0.70071  0.12682  0.38863  1.0000
  C   C3091     1.0  0.79558  0.26364  0.27412  1.0000
  H   H2466     1.0  0.97810  0.38609  0.23265  1.0000
  H   H2467     1.0  0.78861  0.25135  0.28294  1.0000
  H   H2468     1.0  0.77168  0.37043  0.25441  1.0000
  P   P103      1.0  0.94283  0.46622  0.46629  1.0000
  C   C3092     1.0  0.84709  0.46710  0.23010  1.0000
  S   S419      1.0  0.69542  0.99398  0.22658  1.0000
  Fe  Fe206     1.0  0.92876  0.06983  0.45936  1.0000
  H   H2469     1.0  0.66371  0.02962  0.42515  1.0000
  C   C3093     1.0  0.89202  0.01323  0.45949  1.0000
  H   H2470     1.0  0.78178  0.26429  0.24947  1.0000
  C   C3094     1.0  0.96536  0.47410  0.45177  1.0000
  H   H2471     1.0  0.84987  0.17736  0.41549  1.0000
  H   H2472     1.0  0.77097  0.04780  0.37748  1.0000
  H   H2473     1.0  0.87311  0.04947  0.44125  1.0000
  H   H2474     1.0  0.87498  0.27772  0.44812  1.0000
  H   H2475     1.0  0.78772  0.34236  0.23684  1.0000
  H   H2476     1.0  0.97554  0.43543  0.23051  1.0000
  C   C3095     1.0  0.85034  0.16708  0.42904  1.0000
  C   C3096     1.0  0.69615  0.13427  0.35887  1.0000
  C   C3097     1.0  0.69271  0.12422  0.37799  1.0000
  S   S420      1.0  0.94696  0.47557  0.34872  1.0000
  C   C3098     1.0  0.74452  0.20241  0.43646  1.0000
  H   H2477     1.0  0.85340  0.11240  0.42708  1.0000
  C   C3099     1.0  0.98409  0.98520  0.42520  1.0000
  H   H2478     1.0  0.73548  0.04568  0.38943  1.0000
  H   H2479     1.0  0.91337  0.45444  0.32610  1.0000
  C   C3100     1.0  0.67122  0.16422  0.22172  1.0000
  H   H2480     1.0  0.80654  0.09783  0.43556  1.0000
  H   H2481     1.0  0.70678  0.14463  0.35473  1.0000
  C   C3101     1.0  0.65950  0.05614  0.40371  1.0000
  H   H2482     1.0  0.95836  0.14207  0.38906  1.0000
  H   H2483     1.0  0.86139  0.07232  0.30998  1.0000
  H   H2484     1.0  0.67649  0.10332  0.39825  1.0000
  H   H2485     1.0  0.78794  0.19042  0.46447  1.0000
  H   H2486     1.0  0.95352  0.34767  0.46337  1.0000
  H   H2487     1.0  0.66664  0.04831  0.39171  1.0000
  C   C3102     1.0  0.77713  0.15183  0.42980  1.0000
  H   H2488     1.0  0.90942  0.17993  0.44704  1.0000
  H   H2489     1.0  0.72581  0.18946  0.42324  1.0000
  H   H2490     1.0  0.97181  0.13281  0.41981  1.0000
  C   C3103     1.0  0.86456  0.08101  0.43221  1.0000
  H   H2491     1.0  0.97824  0.12018  0.45608  1.0000
  C   C3104     1.0  0.79832  0.11289  0.43423  1.0000
  C   C3105     1.0  0.83777  0.13959  0.45223  1.0000
  H   H2492     1.0  0.97112  0.43026  0.45958  1.0000
  C   C3106     1.0  0.95012  0.39830  0.28717  1.0000
  C   C3107     1.0  0.82882  0.27296  0.42734  1.0000
  C   C3108     1.0  0.84666  0.27605  0.41457  1.0000
  C   C3109     1.0  0.86325  0.27797  0.42219  1.0000
  P   P104      1.0  0.84888  0.27634  0.38874  1.0000
  C   C3110     1.0  0.86297  0.25289  0.38227  1.0000
  C   C3111     1.0  0.82430  0.27972  0.38260  1.0000
  C   C3112     1.0  0.81423  0.26330  0.38563  1.0000
  C   C3113     1.0  0.79476  0.26604  0.38191  1.0000
  C   C3114     1.0  0.78534  0.28506  0.37485  1.0000
  C   C3115     1.0  0.79528  0.30147  0.37174  1.0000
  C   C3116     1.0  0.81465  0.29886  0.37568  1.0000
  C   C3117     1.0  0.86297  0.24792  0.36406  1.0000
  C   C3118     1.0  0.87454  0.23036  0.35847  1.0000
  C   C3119     1.0  0.88566  0.21719  0.37133  1.0000
  C   C3120     1.0  0.88521  0.22161  0.38979  1.0000
  C   C3121     1.0  0.87399  0.23941  0.39524  1.0000
  C   C3122     1.0  0.86070  0.29728  0.37523  1.0000
  C   C3123     1.0  0.85980  0.31420  0.38387  1.0000
  C   C3124     1.0  0.86793  0.33086  0.37316  1.0000
  C   C3125     1.0  0.87675  0.33091  0.35368  1.0000
  C   C3126     1.0  0.87745  0.31432  0.34489  1.0000
  C   C3127     1.0  0.86944  0.29759  0.35556  1.0000
  H   H2493     1.0  0.81593  0.27081  0.42207  1.0000
  H   H2494     1.0  0.87727  0.27992  0.41263  1.0000
  H   H2495     1.0  0.82124  0.24844  0.39121  1.0000
  H   H2496     1.0  0.78692  0.25338  0.38468  1.0000
  H   H2497     1.0  0.77033  0.28704  0.37181  1.0000
  H   H2498     1.0  0.78805  0.31622  0.36613  1.0000
  H   H2499     1.0  0.82204  0.31181  0.37315  1.0000
  H   H2500     1.0  0.85396  0.25757  0.35414  1.0000
  H   H2501     1.0  0.87443  0.22676  0.34430  1.0000
  H   H2502     1.0  0.89436  0.20342  0.36708  1.0000
  H   H2503     1.0  0.87386  0.24236  0.40963  1.0000
  H   H2504     1.0  0.85243  0.31480  0.39872  1.0000
  H   H2505     1.0  0.86708  0.34392  0.37983  1.0000
  H   H2506     1.0  0.88272  0.34396  0.34526  1.0000
  H   H2507     1.0  0.88371  0.31462  0.32959  1.0000
  H   H2508     1.0  0.86970  0.28529  0.34813  1.0000
  C   C3128     1.0  0.86132  0.09828  0.32263  1.0000
  H   H2509     1.0  0.87664  0.15379  0.46616  1.0000
  H   H2510     1.0  0.91087  0.42516  0.43526  1.0000
  C   C3129     1.0  0.65743  0.07243  0.35912  1.0000
  C   C3130     1.0  0.78632  0.36254  0.25672  1.0000
  C   C3131     1.0  0.98289  0.33937  0.27257  1.0000
  C   C3132     1.0  0.96804  0.12786  0.39192  1.0000
  H   H2511     1.0  0.79751  0.29235  0.22947  1.0000
  C   C3133     1.0  0.86389  0.32586  0.22577  1.0000
  C   C3134     1.0  0.79554  0.34676  0.24665  1.0000
  P   P105      1.0  0.82599  0.31570  0.23709  1.0000
  C   C3135     1.0  0.86431  0.16747  0.44052  1.0000
  H   H2512     1.0  0.78865  0.38000  0.27801  1.0000
  H   H2513     1.0  0.81391  0.26931  0.45715  1.0000
  C   C3136     1.0  0.85179  0.09837  0.43664  1.0000
  H   H2514     1.0  0.94544  0.37101  0.33262  1.0000
  C   C3137     1.0  0.95283  0.40078  0.32524  1.0000
  H   H2515     1.0  0.89297  0.45448  0.41616  1.0000
  H   H2516     1.0  0.71249  0.16904  0.45421  1.0000
  C   C3138     1.0  0.79100  0.14634  0.44241  1.0000
  C   C3139     1.0  0.79585  0.36796  0.26999  1.0000
  H   H2517     1.0  0.94925  0.39680  0.27253  1.0000
  H   H2518     1.0  0.82757  0.15251  0.42477  1.0000
  H   H2519     1.0  0.76945  0.16710  0.42760  1.0000
  H   H2520     1.0  0.74135  0.99544  0.25412  1.0000
  C   C3140     1.0  0.89971  0.99894  0.35442  1.0000
  C   C3141     1.0  0.92049  0.99426  0.35187  1.0000
  C   C3142     1.0  0.93164  0.00763  0.35532  1.0000
  C   C3143     1.0  0.92207  0.02585  0.36112  1.0000
  C   C3144     1.0  0.90116  0.03063  0.36386  1.0000
  C   C3145     1.0  0.89006  0.01694  0.36061  1.0000
  P   P106      1.0  0.88848  0.05390  0.37175  1.0000
  C   C3146     1.0  0.86846  0.04865  0.39172  1.0000
  C   C3147     1.0  0.90577  0.06532  0.38029  1.0000
  C   C3148     1.0  0.90830  0.06070  0.39983  1.0000
  C   C3149     1.0  0.92028  0.07092  0.40672  1.0000
  C   C3150     1.0  0.93042  0.08524  0.39411  1.0000
  C   C3151     1.0  0.92881  0.08919  0.37443  1.0000
  C   C3152     1.0  0.91667  0.07915  0.36748  1.0000
  C   C3153     1.0  0.85115  0.06287  0.39466  1.0000
  C   C3154     1.0  0.83568  0.05896  0.41013  1.0000
  C   C3155     1.0  0.83749  0.04089  0.42298  1.0000
  C   C3156     1.0  0.85480  0.02681  0.42038  1.0000
  C   C3157     1.0  0.87023  0.03056  0.40480  1.0000
  C   C3158     1.0  0.87809  0.07118  0.35226  1.0000
  C   C3159     1.0  0.87335  0.06425  0.33668  1.0000
  C   C3160     1.0  0.86496  0.07776  0.32198  1.0000
  H   H2521     1.0  0.95336  0.40191  0.34011  1.0000
  C   C3161     1.0  0.86586  0.10530  0.33809  1.0000
  C   C3162     1.0  0.87409  0.09185  0.35288  1.0000
  C   C3163     1.0  0.92678  0.46226  0.45073  1.0000
  S   S421      1.0  0.97345  0.43030  0.35535  1.0000
  C   C3164     1.0  0.92398  0.02467  0.44839  1.0000
  H   H2522     1.0  0.93105  0.03590  0.36377  1.0000
  H   H2523     1.0  0.87394  0.02009  0.36305  1.0000
  H   H2524     1.0  0.90079  0.04954  0.40994  1.0000
  H   H2525     1.0  0.92151  0.06794  0.42195  1.0000
  H   H2526     1.0  0.93934  0.09339  0.39970  1.0000
  H   H2527     1.0  0.93663  0.10034  0.36465  1.0000
  H   H2528     1.0  0.91555  0.08250  0.35219  1.0000
  H   H2529     1.0  0.84967  0.07714  0.38528  1.0000
  H   H2530     1.0  0.82250  0.07014  0.41240  1.0000
  H   H2531     1.0  0.82574  0.03798  0.43525  1.0000
  H   H2532     1.0  0.85646  0.01313  0.43075  1.0000
  H   H2533     1.0  0.88365  0.01949  0.40329  1.0000
  H   H2534     1.0  0.87613  0.04850  0.33571  1.0000
  H   H2535     1.0  0.86286  0.12123  0.33876  1.0000
  H   H2536     1.0  0.87718  0.09770  0.36484  1.0000
  C   C3165     1.0  0.78673  0.12765  0.36761  1.0000
  C   C3166     1.0  0.80550  0.12631  0.37245  1.0000
  C   C3167     1.0  0.82007  0.10976  0.36921  1.0000
  C   C3168     1.0  0.81590  0.09433  0.36126  1.0000
  C   C3169     1.0  0.79681  0.09517  0.35698  1.0000
  C   C3170     1.0  0.78239  0.11219  0.35983  1.0000
  P   P107      1.0  0.79149  0.07556  0.34616  1.0000
  C   C3171     1.0  0.79600  0.08253  0.32003  1.0000
  C   C3172     1.0  0.80742  0.05218  0.35297  1.0000
  C   C3173     1.0  0.81588  0.03938  0.33928  1.0000
  C   C3174     1.0  0.82824  0.02137  0.34456  1.0000
  C   C3175     1.0  0.83222  0.01595  0.36353  1.0000
  C   C3176     1.0  0.82387  0.02856  0.37726  1.0000
  C   C3177     1.0  0.81149  0.04659  0.37204  1.0000
  C   C3178     1.0  0.78532  0.07565  0.30854  1.0000
  C   C3179     1.0  0.78852  0.08142  0.28835  1.0000
  C   C3180     1.0  0.80259  0.09383  0.27946  1.0000
  C   C3181     1.0  0.81364  0.10034  0.29074  1.0000
  C   C3182     1.0  0.81038  0.09472  0.31097  1.0000
  C   C3183     1.0  0.76553  0.07302  0.35467  1.0000
  C   C3184     1.0  0.75062  0.08632  0.34588  1.0000
  C   C3185     1.0  0.73049  0.08500  0.35272  1.0000
  C   C3186     1.0  0.72503  0.07043  0.36850  1.0000
  C   C3187     1.0  0.73973  0.05704  0.37728  1.0000
  C   C3188     1.0  0.75991  0.05830  0.37041  1.0000
  H   H2537     1.0  0.77573  0.14098  0.36934  1.0000
  H   H2538     1.0  0.80902  0.13830  0.37828  1.0000
  H   H2539     1.0  0.83474  0.10936  0.37243  1.0000
  H   H2540     1.0  0.82768  0.08201  0.35816  1.0000
  H   H2541     1.0  0.76794  0.11394  0.35564  1.0000
  H   H2542     1.0  0.81292  0.04314  0.32453  1.0000
  H   H2543     1.0  0.83462  0.01148  0.33397  1.0000
  H   H2544     1.0  0.84169  0.00189  0.36759  1.0000
  H   H2545     1.0  0.82690  0.02424  0.39198  1.0000
  H   H2546     1.0  0.80502  0.05613  0.38289  1.0000
  H   H2547     1.0  0.77418  0.06620  0.31513  1.0000
  H   H2548     1.0  0.77961  0.07678  0.27964  1.0000
  H   H2549     1.0  0.80461  0.09872  0.26386  1.0000
  H   H2550     1.0  0.82429  0.11025  0.28384  1.0000
  H   H2551     1.0  0.81867  0.10034  0.31950  1.0000
  H   H2552     1.0  0.75452  0.09787  0.33377  1.0000
  H   H2553     1.0  0.82283  0.17717  0.46717  1.0000
  C   C3189     1.0  0.83740  0.15303  0.43462  1.0000
  C   C3190     1.0  0.80102  0.28666  0.24384  1.0000
  C   C3191     1.0  0.88343  0.28908  0.24225  1.0000
  C   C3192     1.0  0.73070  0.19008  0.43663  1.0000
  C   C3193     1.0  0.86201  0.27681  0.44225  1.0000
  C   C3194     1.0  0.81467  0.33672  0.24932  1.0000
  S   S422      1.0  0.69856  0.05022  0.28690  1.0000
  C   C3195     1.0  0.69629  0.03552  0.26982  1.0000
  C   C3196     1.0  0.69523  0.00973  0.24364  1.0000
  S   S423      1.0  0.72550  0.09905  0.26241  1.0000
  C   C3197     1.0  0.85146  0.45499  0.24739  1.0000
  C   C3198     1.0  0.90488  0.02666  0.45960  1.0000
  C   C3199     1.0  0.89818  0.99805  0.44798  1.0000
  C   C3200     1.0  0.70258  0.04101  0.24987  1.0000
  H   H2554     1.0  0.94118  0.15734  0.45088  1.0000
  H   H2555     1.0  0.94771  0.00359  0.35387  1.0000
  C   C3201     1.0  0.70229  0.02804  0.23691  1.0000
  H   H2556     1.0  0.70828  0.05495  0.24449  1.0000
  H   H2557     1.0  0.98429  0.32620  0.28359  1.0000
  C   C3202     1.0  0.85221  0.13987  0.46349  1.0000
  H   H2558     1.0  0.68793  0.07779  0.34937  1.0000
  C   C3203     1.0  0.84809  0.06192  0.46109  1.0000
  P   P108      1.0  0.95840  0.43697  0.27200  1.0000
  C   C3204     1.0  0.73290  0.99113  0.28532  1.0000
  C   C3205     1.0  0.82757  0.27212  0.44734  1.0000
  Fe  Fe207     1.0  0.70122  0.12224  0.25077  1.0000
  H   H2559     1.0  0.67459  0.16442  0.23588  1.0000
  H   H2560     1.0  0.66438  0.11519  0.33950  1.0000
  C   C3206     1.0  0.67677  0.06930  0.34832  1.0000
  H   H2561     1.0  0.97146  0.46007  0.29621  1.0000
  C   C3207     1.0  0.81727  0.28820  0.27053  1.0000
  C   C3208     1.0  0.78421  0.11839  0.42179  1.0000
  H   H2562     1.0  0.85862  0.21484  0.43588  1.0000
  C   C3209     1.0  0.86264  0.29249  0.24405  1.0000
  C   C3210     1.0  0.97946  0.37307  0.24382  1.0000
  C   C3211     1.0  0.92455  0.44287  0.44910  1.0000
  C   C3212     1.0  0.95426  0.41605  0.29128  1.0000
  H   H2563     1.0  0.96682  0.11877  0.36497  1.0000
  C   C3213     1.0  0.85112  0.43449  0.25016  1.0000
  Fe  Fe208     1.0  0.94154  0.44455  0.36256  1.0000
  S   S424      1.0  0.91682  0.42746  0.36280  1.0000
  H   H2564     1.0  0.92205  0.98482  0.42757  1.0000
  S   S425      1.0  0.67654  0.10548  0.26679  1.0000
  C   C3214     1.0  0.66719  0.98979  0.34141  1.0000
  Fe  Fe209     1.0  0.67600  0.12272  0.29056  1.0000
  C   C3215     1.0  0.84624  0.42608  0.23577  1.0000
  C   C3216     1.0  0.94700  0.38213  0.30202  1.0000
  C   C3217     1.0  0.93009  0.00949  0.43699  1.0000
  C   C3218     1.0  0.97672  0.02266  0.38195  1.0000
  H   H2565     1.0  0.66511  0.11307  0.22145  1.0000
  C   C3219     1.0  0.95741  0.46807  0.29229  1.0000
  C   C3220     1.0  0.67890  0.11093  0.38339  1.0000
  C   C3221     1.0  0.83432  0.22214  0.45880  1.0000
  C   C3222     1.0  0.83735  0.09778  0.45352  1.0000
  C   C3223     1.0  0.84417  0.27386  0.45481  1.0000
  S   S426      1.0  0.94438  0.44918  0.39214  1.0000
  H   H2566     1.0  0.78168  0.10766  0.41363  1.0000
  C   C3224     1.0  0.81430  0.29503  0.25123  1.0000
  H   H2567     1.0  0.78540  0.23051  0.45436  1.0000
  C   C3225     1.0  0.97400  0.04807  0.40198  1.0000
  C   C3226     1.0  0.91457  0.17695  0.46089  1.0000
  C   C3227     1.0  0.88469  0.32224  0.22364  1.0000
  C   C3228     1.0  0.75086  0.20326  0.45368  1.0000
  C   C3229     1.0  0.80816  0.27239  0.28180  1.0000
  H   H2568     1.0  0.84579  0.41022  0.23818  1.0000
  C   C3230     1.0  0.68586  0.13099  0.34510  1.0000
  H   H2569     1.0  0.87595  0.08181  0.41939  1.0000
  C   C3231     1.0  0.67215  0.11765  0.35042  1.0000
  C   C3232     1.0  0.90416  0.47600  0.42765  1.0000
  H   H2570     1.0  0.85491  0.46143  0.25883  1.0000
  H   H2571     1.0  0.94946  0.03429  0.39960  1.0000
  H   H2572     1.0  0.95904  0.43041  0.31415  1.0000
  C   C3233     1.0  0.84260  0.21785  0.44005  1.0000
  H   H2573     1.0  0.94691  0.38378  0.46585  1.0000
  H   H2574     1.0  0.92794  0.97994  0.34784  1.0000
  H   H2575     1.0  0.72262  0.98338  0.31589  1.0000
  C   C3234     1.0  0.95581  0.41706  0.31044  1.0000
  H   H2576     1.0  0.91054  0.30137  0.23087  1.0000
  H   H2577     1.0  0.96485  0.05751  0.41202  1.0000
  H   H2578     1.0  0.87468  0.17804  0.43589  1.0000
  H   H2579     1.0  0.92129  0.46588  0.26698  1.0000
  H   H2580     1.0  0.97695  0.98672  0.41266  1.0000
  C   C3235     1.0  0.97562  0.12264  0.40929  1.0000
  C   C3236     1.0  0.90201  0.45667  0.42612  1.0000
  C   C3237     1.0  0.94811  0.43414  0.25140  1.0000
  H   H2581     1.0  0.82674  0.29498  0.27690  1.0000
  C   C3238     1.0  0.77374  0.13791  0.41946  1.0000
  C   C3239     1.0  0.85269  0.31102  0.23598  1.0000
  S   S427      1.0  0.98541  0.46710  0.37226  1.0000
  C   C3240     1.0  0.68192  0.05519  0.33573  1.0000
  C   C3241     1.0  0.91217  0.44013  0.43687  1.0000
  S   S428      1.0  0.94076  0.04070  0.44830  1.0000
  H   H2582     1.0  0.76321  0.14236  0.40943  1.0000
  C   C3242     1.0  0.81359  0.22644  0.46393  1.0000
  C   C3243     1.0  0.98196  0.47304  0.46062  1.0000
  H   H2583     1.0  0.93251  0.42982  0.45697  1.0000
  C   C3244     1.0  0.92012  0.42850  0.23847  1.0000
  C   C3245     1.0  0.80198  0.12693  0.44446  1.0000
  H   H2584     1.0  0.79376  0.15746  0.44996  1.0000
  C   C3246     1.0  0.72328  0.17855  0.45405  1.0000
  C   C3247     1.0  0.89445  0.30392  0.23201  1.0000
  C   C3248     1.0  0.86294  0.06284  0.44457  1.0000
  H   H2585     1.0  0.98360  0.46838  0.25711  1.0000
  H   H2586     1.0  0.65657  0.00179  0.33531  1.0000
  H   H2587     1.0  0.89111  0.98818  0.35230  1.0000
  C   C3249     1.0  0.95998  0.43382  0.23290  1.0000
  H   H2588     1.0  0.69674  0.05316  0.32712  1.0000
  H   H2589     1.0  0.76137  0.21310  0.45315  1.0000
  Fe  Fe210     1.0  0.97931  0.46160  0.34401  1.0000
  H   H2590     1.0  0.84933  0.98555  0.41878  1.0000
  H   H2591     1.0  0.68845  0.13876  0.33024  1.0000
  C   C3250     1.0  0.92937  0.47126  0.27585  1.0000
  H   H2592     1.0  0.67181  0.03344  0.32368  1.0000
  C   C3251     1.0  0.73599  0.98541  0.26701  1.0000
  H   H2593     1.0  0.90474  0.42610  0.24086  1.0000
  H   H2594     1.0  0.65797  0.99652  0.37049  1.0000
  H   H2595     1.0  0.98358  0.03856  0.43744  1.0000
  H   H2596     1.0  0.65482  0.05072  0.29159  1.0000
  C   C3252     1.0  0.66797  0.98674  0.36125  1.0000
  C   C3253     1.0  0.83511  0.07930  0.46545  1.0000
  C   C3254     1.0  0.98501  0.43621  0.26500  1.0000
  H   H2597     1.0  0.87735  0.01453  0.46838  1.0000
  H   H2598     1.0  0.90015  0.03832  0.46854  1.0000
  C   C3255     1.0  0.72515  0.97855  0.30187  1.0000
  H   H2599     1.0  0.84336  0.27228  0.47041  1.0000
  H   H2600     1.0  0.98547  0.39449  0.69916  1.0000
  Fe  Fe211     1.0  0.66850  0.12274  0.59700  1.0000
  H   H2601     1.0  0.93962  0.02828  0.49100  1.0000
  C   C3256     1.0  0.66538  0.05526  0.54860  1.0000
  Fe  Fe212     1.0  0.70962  0.13067  0.60007  1.0000
  S   S429      1.0  0.70888  0.11092  0.62927  1.0000
  S   S430      1.0  0.73876  0.13973  0.58224  1.0000
  Fe  Fe213     1.0  0.69661  0.08919  0.61689  1.0000
  S   S431      1.0  0.71130  0.05643  0.62049  1.0000
  Fe  Fe214     1.0  0.67698  0.12584  0.63654  1.0000
  H   H2602     1.0  0.70884  0.98433  0.63440  1.0000
  S   S432      1.0  0.69959  0.10787  0.58730  1.0000
  S   S433      1.0  0.67848  0.14727  0.60796  1.0000
  C   C3257     1.0  0.66897  0.02062  0.62771  1.0000
  C   C3258     1.0  0.72958  0.17943  0.47134  1.0000
  H   H2603     1.0  0.69753  0.19943  0.55105  1.0000
  H   H2604     1.0  0.80274  0.12063  0.70704  1.0000
  S   S434      1.0  0.66469  0.10259  0.62601  1.0000
  Fe  Fe215     1.0  0.91179  0.30575  0.62031  1.0000
  S   S435      1.0  0.89173  0.33555  0.62092  1.0000
  S   S436      1.0  0.90865  0.27886  0.60702  1.0000
  Fe  Fe216     1.0  0.93968  0.31696  0.64416  1.0000
  S   S437      1.0  0.92145  0.34720  0.64659  1.0000
  H   H2605     1.0  0.77447  0.21267  0.51317  1.0000
  Fe  Fe217     1.0  0.89471  0.33173  0.65252  1.0000
  S   S438      1.0  0.86736  0.33641  0.67612  1.0000
  Fe  Fe218     1.0  0.92028  0.34851  0.61505  1.0000
  S   S439      1.0  0.92599  0.37758  0.59545  1.0000
  S   S440      1.0  0.91303  0.30100  0.65238  1.0000
  S   S441      1.0  0.94021  0.31908  0.61227  1.0000
  Fe  Fe219     1.0  0.84267  0.24132  0.54258  1.0000
  S   S442      1.0  0.81953  0.24638  0.52301  1.0000
  S   S443      1.0  0.85081  0.26894  0.55087  1.0000
  Fe  Fe220     1.0  0.84719  0.19605  0.54513  1.0000
  S   S444      1.0  0.82484  0.19745  0.52604  1.0000
  S   S445      1.0  0.86056  0.16609  0.55974  1.0000
  Fe  Fe221     1.0  0.83953  0.22251  0.50741  1.0000
  H   H2606     1.0  0.78587  0.24279  0.65050  1.0000
  Fe  Fe222     1.0  0.80665  0.22074  0.54320  1.0000
  S   S446      1.0  0.77357  0.22161  0.55506  1.0000
  S   S447      1.0  0.86363  0.21928  0.52540  1.0000
  S   S448      1.0  0.82806  0.21764  0.56379  1.0000
  C   C3259     1.0  0.91156  0.28815  0.53302  1.0000
  C   C3260     1.0  0.89232  0.27654  0.59145  1.0000
  C   C3261     1.0  0.88012  0.29304  0.58281  1.0000
  C   C3262     1.0  0.86740  0.29037  0.57062  1.0000
  C   C3263     1.0  0.86653  0.27122  0.56704  1.0000
  C   C3264     1.0  0.87844  0.25469  0.57597  1.0000
  C   C3265     1.0  0.89149  0.25740  0.58781  1.0000
  H   H2607     1.0  0.88051  0.30785  0.58550  1.0000
  H   H2608     1.0  0.85812  0.30322  0.56392  1.0000
  H   H2609     1.0  0.87762  0.23987  0.57369  1.0000
  H   H2610     1.0  0.90079  0.24454  0.59448  1.0000
  P   P109      1.0  0.75132  0.19370  0.49368  1.0000
  S   S449      1.0  0.66693  0.98047  0.63779  1.0000
  H   H2611     1.0  0.98511  0.29015  0.57040  1.0000
  C   C3266     1.0  0.87900  0.36472  0.69258  1.0000
  C   C3267     1.0  0.86447  0.35306  0.69303  1.0000
  H   H2612     1.0  0.67050  0.07468  0.67965  1.0000
  H   H2613     1.0  0.65864  0.08697  0.53893  1.0000
  C   C3268     1.0  0.97413  0.35668  0.55773  1.0000
  H   H2614     1.0  0.89235  0.36362  0.68172  1.0000
  C   C3269     1.0  0.93656  0.35544  0.70369  1.0000
  C   C3270     1.0  0.72075  0.19710  0.52597  1.0000
  C   C3271     1.0  0.74777  0.16286  0.57485  1.0000
  C   C3272     1.0  0.73561  0.18125  0.57710  1.0000
  C   C3273     1.0  0.74362  0.19918  0.57089  1.0000
  C   C3274     1.0  0.76384  0.19886  0.56253  1.0000
  C   C3275     1.0  0.77597  0.18046  0.56043  1.0000
  C   C3276     1.0  0.76797  0.16258  0.56655  1.0000
  H   H2615     1.0  0.72003  0.18165  0.58343  1.0000
  H   H2616     1.0  0.73411  0.21335  0.57255  1.0000
  H   H2617     1.0  0.79156  0.17996  0.55415  1.0000
  H   H2618     1.0  0.77754  0.14843  0.56490  1.0000
  C   C3277     1.0  0.69884  0.03550  0.62406  1.0000
  C   C3278     1.0  0.67842  0.03766  0.62383  1.0000
  C   C3279     1.0  0.70979  0.01614  0.62749  1.0000
  H   H2619     1.0  0.92427  0.98127  0.53775  1.0000
  H   H2620     1.0  0.72561  0.01431  0.62760  1.0000
  H   H2621     1.0  0.85545  0.12496  0.56988  1.0000
  C   C3280     1.0  0.90944  0.18098  0.49474  1.0000
  S   S450      1.0  0.92650  0.07269  0.49051  1.0000
  H   H2622     1.0  0.90304  0.25915  0.53582  1.0000
  C   C3281     1.0  0.79143  0.11245  0.66511  1.0000
  C   C3282     1.0  0.68016  0.08009  0.55818  1.0000
  C   C3283     1.0  0.90423  0.44224  0.66731  1.0000
  S   S451      1.0  0.66725  0.13022  0.66842  1.0000
  C   C3284     1.0  0.85997  0.12810  0.55430  1.0000
  C   C3285     1.0  0.95618  0.39327  0.56935  1.0000
  C   C3286     1.0  0.94781  0.37599  0.57779  1.0000
  H   H2623     1.0  0.95033  0.34237  0.67792  1.0000
  H   H2624     1.0  0.94919  0.40749  0.57376  1.0000
  H   H2625     1.0  0.95018  0.34446  0.57768  1.0000
  H   H2626     1.0  0.78390  0.18916  0.69259  1.0000
  H   H2627     1.0  0.85969  0.09802  0.55022  1.0000
  H   H2628     1.0  0.72052  0.21311  0.52264  1.0000
  H   H2629     1.0  0.86503  0.18623  0.59068  1.0000
  H   H2630     1.0  0.72147  0.13978  0.54013  1.0000
  C   C3287     1.0  0.86245  0.11282  0.54317  1.0000
  C   C3288     1.0  0.86935  0.11637  0.52312  1.0000
  H   H2631     1.0  0.87803  0.13849  0.49863  1.0000
  H   H2632     1.0  0.66904  0.04579  0.66418  1.0000
  H   H2633     1.0  0.87205  0.16603  0.51808  1.0000
  C   C3289     1.0  0.86949  0.15118  0.52513  1.0000
  C   C3290     1.0  0.65358  0.00939  0.58192  1.0000
  H   H2634     1.0  0.86208  0.43663  0.71046  1.0000
  C   C3291     1.0  0.75201  0.21955  0.49452  1.0000
  C   C3292     1.0  0.96080  0.31619  0.53392  1.0000
  C   C3293     1.0  0.91254  0.32541  0.71154  1.0000
  H   H2635     1.0  0.77539  0.24773  0.51442  1.0000
  C   C3294     1.0  0.82898  0.27977  0.66270  1.0000
  C   C3295     1.0  0.77635  0.18035  0.49470  1.0000
  H   H2636     1.0  0.96209  0.12913  0.54053  1.0000
  H   H2637     1.0  0.90156  0.12171  0.57932  1.0000
  C   C3296     1.0  0.88842  0.45291  0.67866  1.0000
  H   H2638     1.0  0.69738  0.03360  0.58024  1.0000
  H   H2639     1.0  0.66987  0.05246  0.62088  1.0000
  C   C3297     1.0  0.73410  0.18413  0.51457  1.0000
  C   C3298     1.0  0.96745  0.39387  0.66068  1.0000
  C   C3299     1.0  0.87286  0.13560  0.51409  1.0000
  C   C3300     1.0  0.88524  0.20975  0.61801  1.0000
  C   C3301     1.0  0.88421  0.19699  0.60531  1.0000
  C   C3302     1.0  0.67441  0.01989  0.52170  1.0000
  H   H2640     1.0  0.96948  0.34636  0.63637  1.0000
  C   C3303     1.0  0.84968  0.22196  0.62002  1.0000
  C   C3304     1.0  0.86802  0.22207  0.62549  1.0000
  P   P110      1.0  0.82710  0.23719  0.63006  1.0000
  C   C3305     1.0  0.81362  0.22203  0.65016  1.0000
  H   H2641     1.0  0.93119  0.12469  0.50960  1.0000
  H   H2642     1.0  0.98173  0.46676  0.47585  1.0000
  C   C3306     1.0  0.68926  0.04499  0.57068  1.0000
  C   C3307     1.0  0.88048  0.33766  0.54749  1.0000
  C   C3308     1.0  0.69753  0.99918  0.56563  1.0000
  C   C3309     1.0  0.65685  0.07347  0.67508  1.0000
  C   C3310     1.0  0.82305  0.20355  0.65887  1.0000
  C   C3311     1.0  0.81233  0.19173  0.67410  1.0000
  C   C3312     1.0  0.94182  0.01266  0.49759  1.0000
  C   C3313     1.0  0.96691  0.40175  0.64107  1.0000
  C   C3314     1.0  0.90068  0.31286  0.50648  1.0000
  C   C3315     1.0  0.81212  0.24570  0.61101  1.0000
  C   C3316     1.0  0.79742  0.23486  0.60948  1.0000
  C   C3317     1.0  0.78625  0.24102  0.59445  1.0000
  C   C3318     1.0  0.78997  0.25771  0.58050  1.0000
  C   C3319     1.0  0.80472  0.26840  0.58170  1.0000
  C   C3320     1.0  0.81576  0.26245  0.59685  1.0000
  H   H2643     1.0  0.89940  0.21021  0.62200  1.0000
  C   C3321     1.0  0.87001  0.35768  0.57332  1.0000
  C   C3322     1.0  0.79219  0.19830  0.68078  1.0000
  H   H2644     1.0  0.94279  0.45018  0.68621  1.0000
  H   H2645     1.0  0.86916  0.23166  0.63547  1.0000
  C   C3323     1.0  0.92760  0.45094  0.68413  1.0000
  H   H2646     1.0  0.72883  0.23178  0.47715  1.0000
  S   S452      1.0  0.96766  0.09945  0.49554  1.0000
  C   C3324     1.0  0.92731  0.32652  0.69500  1.0000
  H   H2647     1.0  0.83863  0.19816  0.65394  1.0000
  C   C3325     1.0  0.93878  0.33862  0.49265  1.0000
  H   H2648     1.0  0.74507  0.98903  0.54111  1.0000
  H   H2649     1.0  0.89755  0.18752  0.59942  1.0000
  C   C3326     1.0  0.92480  0.36540  0.51139  1.0000
  H   H2650     1.0  0.79480  0.22137  0.61959  1.0000
  H   H2651     1.0  0.77504  0.23257  0.59319  1.0000
  H   H2652     1.0  0.78174  0.26202  0.56849  1.0000
  H   H2653     1.0  0.80806  0.28098  0.57052  1.0000
  H   H2654     1.0  0.82742  0.27073  0.59702  1.0000
  H   H2655     1.0  0.95231  0.14889  0.48266  1.0000
  H   H2656     1.0  0.96790  0.17822  0.49288  1.0000
  C   C3327     1.0  0.97048  0.41058  0.48702  1.0000
  C   C3328     1.0  0.96222  0.40790  0.50676  1.0000
  C   C3329     1.0  0.94795  0.42292  0.51438  1.0000
  H   H2657     1.0  0.91706  0.37075  0.52467  1.0000
  C   C3330     1.0  0.81228  0.47339  0.71730  1.0000
  H   H2658     1.0  0.67352  0.02520  0.49098  1.0000
  H   H2659     1.0  0.68899  0.99020  0.59661  1.0000
  C   C3331     1.0  0.83300  0.25842  0.63816  1.0000
  C   C3332     1.0  0.92130  0.40499  0.71087  1.0000
  C   C3333     1.0  0.86531  0.34703  0.56049  1.0000
  C   C3334     1.0  0.90513  0.34939  0.56038  1.0000
  C   C3335     1.0  0.66892  0.01634  0.50493  1.0000
  H   H2660     1.0  0.71165  0.00670  0.53571  1.0000
  H   H2661     1.0  0.91843  0.28382  0.54588  1.0000
  H   H2662     1.0  0.80555  0.15457  0.52765  1.0000
  C   C3336     1.0  0.87637  0.37755  0.70639  1.0000
  C   C3337     1.0  0.93136  0.37934  0.49544  1.0000
  C   C3338     1.0  0.91180  0.46149  0.69560  1.0000
  H   H2663     1.0  0.96324  0.00400  0.47335  1.0000
  H   H2664     1.0  0.91632  0.09530  0.52724  1.0000
  H   H2665     1.0  0.95024  0.28782  0.58668  1.0000
  C   C3339     1.0  0.94186  0.44066  0.50223  1.0000
  H   H2666     1.0  0.84990  0.34588  0.56073  1.0000
  H   H2667     1.0  0.68353  0.03130  0.52043  1.0000
  C   C3340     1.0  0.93739  0.30511  0.56234  1.0000
  H   H2668     1.0  0.87341  0.45398  0.67592  1.0000
  H   H2669     1.0  0.92024  0.39494  0.63884  1.0000
  C   C3341     1.0  0.89188  0.29869  0.50096  1.0000
  C   C3342     1.0  0.91638  0.10750  0.53479  1.0000
  H   H2670     1.0  0.89916  0.32799  0.49855  1.0000
  C   C3343     1.0  0.78273  0.21671  0.67225  1.0000
  C   C3344     1.0  0.84856  0.46778  0.71065  1.0000
  H   H2671     1.0  0.85829  0.36484  0.58349  1.0000
  H   H2672     1.0  0.90132  0.43482  0.65629  1.0000
  C   C3345     1.0  0.80153  0.16213  0.51381  1.0000
  C   C3346     1.0  0.74000  0.25504  0.48574  1.0000
  H   H2673     1.0  0.98120  0.39285  0.66598  1.0000
  H   H2674     1.0  0.92060  0.38185  0.67357  1.0000
  H   H2675     1.0  0.87640  0.32944  0.53780  1.0000
  C   C3347     1.0  0.73410  0.16343  0.51964  1.0000
  H   H2676     1.0  0.94982  0.40726  0.61781  1.0000
  C   C3348     1.0  0.85288  0.28505  0.63312  1.0000
  H   H2677     1.0  0.65456  0.05189  0.54115  1.0000
  C   C3349     1.0  0.70086  0.98966  0.58425  1.0000
  C   C3350     1.0  0.95539  0.99876  0.48764  1.0000
  H   H2678     1.0  0.92226  0.30435  0.56989  1.0000
  C   C3351     1.0  0.97705  0.36540  0.70129  1.0000
  C   C3352     1.0  0.73268  0.98911  0.55313  1.0000
  S   S453      1.0  0.85035  0.22306  0.47497  1.0000
  C   C3353     1.0  0.94544  0.35260  0.47677  1.0000
  C   C3354     1.0  0.93323  0.39512  0.64509  1.0000
  C   C3355     1.0  0.98277  0.37378  0.54964  1.0000
  H   H2679     1.0  0.69902  0.27673  0.71525  1.0000
  H   H2680     1.0  0.89349  0.36732  0.58303  1.0000
  P   P111      1.0  0.92032  0.32662  0.53070  1.0000
  H   H2681     1.0  0.77856  0.15158  0.70012  1.0000
  C   C3356     1.0  0.92381  0.44127  0.67003  1.0000
  C   C3357     1.0  0.97373  0.39216  0.55537  1.0000
  C   C3358     1.0  0.65606  0.05728  0.66626  1.0000
  C   C3359     1.0  0.88988  0.35898  0.57313  1.0000
  C   C3360     1.0  0.94101  0.31524  0.54318  1.0000
  C   C3361     1.0  0.67666  0.03997  0.55985  1.0000
  P   P112      1.0  0.95157  0.37525  0.69787  1.0000
  H   H2682     1.0  0.70049  0.06861  0.57857  1.0000
  C   C3362     1.0  0.95678  0.35774  0.57180  1.0000
  H   H2683     1.0  0.81966  0.17744  0.68069  1.0000
  H   H2684     1.0  0.84790  0.30249  0.65622  1.0000
  C   C3363     1.0  0.97288  0.29690  0.56271  1.0000
  C   C3364     1.0  0.69100  0.06497  0.56982  1.0000
  H   H2685     1.0  0.92006  0.01726  0.52321  1.0000
  H   H2686     1.0  0.93604  0.43306  0.66117  1.0000
  C   C3365     1.0  0.84721  0.35457  0.70734  1.0000
  S   S454      1.0  0.96775  0.30593  0.65746  1.0000
  H   H2687     1.0  0.76711  0.22180  0.67740  1.0000
  H   H2688     1.0  0.98129  0.03249  0.47283  1.0000
  C   C3366     1.0  0.75313  0.25964  0.49617  1.0000
  C   C3367     1.0  0.84361  0.29032  0.65116  1.0000
  C   C3368     1.0  0.97665  0.30701  0.54367  1.0000
  C   C3369     1.0  0.75340  0.07826  0.64217  1.0000
  C   C3370     1.0  0.75637  0.07632  0.62256  1.0000
  C   C3371     1.0  0.76303  0.09163  0.60823  1.0000
  C   C3372     1.0  0.76680  0.10887  0.61349  1.0000
  C   C3373     1.0  0.76405  0.11088  0.63315  1.0000
  C   C3374     1.0  0.75706  0.09555  0.64747  1.0000
  P   P113      1.0  0.76606  0.13421  0.63990  1.0000
  C   C3375     1.0  0.74072  0.14706  0.64431  1.0000
  C   C3376     1.0  0.72888  0.14379  0.66279  1.0000
  C   C3377     1.0  0.70891  0.15290  0.66586  1.0000
  C   C3378     1.0  0.70055  0.16503  0.65046  1.0000
  C   C3379     1.0  0.71206  0.16788  0.63193  1.0000
  C   C3380     1.0  0.73200  0.15876  0.62885  1.0000
  C   C3381     1.0  0.78241  0.14805  0.62130  1.0000
  C   C3382     1.0  0.77807  0.16899  0.61659  1.0000
  C   C3383     1.0  0.79094  0.17942  0.60217  1.0000
  C   C3384     1.0  0.80843  0.16912  0.59273  1.0000
  C   C3385     1.0  0.81318  0.14842  0.59778  1.0000
  C   C3386     1.0  0.80031  0.13791  0.61208  1.0000
  H   H2689     1.0  0.74745  0.06669  0.65316  1.0000
  H   H2690     1.0  0.75277  0.06327  0.61844  1.0000
  H   H2691     1.0  0.76446  0.09054  0.59300  1.0000
  H   H2692     1.0  0.77108  0.12090  0.60211  1.0000
  H   H2693     1.0  0.75380  0.09721  0.66267  1.0000
  H   H2694     1.0  0.79534  0.10150  0.65536  1.0000
  H   H2695     1.0  0.73483  0.13379  0.67472  1.0000
  C   C3387     1.0  0.90299  0.18526  0.47674  1.0000
  H   H2696     1.0  0.68494  0.17165  0.65279  1.0000
  H   H2697     1.0  0.70539  0.17671  0.61985  1.0000
  H   H2698     1.0  0.74051  0.16044  0.61432  1.0000
  H   H2699     1.0  0.76470  0.17730  0.62380  1.0000
  H   H2700     1.0  0.78711  0.19542  0.59787  1.0000
  H   H2701     1.0  0.81821  0.17708  0.58127  1.0000
  H   H2702     1.0  0.82677  0.14055  0.59037  1.0000
  H   H2703     1.0  0.80422  0.12184  0.61578  1.0000
  C   C3388     1.0  0.78221  0.14071  0.69030  1.0000
  C   C3389     1.0  0.79340  0.22856  0.65703  1.0000
  C   C3390     1.0  0.76493  0.22431  0.50520  1.0000
  C   C3391     1.0  0.94992  0.40209  0.63321  1.0000
  P   P114      1.0  0.87188  0.47724  0.70704  1.0000
  C   C3392     1.0  0.76549  0.24427  0.50597  1.0000
  H   H2704     1.0  0.78089  0.13060  0.48139  1.0000
  C   C3393     1.0  0.96223  0.15452  0.51714  1.0000
  C   C3394     1.0  0.95079  0.38661  0.67273  1.0000
  C   C3395     1.0  0.95326  0.29576  0.57194  1.0000
  C   C3396     1.0  0.91063  0.30770  0.52256  1.0000
  C   C3397     1.0  0.93073  0.00641  0.51570  1.0000
  C   C3398     1.0  0.86591  0.19632  0.60031  1.0000
  H   H2705     1.0  0.88776  0.38631  0.70603  1.0000
  H   H2706     1.0  0.69799  0.16278  0.55991  1.0000
  C   C3399     1.0  0.81142  0.11801  0.48475  1.0000
  C   C3400     1.0  0.79100  0.12385  0.49144  1.0000
  C   C3401     1.0  0.78337  0.12078  0.51141  1.0000
  C   C3402     1.0  0.79606  0.11236  0.52483  1.0000
  C   C3403     1.0  0.81633  0.10649  0.51829  1.0000
  C   C3404     1.0  0.82386  0.10902  0.49838  1.0000
  H   H2707     1.0  0.92045  0.35050  0.56057  1.0000
  C   C3405     1.0  0.84869  0.20863  0.60776  1.0000
  C   C3406     1.0  0.96447  0.42828  0.47485  1.0000
  C   C3407     1.0  0.66744  0.07521  0.54752  1.0000
  C   C3408     1.0  0.77322  0.14407  0.67378  1.0000
  H   H2708     1.0  0.65560  0.13308  0.70884  1.0000
  C   C3409     1.0  0.92826  0.34492  0.51006  1.0000
  Fe  Fe223     1.0  0.89968  0.09581  0.48572  1.0000
  H   H2709     1.0  0.90288  0.31420  0.71419  1.0000
  H   H2710     1.0  0.98178  0.39904  0.48125  1.0000
  H   H2711     1.0  0.91650  0.15109  0.56187  1.0000
  S   S455      1.0  0.87318  0.09649  0.50985  1.0000
  C   C3410     1.0  0.94171  0.37296  0.47815  1.0000
  H   H2712     1.0  0.76763  0.12498  0.51660  1.0000
  H   H2713     1.0  0.79016  0.11032  0.54029  1.0000
  H   H2714     1.0  0.82630  0.09979  0.52859  1.0000
  H   H2715     1.0  0.83938  0.10347  0.49360  1.0000
  S   S456      1.0  0.91675  0.12124  0.47652  1.0000
  H   H2716     1.0  0.94192  0.32288  0.49140  1.0000
  H   H2717     1.0  0.76289  0.15776  0.67078  1.0000
  H   H2718     1.0  0.91429  0.40354  0.69906  1.0000
  H   H2719     1.0  0.69960  0.14999  0.67998  1.0000
  H   H2720     1.0  0.83461  0.20762  0.60400  1.0000
  C   C3411     1.0  0.65704  0.00175  0.50623  1.0000
  C   C3412     1.0  0.95008  0.44342  0.48234  1.0000
  H   H2721     1.0  0.72331  0.17058  0.48460  1.0000
  C   C3413     1.0  0.92756  0.16829  0.49707  1.0000
  H   H2722     1.0  0.96705  0.39422  0.51614  1.0000
  P   P115      1.0  0.93544  0.16174  0.52063  1.0000
  C   C3414     1.0  0.82371  0.26387  0.65629  1.0000
  C   C3415     1.0  0.92840  0.18292  0.53356  1.0000
  C   C3416     1.0  0.94276  0.19394  0.53549  1.0000
  C   C3417     1.0  0.93725  0.20998  0.54588  1.0000
  C   C3418     1.0  0.91742  0.21513  0.55448  1.0000
  C   C3419     1.0  0.90303  0.20431  0.55260  1.0000
  C   C3420     1.0  0.90847  0.18833  0.54215  1.0000
  C   C3421     1.0  0.70782  0.16879  0.54712  1.0000
  H   H2723     1.0  0.73029  0.26695  0.47829  1.0000
  H   H2724     1.0  0.97984  0.27137  0.63735  1.0000
  C   C3422     1.0  0.90055  0.33866  0.54741  1.0000
  H   H2725     1.0  0.82188  0.28386  0.67673  1.0000
  C   C3423     1.0  0.92421  0.14050  0.53406  1.0000
  C   C3424     1.0  0.91636  0.13922  0.55401  1.0000
  C   C3425     1.0  0.90816  0.12237  0.56411  1.0000
  C   C3426     1.0  0.90814  0.10654  0.55448  1.0000
  H   H2726     1.0  0.94183  0.42086  0.52979  1.0000
  C   C3427     1.0  0.92446  0.12436  0.52469  1.0000
  H   H2727     1.0  0.88551  0.26848  0.50762  1.0000
  C   C3428     1.0  0.71366  0.99895  0.55010  1.0000
  C   C3429     1.0  0.72109  0.15580  0.53591  1.0000
  H   H2728     1.0  0.90004  0.18743  0.50675  1.0000
  H   H2729     1.0  0.95825  0.19019  0.52915  1.0000
  H   H2730     1.0  0.94839  0.21839  0.54734  1.0000
  H   H2731     1.0  0.91324  0.22749  0.56258  1.0000
  H   H2732     1.0  0.88760  0.20828  0.55920  1.0000
  H   H2733     1.0  0.89714  0.18004  0.54094  1.0000
  H   H2734     1.0  0.93096  0.45217  0.50847  1.0000
  C   C3430     1.0  0.89204  0.46227  0.69320  1.0000
  C   C3431     1.0  0.84756  0.26925  0.62662  1.0000
  H   H2735     1.0  0.92939  0.31590  0.68507  1.0000
  C   C3432     1.0  0.90282  0.27402  0.52738  1.0000
  H   H2736     1.0  0.81114  0.09574  0.68452  1.0000
  C   C3433     1.0  0.97110  0.13801  0.52917  1.0000
  H   H2737     1.0  0.90148  0.09364  0.56216  1.0000
  C   C3434     1.0  0.98246  0.34144  0.64337  1.0000
  H   H2738     1.0  0.68112  0.09565  0.55783  1.0000
  H   H2739     1.0  0.75359  0.27508  0.49684  1.0000
  H   H2740     1.0  0.97435  0.33412  0.70361  1.0000
  C   C3435     1.0  0.86341  0.14732  0.54533  1.0000
  Fe  Fe224     1.0  0.94382  0.09789  0.47892  1.0000
  C   C3436     1.0  0.77747  0.12975  0.66130  1.0000
  C   C3437     1.0  0.73931  0.23507  0.48503  1.0000
  C   C3438     1.0  0.81127  0.17460  0.47970  1.0000
  C   C3439     1.0  0.80049  0.10920  0.68157  1.0000
  C   C3440     1.0  0.67982  0.00129  0.63162  1.0000
  C   C3441     1.0  0.70035  0.99911  0.63125  1.0000
  H   H2741     1.0  0.85509  0.26526  0.61273  1.0000
  H   H2742     1.0  0.96683  0.25495  0.61557  1.0000
  H   H2743     1.0  0.83184  0.15865  0.49861  1.0000
  P   P116      1.0  0.67377  0.01421  0.56192  1.0000
  C   C3442     1.0  0.70761  0.18943  0.54212  1.0000
  C   C3443     1.0  0.93918  0.34154  0.69101  1.0000
  H   H2744     1.0  0.82367  0.07830  0.47828  1.0000
  C   C3444     1.0  0.79581  0.12326  0.69422  1.0000
  H   H2745     1.0  0.86441  0.29309  0.62428  1.0000
  H   H2746     1.0  0.96413  0.32416  0.51931  1.0000
  C   C3445     1.0  0.78164  0.17024  0.51253  1.0000
  H   H2747     1.0  0.77059  0.16916  0.52563  1.0000
  C   C3446     1.0  0.81225  0.45307  0.71791  1.0000
  C   C3447     1.0  0.89289  0.27930  0.51146  1.0000
  C   C3448     1.0  0.93358  0.38756  0.66478  1.0000
  C   C3449     1.0  0.97443  0.16547  0.50235  1.0000
  H   H2748     1.0  0.74421  0.15324  0.51101  1.0000
  H   H2749     1.0  0.98085  0.34256  0.55313  1.0000
  H   H2750     1.0  0.81256  0.25583  0.66568  1.0000
  H   H2751     1.0  0.88384  0.30285  0.48884  1.0000
  C   C3450     1.0  0.81636  0.16438  0.49742  1.0000
  C   C3451     1.0  0.93887  0.15966  0.48111  1.0000
  C   C3452     1.0  0.94005  0.39381  0.71334  1.0000
  H   H2752     1.0  0.92849  0.39512  0.49652  1.0000
  H   H2753     1.0  0.98255  0.41990  0.57977  1.0000
  H   H2754     1.0  0.85374  0.12923  0.47659  1.0000
  C   C3453     1.0  0.79136  0.18230  0.47827  1.0000
  C   C3454     1.0  0.66776  0.00906  0.53997  1.0000
  H   H2755     1.0  0.98020  0.40550  0.54899  1.0000
  C   C3455     1.0  0.98529  0.32231  0.65436  1.0000
  C   C3456     1.0  0.65640  0.99402  0.54099  1.0000
  H   H2756     1.0  0.83024  0.42416  0.71595  1.0000
  H   H2757     1.0  0.80704  0.23010  0.47821  1.0000
  H   H2758     1.0  0.91507  0.46900  0.70635  1.0000
  H   H2759     1.0  0.90142  0.47468  0.48537  1.0000
  C   C3457     1.0  0.83028  0.44002  0.71510  1.0000
  C   C3458     1.0  0.84837  0.44724  0.71176  1.0000
  C   C3459     1.0  0.71979  0.97959  0.58722  1.0000
  H   H2760     1.0  0.98004  0.40671  0.63174  1.0000
  C   C3460     1.0  0.98216  0.25762  0.61207  1.0000
  H   H2761     1.0  0.88884  0.19485  0.47517  1.0000
  C   C3461     1.0  0.98393  0.34468  0.70382  1.0000
  H   H2762     1.0  0.83585  0.34566  0.70778  1.0000
  C   C3462     1.0  0.74340  0.19189  0.47134  1.0000
  H   H2763     1.0  0.84683  0.04776  0.47063  1.0000
  C   C3463     1.0  0.93314  0.98616  0.52387  1.0000
  H   H2764     1.0  0.69145  0.31281  0.71794  1.0000
  C   C3464     1.0  0.73574  0.97941  0.57170  1.0000
  H   H2765     1.0  0.72294  0.42945  0.89997  1.0000
  C   C3465     1.0  0.72297  0.47302  0.78679  1.0000
  H   H2766     1.0  0.72659  0.33684  0.95297  1.0000
  C   C3466     1.0  0.90997  0.33901  0.72440  1.0000
  H   H2767     1.0  0.89868  0.37554  0.83861  1.0000
  C   C3467     1.0  0.91976  0.41987  0.73941  1.0000
  C   C3468     1.0  0.87648  0.46038  0.76475  1.0000
  C   C3469     1.0  0.66900  0.36211  0.91773  1.0000
  H   H2768     1.0  0.87191  0.44878  0.77653  1.0000
  S   S457      1.0  0.91861  0.45411  0.87779  1.0000
  H   H2769     1.0  0.66164  0.39444  0.81664  1.0000
  C   C3470     1.0  0.71322  0.44573  0.81196  1.0000
  H   H2770     1.0  0.87914  0.37057  0.87163  1.0000
  H   H2771     1.0  0.80571  0.31323  0.75798  1.0000
  Fe  Fe225     1.0  0.69919  0.30744  0.86041  1.0000
  S   S458      1.0  0.67910  0.30447  0.84035  1.0000
  S   S459      1.0  0.73204  0.31002  0.85167  1.0000
  H   H2772     1.0  0.92214  0.47302  0.79632  1.0000
  C   C3471     1.0  0.91103  0.41760  0.72410  1.0000
  C   C3472     1.0  0.88244  0.40355  0.79298  1.0000
  C   C3473     1.0  0.72099  0.27542  0.75428  1.0000
  S   S460      1.0  0.67786  0.33140  0.87464  1.0000
  S   S461      1.0  0.68929  0.28188  0.88315  1.0000
  Fe  Fe226     1.0  0.78914  0.39588  0.78610  1.0000
  H   H2773     1.0  0.67325  0.42628  0.81612  1.0000
  S   S462      1.0  0.76016  0.38354  0.79018  1.0000
  Fe  Fe227     1.0  0.82075  0.40822  0.80373  1.0000
  S   S463      1.0  0.83214  0.40557  0.83205  1.0000
  S   S464      1.0  0.78861  0.42057  0.80263  1.0000
  H   H2774     1.0  0.71588  0.32913  0.89421  1.0000
  C   C3474     1.0  0.82580  0.47014  0.86885  1.0000
  H   H2775     1.0  0.70978  0.39231  0.88795  1.0000
  S   S465      1.0  0.83206  0.42738  0.77593  1.0000
  H   H2776     1.0  0.70270  0.36355  0.85440  1.0000
  C   C3475     1.0  0.96843  0.38440  0.80453  1.0000
  H   H2777     1.0  0.69263  0.34244  0.93037  1.0000
  C   C3476     1.0  0.71676  0.34604  0.76919  1.0000
  C   C3477     1.0  0.73978  0.33048  0.83460  1.0000
  C   C3478     1.0  0.75969  0.33357  0.83163  1.0000
  C   C3479     1.0  0.76624  0.34977  0.81809  1.0000
  C   C3480     1.0  0.75284  0.36306  0.80752  1.0000
  C   C3481     1.0  0.73297  0.35991  0.81049  1.0000
  C   C3482     1.0  0.72650  0.34359  0.82383  1.0000
  H   H2778     1.0  0.77009  0.32339  0.83985  1.0000
  H   H2779     1.0  0.78161  0.35199  0.81586  1.0000
  H   H2780     1.0  0.72250  0.37017  0.80246  1.0000
  H   H2781     1.0  0.71125  0.34110  0.82570  1.0000
  C   C3483     1.0  0.67160  0.31003  0.94450  1.0000
  C   C3484     1.0  0.70408  0.28207  0.72650  1.0000
  C   C3485     1.0  0.65926  0.44058  0.93516  1.0000
  H   H2782     1.0  0.71471  0.39503  0.85376  1.0000
  C   C3486     1.0  0.70933  0.32855  0.77898  1.0000
  C   C3487     1.0  0.69162  0.30101  0.94216  1.0000
  H   H2783     1.0  0.82700  0.47208  0.76134  1.0000
  H   H2784     1.0  0.67807  0.38094  0.78483  1.0000
  C   C3488     1.0  0.70895  0.25928  0.83198  1.0000
  H   H2785     1.0  0.69789  0.29338  0.92987  1.0000
  C   C3489     1.0  0.92582  0.44115  0.80599  1.0000
  H   H2786     1.0  0.76664  0.37274  0.91107  1.0000
  H   H2787     1.0  0.97000  0.33460  0.84093  1.0000
  C   C3490     1.0  0.91820  0.40652  0.85908  1.0000
  H   H2788     1.0  0.75714  0.37669  0.84307  1.0000
  H   H2789     1.0  0.79168  0.38515  0.88366  1.0000
  H   H2790     1.0  0.97272  0.44810  0.82434  1.0000
  H   H2791     1.0  0.73267  0.36291  0.87019  1.0000
  H   H2792     1.0  0.91218  0.43985  0.80156  1.0000
  H   H2793     1.0  0.78704  0.38713  0.84967  1.0000
  H   H2794     1.0  0.67690  0.39339  0.95568  1.0000
  C   C3491     1.0  0.87005  0.45228  0.83446  1.0000
  C   C3492     1.0  0.85958  0.45445  0.81911  1.0000
  C   C3493     1.0  0.84756  0.44048  0.81863  1.0000
  C   C3494     1.0  0.84595  0.42406  0.83345  1.0000
  C   C3495     1.0  0.85597  0.42213  0.84920  1.0000
  C   C3496     1.0  0.86809  0.43620  0.84969  1.0000
  C   C3497     1.0  0.66364  0.31967  0.96069  1.0000
  H   H2795     1.0  0.83954  0.44249  0.80674  1.0000
  H   H2796     1.0  0.85467  0.40953  0.86081  1.0000
  H   H2797     1.0  0.87614  0.43447  0.86159  1.0000
  C   C3498     1.0  0.89008  0.39142  0.77874  1.0000
  H   H2798     1.0  0.73088  0.39656  0.92209  1.0000
  C   C3499     1.0  0.66732  0.42027  0.93659  1.0000
  P   P117      1.0  0.70167  0.43664  0.83639  1.0000
  C   C3500     1.0  0.69029  0.33021  0.79048  1.0000
  C   C3501     1.0  0.74498  0.36859  0.87335  1.0000
  C   C3502     1.0  0.75150  0.32034  0.92300  1.0000
  C   C3503     1.0  0.77586  0.38192  0.86167  1.0000
  C   C3504     1.0  0.95982  0.45786  0.95930  1.0000
  C   C3505     1.0  0.73038  0.38583  0.93538  1.0000
  H   H2799     1.0  0.88047  0.38896  0.76943  1.0000
  C   C3506     1.0  0.89017  0.38047  0.86819  1.0000
  C   C3507     1.0  0.90718  0.40344  0.87788  1.0000
  H   H2800     1.0  0.94511  0.41050  0.75401  1.0000
  C   C3508     1.0  0.79758  0.46899  0.81364  1.0000
  C   C3509     1.0  0.75749  0.31740  0.78112  1.0000
  S   S466      1.0  0.65797  0.25206  0.85994  1.0000
  H   H2801     1.0  0.70519  0.24899  0.84525  1.0000
  H   H2802     1.0  0.72910  0.26478  0.76442  1.0000
  C   C3510     1.0  0.72987  0.36566  0.93503  1.0000
  C   C3511     1.0  0.69410  0.41319  0.83581  1.0000
  C   C3512     1.0  0.92232  0.38515  0.78898  1.0000
  H   H2803     1.0  0.73036  0.40781  0.95324  1.0000
  H   H2804     1.0  0.88446  0.38830  0.89693  1.0000
  H   H2805     1.0  0.73287  0.26827  0.84170  1.0000
  C   C3513     1.0  0.87236  0.46092  0.74618  1.0000
  C   C3514     1.0  0.76285  0.29728  0.75559  1.0000
  H   H2806     1.0  0.74596  0.43145  0.82899  1.0000
  H   H2807     1.0  0.84691  0.45992  0.90971  1.0000
  C   C3515     1.0  0.98547  0.36977  0.80318  1.0000
  C   C3516     1.0  0.72009  0.43287  0.85207  1.0000
  H   H2808     1.0  0.69273  0.27842  0.78924  1.0000
  H   H2809     1.0  0.86469  0.44952  0.74392  1.0000
  H   H2810     1.0  0.71154  0.37826  0.76405  1.0000
  C   C3517     1.0  0.72788  0.42992  0.88446  1.0000
  C   C3518     1.0  0.73596  0.43878  0.78231  1.0000
  C   C3519     1.0  0.71638  0.29577  0.75618  1.0000
  P   P118      1.0  0.92976  0.40004  0.82042  1.0000
  C   C3520     1.0  0.74057  0.43120  0.84439  1.0000
  H   H2811     1.0  0.83820  0.44281  0.88563  1.0000
  C   C3521     1.0  0.74709  0.36811  0.89266  1.0000
  C   C3522     1.0  0.69859  0.38353  0.89590  1.0000
  C   C3523     1.0  0.74819  0.42850  0.87667  1.0000
  C   C3524     1.0  0.73003  0.39225  0.95297  1.0000
  H   H2812     1.0  0.78306  0.32891  0.78460  1.0000
  C   C3525     1.0  0.72507  0.43200  0.80037  1.0000
  C   C3526     1.0  0.77725  0.46913  0.82054  1.0000
  C   C3527     1.0  0.74805  0.28989  0.91273  1.0000
  C   C3528     1.0  0.68460  0.47162  0.85156  1.0000
  Fe  Fe228     1.0  0.66669  0.30584  0.89615  1.0000
  C   C3529     1.0  0.71792  0.28672  0.79794  1.0000
  H   H2813     1.0  0.86685  0.41019  0.79494  1.0000
  C   C3530     1.0  0.68132  0.37707  0.83568  1.0000
  C   C3531     1.0  0.68090  0.45411  0.84652  1.0000
  C   C3532     1.0  0.95429  0.42713  0.82198  1.0000
  C   C3533     1.0  0.69615  0.37734  0.84626  1.0000
  C   C3534     1.0  0.67865  0.39001  0.89363  1.0000
  H   H2814     1.0  0.83128  0.36839  0.73214  1.0000
  C   C3535     1.0  0.74993  0.30616  0.77062  1.0000
  C   C3536     1.0  0.73318  0.30060  0.90241  1.0000
  C   C3537     1.0  0.95190  0.38129  0.81920  1.0000
  H   H2815     1.0  0.74391  0.46448  0.76177  1.0000
  H   H2816     1.0  0.92886  0.41676  0.85594  1.0000
  C   C3538     1.0  0.75724  0.29977  0.92299  1.0000
  H   H2817     1.0  0.75752  0.28865  0.74714  1.0000
  C   C3539     1.0  0.91528  0.39658  0.84466  1.0000
  C   C3540     1.0  0.67318  0.39472  0.82478  1.0000
  C   C3541     1.0  0.94845  0.39568  0.72920  1.0000
  H   H2818     1.0  0.75255  0.27399  0.91259  1.0000
  C   C3542     1.0  0.70203  0.27602  0.80028  1.0000
  C   C3543     1.0  0.89469  0.40661  0.80515  1.0000
  H   H2819     1.0  0.76888  0.29150  0.93087  1.0000
  C   C3544     1.0  0.71388  0.43208  0.87223  1.0000
  C   C3545     1.0  0.70391  0.36586  0.90853  1.0000
  H   H2820     1.0  0.91176  0.42965  0.74965  1.0000
  H   H2821     1.0  0.82301  0.46241  0.85801  1.0000
  H   H2822     1.0  0.80503  0.46073  0.80200  1.0000
  C   C3546     1.0  0.70344  0.30157  0.95599  1.0000
  H   H2823     1.0  0.65749  0.35402  0.92654  1.0000
  C   C3547     1.0  0.66141  0.44950  0.85152  1.0000
  H   H2824     1.0  0.74782  0.32447  0.79268  1.0000
  H   H2825     1.0  0.95255  0.47726  0.80736  1.0000
  H   H2826     1.0  0.68396  0.31702  0.79776  1.0000
  H   H2827     1.0  0.76896  0.46114  0.81405  1.0000
  Fe  Fe229     1.0  0.66713  0.28099  0.86399  1.0000
  H   H2828     1.0  0.91954  0.36431  0.73073  1.0000
  C   C3548     1.0  0.67971  0.41270  0.82463  1.0000
  C   C3549     1.0  0.65472  0.44985  0.95167  1.0000
  S   S467      1.0  0.82070  0.38170  0.78949  1.0000
  H   H2829     1.0  0.73123  0.34524  0.75991  1.0000
  C   C3550     1.0  0.77841  0.38088  0.88085  1.0000
  H   H2830     1.0  0.70230  0.32504  0.74379  1.0000
  C   C3551     1.0  0.75905  0.37596  0.85794  1.0000
  C   C3552     1.0  0.68892  0.35550  0.91980  1.0000
  H   H2831     1.0  0.74556  0.42807  0.77377  1.0000
  H   H2832     1.0  0.67628  0.36313  0.83576  1.0000
  C   C3553     1.0  0.93724  0.42449  0.81551  1.0000
  C   C3554     1.0  0.70596  0.30927  0.74278  1.0000
  Fe  Fe230     1.0  0.90091  0.47493  0.85666  1.0000
  C   C3555     1.0  0.75451  0.42918  0.85665  1.0000
  H   H2833     1.0  0.69820  0.43319  0.87853  1.0000
  H   H2834     1.0  0.77029  0.42796  0.85059  1.0000
  Fe  Fe231     1.0  0.65695  0.32639  0.85644  1.0000
  C   C3556     1.0  0.72453  0.27009  0.82995  1.0000
  H   H2835     1.0  0.89615  0.42540  0.72257  1.0000
  H   H2836     1.0  0.91583  0.37265  0.76580  1.0000
  S   S468      1.0  0.79828  0.41429  0.75687  1.0000
  C   C3557     1.0  0.72902  0.28376  0.81302  1.0000
  Fe  Fe232     1.0  0.82983  0.40186  0.76129  1.0000
  H   H2837     1.0  0.75908  0.42676  0.88611  1.0000
  C   C3558     1.0  0.77750  0.31993  0.77658  1.0000
  Fe  Fe233     1.0  0.79989  0.43806  0.77383  1.0000
  C   C3559     1.0  0.70278  0.39526  0.84604  1.0000
  C   C3560     1.0  0.69774  0.26223  0.81712  1.0000
  H   H2838     1.0  0.67014  0.41289  0.92398  1.0000
  H   H2839     1.0  0.72635  0.29304  0.89410  1.0000
  H   H2840     1.0  0.75909  0.32784  0.93066  1.0000
  C   C3561     1.0  0.96956  0.34852  0.83078  1.0000
  H   H2841     1.0  0.68541  0.25411  0.81890  1.0000
  C   C3562     1.0  0.76410  0.37399  0.89632  1.0000
  H   H2842     1.0  0.79281  0.29301  0.73946  1.0000
  S   S469      1.0  0.85714  0.39498  0.73811  1.0000
  H   H2843     1.0  0.67453  0.40345  0.88361  1.0000
  P   P119      1.0  0.72366  0.30421  0.77587  1.0000
  H   H2844     1.0  0.93758  0.37759  0.78733  1.0000
  H   H2845     1.0  0.96301  0.41471  0.82996  1.0000
  H   H2846     1.0  0.88843  0.41578  0.81633  1.0000
  C   C3563     1.0  0.72721  0.32111  0.90259  1.0000
  C   C3564     1.0  0.73610  0.33107  0.91318  1.0000
  C   C3565     1.0  0.72820  0.35221  0.95258  1.0000
  P   P120      1.0  0.72931  0.35776  0.91244  1.0000
  C   C3566     1.0  0.89313  0.39048  0.88242  1.0000
  C   C3567     1.0  0.91471  0.39740  0.80331  1.0000
  C   C3568     1.0  0.90121  0.38345  0.84941  1.0000
  H   H2847     1.0  0.72657  0.41602  0.80553  1.0000
  S   S470      1.0  0.65578  0.30913  0.92802  1.0000
  C   C3569     1.0  0.95989  0.44605  0.81882  1.0000
  H   H2848     1.0  0.71888  0.29446  0.95412  1.0000
  C   C3570     1.0  0.91001  0.38220  0.77675  1.0000
  C   C3571     1.0  0.70552  0.36485  0.77133  1.0000
  C   C3572     1.0  0.83456  0.45894  0.88447  1.0000
  C   C3573     1.0  0.93854  0.40904  0.74187  1.0000
  H   H2849     1.0  0.74092  0.29215  0.81205  1.0000
  C   C3574     1.0  0.90401  0.47338  0.96402  1.0000
  C   C3575     1.0  0.67909  0.34906  0.79259  1.0000
  C   C3576     1.0  0.71205  0.46631  0.80491  1.0000
  H   H2850     1.0  0.86066  0.46713  0.80756  1.0000
  H   H2851     1.0  0.94474  0.45503  0.96497  1.0000
  H   H2852     1.0  0.96236  0.38656  0.73217  1.0000
  C   C3577     1.0  0.73501  0.45927  0.77556  1.0000
  S   S471      1.0  0.78447  0.47016  0.76776  1.0000
  H   H2853     1.0  0.93989  0.36020  0.84345  1.0000
  H   H2854     1.0  0.68199  0.47192  0.96275  1.0000
  H   H2855     1.0  0.90941  0.41127  0.88889  1.0000
  H   H2856     1.0  0.96816  0.39817  0.79417  1.0000
  C   C3578     1.0  0.95250  0.36313  0.83219  1.0000
  H   H2857     1.0  0.65787  0.43587  0.84871  1.0000
  H   H2858     1.0  0.89824  0.33836  0.73703  1.0000
  C   C3579     1.0  0.93148  0.46007  0.80288  1.0000
  H   H2859     1.0  0.90104  0.45841  0.96994  1.0000
  H   H2860     1.0  0.69958  0.47516  0.84853  1.0000
  S   S472      1.0  0.97465  0.46174  0.86085  1.0000
  S   S473      1.0  0.88618  0.46948  0.83295  1.0000
  C   C3580     1.0  0.78292  0.29975  0.75113  1.0000
  H   H2861     1.0  0.96510  0.43812  0.93814  1.0000
  Fe  Fe234     1.0  0.94191  0.47406  0.86673  1.0000
  H   H2862     1.0  0.88895  0.47481  0.78276  1.0000
  C   C3581     1.0  0.66388  0.37927  0.90454  1.0000
  C   C3582     1.0  0.94851  0.46250  0.80924  1.0000
  H   H2863     1.0  0.70307  0.47723  0.81341  1.0000
  C   C3583     1.0  0.87778  0.47621  0.73092  1.0000
  Fe  Fe235     1.0  0.90539  0.47644  0.89813  1.0000
  C   C3584     1.0  0.71476  0.26860  0.73956  1.0000
  C   C3585     1.0  0.83943  0.46857  0.89804  1.0000
  C   C3586     1.0  0.97135  0.44823  0.94425  1.0000
  S   S474      1.0  0.89460  0.46698  0.93020  1.0000
  H   H2864     1.0  0.79824  0.44740  0.72098  1.0000
  C   C3587     1.0  0.88611  0.47502  0.76825  1.0000
  H   H2865     1.0  0.71796  0.25282  0.73844  1.0000
  C   C3588     1.0  0.96758  0.47148  0.96671  1.0000
  C   C3589     1.0  0.79022  0.31112  0.76157  1.0000
  C   C3590     1.0  0.67111  0.40928  0.95449  1.0000
  H   H2866     1.0  0.65606  0.44915  0.92136  1.0000
  C   C3591     1.0  0.69979  0.30239  0.72804  1.0000
  C   C3592     1.0  0.68673  0.36637  0.78310  1.0000
  C   C3593     1.0  0.84457  0.36747  0.72116  1.0000
  C   C3594     1.0  0.72827  0.35857  0.97004  1.0000
  C   C3595     1.0  0.98605  0.35185  0.81632  1.0000
  C   C3596     1.0  0.84379  0.47817  0.95952  1.0000
  H   H2867     1.0  0.66445  0.35020  0.80159  1.0000
  C   C3597     1.0  0.65867  0.43898  0.96971  1.0000
  C   C3598     1.0  0.85924  0.37895  0.72079  1.0000
  H   H2868     1.0  0.65417  0.36153  0.96735  1.0000
  H   H2869     1.0  0.65710  0.26345  0.97050  1.0000
  C   C3599     1.0  0.72914  0.37857  0.97029  1.0000
  H   H2870     1.0  0.85249  0.47834  0.94501  1.0000
  C   C3600     1.0  0.92203  0.35387  0.72062  1.0000
  S   S475      1.0  0.65547  0.70086  0.07202  1.0000
  Fe  Fe236     1.0  0.90538  0.50846  0.05196  1.0000
  H   H2871     1.0  0.81351  0.47863  0.01167  1.0000
  S   S476      1.0  0.87624  0.52074  0.06871  1.0000
  C   C3601     1.0  0.77285  0.61374  0.99205  1.0000
  C   C3602     1.0  0.72245  0.58468  0.12755  1.0000
  H   H2872     1.0  0.95838  0.47937  0.97799  1.0000
  H   H2873     1.0  0.69496  0.62668  0.07037  1.0000
  C   C3603     1.0  0.69447  0.61633  0.20079  1.0000
  Fe  Fe237     1.0  0.84231  0.60611  0.12074  1.0000
  S   S477      1.0  0.81230  0.60233  0.11583  1.0000
  S   S478      1.0  0.87034  0.60197  0.09869  1.0000
  Fe  Fe238     1.0  0.82702  0.61772  0.16085  1.0000
  S   S479      1.0  0.79548  0.61501  0.15917  1.0000
  S   S480      1.0  0.83483  0.62333  0.18893  1.0000
  Fe  Fe239     1.0  0.80882  0.58663  0.14677  1.0000
  S   S481      1.0  0.79564  0.55785  0.15817  1.0000
  Fe  Fe240     1.0  0.80140  0.63077  0.12823  1.0000
  S   S482      1.0  0.78279  0.65730  0.11224  1.0000
  S   S483      1.0  0.83976  0.58817  0.15074  1.0000
  S   S484      1.0  0.83188  0.63571  0.13093  1.0000
  H   H2874     1.0  0.88207  0.49541  0.10944  1.0000
  H   H2875     1.0  0.74507  0.67218  0.02158  1.0000
  C   C3604     1.0  0.70647  0.64463  0.15756  1.0000
  H   H2876     1.0  0.75112  0.59188  0.03295  1.0000
  C   C3605     1.0  0.93203  0.49370  0.19479  1.0000
  H   H2877     1.0  0.93545  0.54067  0.17012  1.0000
  H   H2878     1.0  0.78195  0.51672  0.08141  1.0000
  H   H2879     1.0  0.79153  0.59059  0.21796  1.0000
  H   H2880     1.0  0.71027  0.58262  0.12109  1.0000
  C   C3606     1.0  0.84341  0.49166  0.05951  1.0000
  Fe  Fe241     1.0  0.68583  0.68228  0.06551  1.0000
  S   S485      1.0  0.70007  0.70757  0.04658  1.0000
  S   S486      1.0  0.69854  0.65885  0.08906  1.0000
  Fe  Fe242     1.0  0.66912  0.72555  0.05151  1.0000
  C   C3607     1.0  0.68722  0.80795  0.19532  1.0000
  Fe  Fe243     1.0  0.69003  0.69829  0.02181  1.0000
  H   H2881     1.0  0.68620  0.82387  0.13357  1.0000
  S   S487      1.0  0.67815  0.67165  0.04045  1.0000
  H   H2882     1.0  0.81871  0.54098  0.02960  1.0000
  C   C3608     1.0  0.74270  0.65805  0.03077  1.0000
  H   H2883     1.0  0.88175  0.53900  0.02821  1.0000
  C   C3609     1.0  0.87915  0.50658  0.11892  1.0000
  H   H2884     1.0  0.85016  0.55432  0.04653  1.0000
  Fe  Fe244     1.0  0.92740  0.50366  0.01183  1.0000
  H   H2885     1.0  0.69251  0.78482  0.17747  1.0000
  H   H2886     1.0  0.79048  0.57770  0.07356  1.0000
  H   H2887     1.0  0.77562  0.54917  0.09316  1.0000
  C   C3610     1.0  0.85011  0.64048  0.19135  1.0000
  C   C3611     1.0  0.85911  0.65279  0.17528  1.0000
  C   C3612     1.0  0.87110  0.66613  0.17788  1.0000
  C   C3613     1.0  0.87424  0.66744  0.19653  1.0000
  H   H2888     1.0  0.72361  0.65200  0.01331  1.0000
  H   H2889     1.0  0.74264  0.63207  0.19778  1.0000
  H   H2890     1.0  0.85682  0.65209  0.16085  1.0000
  H   H2891     1.0  0.87795  0.67558  0.16534  1.0000
  H   H2892     1.0  0.76082  0.66074  0.05115  1.0000
  C   C3614     1.0  0.75171  0.61740  0.19830  1.0000
  C   C3615     1.0  0.75989  0.65689  0.10510  1.0000
  C   C3616     1.0  0.74946  0.64081  0.11194  1.0000
  C   C3617     1.0  0.73057  0.64170  0.10707  1.0000
  C   C3618     1.0  0.72225  0.65841  0.09487  1.0000
  C   C3619     1.0  0.73296  0.67425  0.08756  1.0000
  C   C3620     1.0  0.75164  0.67352  0.09277  1.0000
  H   H2893     1.0  0.75572  0.62800  0.12141  1.0000
  H   H2894     1.0  0.72240  0.62938  0.11275  1.0000
  H   H2895     1.0  0.72684  0.68705  0.07793  1.0000
  H   H2896     1.0  0.75979  0.68587  0.08717  1.0000
  C   C3621     1.0  0.79821  0.53862  0.14416  1.0000
  C   C3622     1.0  0.80710  0.54092  0.12458  1.0000
  C   C3623     1.0  0.80916  0.52526  0.11392  1.0000
  C   C3624     1.0  0.80232  0.50721  0.12262  1.0000
  C   C3625     1.0  0.79346  0.50484  0.14223  1.0000
  C   C3626     1.0  0.79134  0.52055  0.15293  1.0000
  H   H2897     1.0  0.81256  0.55468  0.11767  1.0000
  H   H2898     1.0  0.81630  0.52705  0.09883  1.0000
  S   S488      1.0  0.88945  0.68472  0.19882  1.0000
  H   H2899     1.0  0.78431  0.51867  0.16805  1.0000
  H   H2900     1.0  0.78743  0.61123  0.05603  1.0000
  H   H2901     1.0  0.75412  0.62916  0.07270  1.0000
  C   C3627     1.0  0.74775  0.63380  0.05953  1.0000
  H   H2902     1.0  0.78438  0.56488  0.20134  1.0000
  S   S489      1.0  0.71009  0.69167  0.99360  1.0000
  H   H2903     1.0  0.97697  0.53696  0.02843  1.0000
  H   H2904     1.0  0.79137  0.63611  0.07522  1.0000
  H   H2905     1.0  0.82423  0.54843  0.18318  1.0000
  C   C3628     1.0  0.73032  0.64654  0.02617  1.0000
  H   H2906     1.0  0.82502  0.63996  0.07903  1.0000
  C   C3629     1.0  0.87480  0.54388  0.07583  1.0000
  C   C3630     1.0  0.88999  0.55550  0.06906  1.0000
  C   C3631     1.0  0.88848  0.57369  0.07577  1.0000
  C   C3632     1.0  0.87201  0.57988  0.08949  1.0000
  C   C3633     1.0  0.85682  0.56833  0.09594  1.0000
  C   C3634     1.0  0.85799  0.55064  0.08874  1.0000
  H   H2907     1.0  0.90291  0.55042  0.05888  1.0000
  H   H2908     1.0  0.90024  0.58268  0.07073  1.0000
  H   H2909     1.0  0.84430  0.57277  0.10675  1.0000
  H   H2910     1.0  0.84613  0.54183  0.09371  1.0000
  H   H2911     1.0  0.74045  0.76272  0.03009  1.0000
  H   H2912     1.0  0.98380  0.58897  0.97306  1.0000
  C   C3635     1.0  0.68651  0.78017  0.11802  1.0000
  C   C3636     1.0  0.75152  0.65163  0.04738  1.0000
  C   C3637     1.0  0.70077  0.89706  0.18666  1.0000
  H   H2913     1.0  0.80379  0.51259  0.04987  1.0000
  C   C3638     1.0  0.66619  0.70713  0.12996  1.0000
  H   H2914     1.0  0.74522  0.57144  0.10625  1.0000
  C   C3639     1.0  0.66902  0.61553  0.03900  1.0000
  C   C3640     1.0  0.78206  0.62526  0.00060  1.0000
  C   C3641     1.0  0.69704  0.63724  0.99961  1.0000
  H   H2915     1.0  0.72337  0.83047  0.20880  1.0000
  S   S490      1.0  0.80466  0.48853  0.10805  1.0000
  H   H2916     1.0  0.83441  0.58903  0.99282  1.0000
  H   H2917     1.0  0.73182  0.60902  0.06511  1.0000
  C   C3642     1.0  0.93732  0.51281  0.18989  1.0000
  H   H2918     1.0  0.66387  0.80572  0.12275  1.0000
  C   C3643     1.0  0.94247  0.54265  0.08598  1.0000
  C   C3644     1.0  0.75389  0.59073  0.14375  1.0000
  C   C3645     1.0  0.72640  0.62860  0.03830  1.0000
  C   C3646     1.0  0.71900  0.78165  0.12479  1.0000
  C   C3647     1.0  0.68255  0.62452  0.06438  1.0000
  H   H2919     1.0  0.85487  0.61872  0.06387  1.0000
  C   C3648     1.0  0.76725  0.61279  0.20908  1.0000
  C   C3649     1.0  0.86253  0.50036  0.19327  1.0000
  C   C3650     1.0  0.92263  0.57767  0.00378  1.0000
  C   C3651     1.0  0.91944  0.57688  0.98518  1.0000
  C   C3652     1.0  0.73417  0.59657  0.15259  1.0000
  C   C3653     1.0  0.75052  0.71963  0.11504  1.0000
  H   H2920     1.0  0.68228  0.74403  0.14503  1.0000
  C   C3654     1.0  0.72033  0.58734  0.03850  1.0000
  C   C3655     1.0  0.77550  0.83788  0.19768  1.0000
  H   H2921     1.0  0.67084  0.61052  0.02512  1.0000
  H   H2922     1.0  0.75119  0.86030  0.18898  1.0000
  H   H2923     1.0  0.70143  0.80317  0.20019  1.0000
  H   H2924     1.0  0.68751  0.64664  0.00946  1.0000
  C   C3656     1.0  0.66266  0.84375  0.04376  1.0000
  H   H2925     1.0  0.67400  0.86303  0.18089  1.0000
  C   C3657     1.0  0.76610  0.70900  0.12448  1.0000
  H   H2926     1.0  0.75689  0.57268  0.18263  1.0000
  C   C3658     1.0  0.68609  0.57746  0.20531  1.0000
  C   C3659     1.0  0.95165  0.53258  0.12356  1.0000
  S   S491      1.0  0.92875  0.52456  0.03204  1.0000
  H   H2927     1.0  0.85141  0.59337  0.04543  1.0000
  C   C3660     1.0  0.75108  0.72384  0.15323  1.0000
  H   H2928     1.0  0.94620  0.51751  0.19858  1.0000
  H   H2929     1.0  0.73453  0.77533  0.12498  1.0000
  C   C3661     1.0  0.74215  0.57847  0.11911  1.0000
  H   H2930     1.0  0.77030  0.58393  0.98902  1.0000
  H   H2931     1.0  0.93892  0.54627  0.07142  1.0000
  C   C3662     1.0  0.85563  0.52971  0.13725  1.0000
  C   C3663     1.0  0.85951  0.51470  0.12573  1.0000
  C   C3664     1.0  0.95767  0.56501  0.99449  1.0000
  C   C3665     1.0  0.89495  0.51346  0.12366  1.0000
  C   C3666     1.0  0.89115  0.52875  0.13504  1.0000
  C   C3667     1.0  0.87138  0.53681  0.14179  1.0000
  P   P121      1.0  0.91155  0.53711  0.14176  1.0000
  C   C3668     1.0  0.90302  0.56206  0.14772  1.0000
  C   C3669     1.0  0.91965  0.51998  0.16243  1.0000
  C   C3670     1.0  0.70695  0.60258  0.18969  1.0000
  C   C3671     1.0  0.82991  0.51623  0.18619  1.0000
  H   H2932     1.0  0.77884  0.64146  0.99745  1.0000
  C   C3672     1.0  0.73568  0.75986  0.04571  1.0000
  H   H2933     1.0  0.75023  0.71729  0.10049  1.0000
  C   C3673     1.0  0.89517  0.56481  0.16704  1.0000
  C   C3674     1.0  0.88728  0.58398  0.17146  1.0000
  C   C3675     1.0  0.88717  0.60054  0.15667  1.0000
  C   C3676     1.0  0.89490  0.59796  0.13745  1.0000
  C   C3677     1.0  0.90267  0.57881  0.13294  1.0000
  C   C3678     1.0  0.93161  0.53782  0.12107  1.0000
  C   C3679     1.0  0.92719  0.54303  0.10214  1.0000
  H   H2934     1.0  0.66779  0.85393  0.06889  1.0000
  H   H2935     1.0  0.75033  0.67474  0.14541  1.0000
  H   H2936     1.0  0.69457  0.75100  0.07912  1.0000
  C   C3680     1.0  0.85354  0.48457  0.02656  1.0000
  H   H2937     1.0  0.84043  0.53626  0.14229  1.0000
  C   C3681     1.0  0.74069  0.64670  0.15848  1.0000
  H   H2938     1.0  0.83288  0.48647  0.15233  1.0000
  H   H2939     1.0  0.91009  0.50713  0.11814  1.0000
  H   H2940     1.0  0.86800  0.54878  0.15031  1.0000
  H   H2941     1.0  0.77039  0.62396  0.21637  1.0000
  Fe  Fe245     1.0  0.95069  0.49942  0.04463  1.0000
  C   C3682     1.0  0.73545  0.73301  0.12439  1.0000
  H   H2942     1.0  0.69775  0.63130  0.19950  1.0000
  C   C3683     1.0  0.72334  0.75178  0.08615  1.0000
  H   H2943     1.0  0.89469  0.55218  0.17867  1.0000
  S   S492      1.0  0.95128  0.47971  0.02275  1.0000
  H   H2944     1.0  0.88070  0.61535  0.16007  1.0000
  H   H2945     1.0  0.89430  0.61077  0.12590  1.0000
  H   H2946     1.0  0.90783  0.57722  0.11783  1.0000
  H   H2947     1.0  0.91187  0.54713  0.09987  1.0000
  C   C3684     1.0  0.87564  0.55486  0.00035  1.0000
  H   H2948     1.0  0.76409  0.76201  0.05229  1.0000
  H   H2949     1.0  0.70474  0.91150  0.17967  1.0000
  H   H2950     1.0  0.84732  0.50979  0.12153  1.0000
  C   C3685     1.0  0.70377  0.66448  0.14819  1.0000
  C   C3686     1.0  0.71942  0.67552  0.14418  1.0000
  H   H2951     1.0  0.94428  0.57232  0.02285  1.0000
  H   H2952     1.0  0.71753  0.69072  0.13647  1.0000
  C   C3687     1.0  0.77719  0.59287  0.99590  1.0000
  C   C3688     1.0  0.69545  0.71682  0.10786  1.0000
  C   C3689     1.0  0.79548  0.61595  0.01314  1.0000
  C   C3690     1.0  0.79922  0.59497  0.01783  1.0000
  C   C3691     1.0  0.79032  0.58350  0.00874  1.0000
  P   P122      1.0  0.81613  0.58271  0.03449  1.0000
  C   C3692     1.0  0.83986  0.57278  0.02106  1.0000
  C   C3693     1.0  0.81906  0.60033  0.04920  1.0000
  C   C3694     1.0  0.83808  0.60261  0.05157  1.0000
  C   C3695     1.0  0.84016  0.61705  0.06205  1.0000
  C   C3696     1.0  0.82335  0.62912  0.07051  1.0000
  C   C3697     1.0  0.80437  0.62686  0.06839  1.0000
  C   C3698     1.0  0.80222  0.61260  0.05773  1.0000
  C   C3699     1.0  0.85347  0.55869  0.03088  1.0000
  C   C3700     1.0  0.87132  0.54989  0.02055  1.0000
  C   C3701     1.0  0.66325  0.62906  0.07463  1.0000
  H   H2953     1.0  0.79349  0.56733  0.01152  1.0000
  C   C3702     1.0  0.84453  0.57811  0.00077  1.0000
  C   C3703     1.0  0.80544  0.56182  0.04972  1.0000
  C   C3704     1.0  0.80909  0.54318  0.04329  1.0000
  C   C3705     1.0  0.80052  0.52706  0.05462  1.0000
  C   C3706     1.0  0.78817  0.52938  0.07239  1.0000
  C   C3707     1.0  0.78452  0.54776  0.07897  1.0000
  C   C3708     1.0  0.79318  0.56389  0.06778  1.0000
  C   C3709     1.0  0.85330  0.64172  0.21000  1.0000
  H   H2954     1.0  0.80283  0.62526  0.01911  1.0000
  C   C3710     1.0  0.84346  0.49871  0.19050  1.0000
  H   H2955     1.0  0.69437  0.63612  0.15994  1.0000
  H   H2956     1.0  0.68000  0.69380  0.10458  1.0000
  H   H2957     1.0  0.80132  0.49591  0.21444  1.0000
  C   C3711     1.0  0.79644  0.48655  0.20632  1.0000
  H   H2958     1.0  0.90464  0.58146  0.98157  1.0000
  C   C3712     1.0  0.86232  0.56908  0.99047  1.0000
  C   C3713     1.0  0.73508  0.62243  0.05516  1.0000
  H   H2959     1.0  0.79875  0.81733  0.20992  1.0000
  C   C3714     1.0  0.96692  0.53233  0.10735  1.0000
  C   C3715     1.0  0.66709  0.72109  0.14146  1.0000
  S   S493      1.0  0.66052  0.71857  0.02499  1.0000
  C   C3716     1.0  0.68050  0.70485  0.11330  1.0000
  C   C3717     1.0  0.78659  0.82943  0.21252  1.0000
  C   C3718     1.0  0.76645  0.71115  0.14353  1.0000
  C   C3719     1.0  0.74867  0.56091  0.04265  1.0000
  H   H2960     1.0  0.72360  0.74419  0.15154  1.0000
  H   H2961     1.0  0.65985  0.79506  0.16613  1.0000
  H   H2962     1.0  0.76456  0.55624  0.04210  1.0000
  C   C3720     1.0  0.70927  0.61974  0.00671  1.0000
  H   H2963     1.0  0.77849  0.70271  0.15084  1.0000
  H   H2964     1.0  0.75545  0.63981  0.16124  1.0000
  C   C3721     1.0  0.67348  0.59136  0.21602  1.0000
  H   H2965     1.0  0.91027  0.58271  0.01466  1.0000
  H   H2966     1.0  0.68493  0.89475  0.16435  1.0000
  C   C3722     1.0  0.83482  0.53495  0.18622  1.0000
  C   C3723     1.0  0.75787  0.58152  0.12721  1.0000
  C   C3724     1.0  0.74098  0.58110  0.03751  1.0000
  C   C3725     1.0  0.69187  0.80924  0.12943  1.0000
  H   H2967     1.0  0.72158  0.80865  0.13448  1.0000
  P   P123      1.0  0.71042  0.61356  0.03240  1.0000
  C   C3726     1.0  0.68337  0.86956  0.18754  1.0000
  C   C3727     1.0  0.70006  0.87023  0.21419  1.0000
  H   H2968     1.0  0.75120  0.72519  0.16813  1.0000
  C   C3728     1.0  0.71611  0.75679  0.05336  1.0000
  H   H2969     1.0  0.69160  0.57728  0.04499  1.0000
  H   H2970     1.0  0.95559  0.52851  0.13790  1.0000
  C   C3729     1.0  0.73555  0.73465  0.14375  1.0000
  C   C3730     1.0  0.67929  0.79905  0.12334  1.0000
  C   C3731     1.0  0.71175  0.80059  0.13005  1.0000
  C   C3732     1.0  0.96233  0.53729  0.08858  1.0000
  H   H2971     1.0  0.67666  0.77263  0.11300  1.0000
  C   C3733     1.0  0.73583  0.54674  0.04868  1.0000
  S   S494      1.0  0.92576  0.51692  0.98059  1.0000
  H   H2972     1.0  0.74179  0.53110  0.05281  1.0000
  C   C3734     1.0  0.86526  0.65510  0.21260  1.0000
  C   C3735     1.0  0.70989  0.75299  0.07349  1.0000
  C   C3736     1.0  0.71530  0.55276  0.04941  1.0000
  C   C3737     1.0  0.86739  0.51912  0.19329  1.0000
  H   H2973     1.0  0.70655  0.71458  0.09506  1.0000
  C   C3738     1.0  0.68192  0.73321  0.13599  1.0000
  C   C3739     1.0  0.70756  0.57296  0.04430  1.0000
  H   H2974     1.0  0.88086  0.58611  0.18628  1.0000
  H   H2975     1.0  0.81555  0.51560  0.18284  1.0000
  C   C3740     1.0  0.73786  0.66661  0.14935  1.0000
  C   C3741     1.0  0.91446  0.50069  0.16742  1.0000
  H   H2976     1.0  0.88191  0.52023  0.19601  1.0000
  C   C3742     1.0  0.95454  0.56382  0.97585  1.0000
  H   H2977     1.0  0.70570  0.75737  0.04368  1.0000
  C   C3743     1.0  0.68223  0.79749  0.18241  1.0000
  P   P124      1.0  0.71538  0.74677  0.11216  1.0000
  H   H2978     1.0  0.93679  0.48356  0.20730  1.0000
  H   H2979     1.0  0.80069  0.50106  0.98380  1.0000
  C   C3744     1.0  0.67379  0.82424  0.20193  1.0000
  H   H2980     1.0  0.77932  0.83237  0.18391  1.0000
  C   C3745     1.0  0.69587  0.73156  0.11882  1.0000
  C   C3746     1.0  0.70627  0.77112  0.11916  1.0000
  H   H2981     1.0  0.68973  0.67106  0.14348  1.0000
  H   H2982     1.0  0.75322  0.75552  0.08786  1.0000
  C   C3747     1.0  0.74830  0.60331  0.18798  1.0000
  P   P125      1.0  0.67976  0.83798  0.21870  1.0000
  H   H2983     1.0  0.77779  0.69880  0.11712  1.0000
  C   C3748     1.0  0.72485  0.63571  0.16316  1.0000
  C   C3749     1.0  0.74898  0.75939  0.05822  1.0000
  C   C3750     1.0  0.74280  0.75556  0.07838  1.0000
  H   H2984     1.0  0.70533  0.54177  0.05403  1.0000
  C   C3751     1.0  0.72174  0.60813  0.99347  1.0000
  C   C3752     1.0  0.68557  0.61819  0.04626  1.0000
  H   H2985     1.0  0.73128  0.59461  0.99855  1.0000
  C   C3753     1.0  0.75968  0.85358  0.20050  1.0000
  C   C3754     1.0  0.68959  0.88758  0.17802  1.0000
  S   S495      1.0  0.97864  0.49971  0.05616  1.0000
  H   H2986     1.0  0.67775  0.72230  0.98153  1.0000
  C   C3755     1.0  0.93119  0.52590  0.17377  1.0000
  H   H2987     1.0  0.98237  0.52810  0.10923  1.0000
  H   H2988     1.0  0.77320  0.57682  0.12072  1.0000
  C   C3756     1.0  0.85130  0.49755  0.04000  1.0000
  H   H2989     1.0  0.76249  0.62106  0.98231  1.0000
  C   C3757     1.0  0.98292  0.52149  0.98588  1.0000
  S   S496      1.0  0.69864  0.93847  0.21745  1.0000
  C   C3758     1.0  0.75963  0.58407  0.18988  1.0000
  H   H2990     1.0  0.87342  0.48707  0.19601  1.0000
  C   C3759     1.0  0.75491  0.86076  0.21819  1.0000
  C   C3760     1.0  0.94177  0.57181  0.00840  1.0000
  C   C3761     1.0  0.85341  0.53640  0.19004  1.0000
  H   H2991     1.0  0.67718  0.84588  0.03536  1.0000
  H   H2992     1.0  0.85699  0.55099  0.19011  1.0000
  H   H2993     1.0  0.84185  0.50159  0.07003  1.0000
  H   H2994     1.0  0.78804  0.49104  0.14906  1.0000
  H   H2995     1.0  0.76626  0.59352  0.14941  1.0000
  H   H2996     1.0  0.76530  0.49583  0.21702  1.0000
  H   H2997     1.0  0.90553  0.49568  0.15904  1.0000
  H   H2998     1.0  0.66525  0.77347  0.00908  1.0000
  P   P126      1.0  0.72886  0.60949  0.17330  1.0000
  H   H2999     1.0  0.70312  0.59887  0.15028  1.0000
  H   H3000     1.0  0.85614  0.51200  0.03548  1.0000
  H   H3001     1.0  0.96688  0.52211  0.98960  1.0000
  C   C3762     1.0  0.71846  0.59377  0.14418  1.0000
  S   S497      1.0  0.66302  0.75810  0.05567  1.0000
  C   C3763     1.0  0.65563  0.83015  0.19501  1.0000
  H   H3002     1.0  0.97240  0.56055  0.99831  1.0000
  C   C3764     1.0  0.77513  0.57949  0.20070  1.0000
  H   H3003     1.0  0.86000  0.48923  0.01153  1.0000
  C   C3765     1.0  0.67771  0.61075  0.21382  1.0000
  H   H3004     1.0  0.88935  0.54764  0.99240  1.0000
  C   C3766     1.0  0.91089  0.48434  0.97537  1.0000
  C   C3767     1.0  0.77912  0.59393  0.21008  1.0000
  H   H3005     1.0  0.86579  0.57296  0.97479  1.0000
  H   H3006     1.0  0.71270  0.57196  0.18433  1.0000
  C   C3768     1.0  0.70286  0.58300  0.19228  1.0000
  C   C3769     1.0  0.68859  0.86070  0.20571  1.0000
  C   C3770     1.0  0.92062  0.48764  0.18355  1.0000
  C   C3771     1.0  0.81471  0.49102  0.98138  1.0000
  H   H3007     1.0  0.71417  0.89601  0.21169  1.0000
  C   C3772     1.0  0.70600  0.88837  0.20472  1.0000
  H   H3008     1.0  0.68296  0.56235  0.20721  1.0000
  C   C3773     1.0  0.65741  0.84829  0.06264  1.0000
  H   H3009     1.0  0.65446  0.69801  0.13394  1.0000
  H   H3010     1.0  0.85590  0.78638  0.21590  1.0000
  H   H3011     1.0  0.68815  0.65686  0.97429  1.0000
  C   C3774     1.0  0.66390  0.80326  0.17595  1.0000
  Fe  Fe246     1.0  0.66701  0.93490  0.21724  1.0000
  S   S498      1.0  0.92718  0.48542  0.06670  1.0000
  H   H3012     1.0  0.65598  0.72290  0.15439  1.0000
  S   S499      1.0  0.65607  0.93139  0.19005  1.0000
  H   H3013     1.0  0.66106  0.63486  0.08816  1.0000
  C   C3775     1.0  0.72211  0.61410  0.97345  1.0000
  C   C3776     1.0  0.77603  0.48640  0.20797  1.0000
  H   H3014     1.0  0.97417  0.53679  0.07604  1.0000
  S   S500      1.0  0.90243  0.48949  0.03086  1.0000
  C   C3777     1.0  0.69746  0.64317  0.97962  1.0000
  C   C3778     1.0  0.65770  0.51804  0.97086  1.0000
  H   H3015     1.0  0.65334  0.83362  0.02088  1.0000
  C   C3779     1.0  0.93528  0.56991  0.97127  1.0000
  C   C3780     1.0  0.70109  0.69943  0.97130  1.0000
  C   C3781     1.0  0.94677  0.57111  0.44953  1.0000
  C   C3782     1.0  0.83871  0.96270  0.44153  1.0000
  H   H3016     1.0  0.92113  0.52415  0.35960  1.0000
  Fe  Fe247     1.0  0.91528  0.91566  0.42531  1.0000
  S   S501      1.0  0.92524  0.92182  0.39292  1.0000
  C   C3783     1.0  0.93117  0.49674  0.29431  1.0000
  Fe  Fe248     1.0  0.93468  0.94913  0.39886  1.0000
  Fe  Fe249     1.0  0.89501  0.94065  0.39289  1.0000
  S   S502      1.0  0.87430  0.94213  0.37163  1.0000
  S   S503      1.0  0.92744  0.94125  0.43134  1.0000
  S   S504      1.0  0.88438  0.93263  0.42490  1.0000
  C   C3784     1.0  0.98560  0.69126  0.29049  1.0000
  H   H3017     1.0  0.70386  0.86406  0.22845  1.0000
  C   C3785     1.0  0.77700  0.81125  0.30781  1.0000
  C   C3786     1.0  0.92114  0.48922  0.28283  1.0000
  C   C3787     1.0  0.89966  0.88111  0.46130  1.0000
  C   C3788     1.0  0.69371  0.81139  0.24989  1.0000
  S   S505      1.0  0.93886  0.50623  0.39184  1.0000
  H   H3018     1.0  0.74945  0.80955  0.22622  1.0000
  H   H3019     1.0  0.91168  0.66945  0.46439  1.0000
  S   S506      1.0  0.94114  0.61488  0.40337  1.0000
  S   S507      1.0  0.96294  0.96116  0.38383  1.0000
  C   C3789     1.0  0.94180  0.78144  0.34226  1.0000
  C   C3790     1.0  0.72026  0.96019  0.30017  1.0000
  H   H3020     1.0  0.90568  0.49379  0.36451  1.0000
  S   S508      1.0  0.94730  0.62217  0.45402  1.0000
  Fe  Fe250     1.0  0.93820  0.64529  0.38502  1.0000
  S   S509      1.0  0.90860  0.66099  0.37728  1.0000
  C   C3791     1.0  0.96841  0.53569  0.31895  1.0000
  H   H3021     1.0  0.89692  0.74329  0.46023  1.0000
  Fe  Fe251     1.0  0.89785  0.68253  0.26963  1.0000
  S   S510      1.0  0.91644  0.70568  0.26993  1.0000
  S   S511      1.0  0.88564  0.66145  0.29566  1.0000
  Fe  Fe252     1.0  0.89720  0.72528  0.24940  1.0000
  S   S512      1.0  0.88819  0.75868  0.25005  1.0000
  S   S513      1.0  0.87683  0.70299  0.25130  1.0000
  Fe  Fe253     1.0  0.80562  0.86932  0.31491  1.0000
  S   S514      1.0  0.79211  0.84287  0.33196  1.0000
  S   S515      1.0  0.79074  0.89450  0.29427  1.0000
  Fe  Fe254     1.0  0.84274  0.85780  0.33407  1.0000
  S   S516      1.0  0.83225  0.83015  0.35202  1.0000
  S   S517      1.0  0.87246  0.86320  0.33883  1.0000
  Fe  Fe255     1.0  0.82302  0.82536  0.32505  1.0000
  S   S518      1.0  0.82700  0.79315  0.31991  1.0000
  Fe  Fe256     1.0  0.80264  0.84967  0.35749  1.0000
  S   S519      1.0  0.78310  0.84957  0.38713  1.0000
  S   S520      1.0  0.83606  0.85148  0.30632  1.0000
  S   S521      1.0  0.81357  0.87771  0.34114  1.0000
  Fe  Fe257     1.0  0.69557  0.91831  0.24651  1.0000
  C   C3792     1.0  0.90610  0.74940  0.37367  1.0000
  S   S522      1.0  0.71719  0.89013  0.25512  1.0000
  C   C3793     1.0  0.69416  0.95822  0.35716  1.0000
  S   S523      1.0  0.91791  0.66972  0.24460  1.0000
  C   C3794     1.0  0.79519  0.83339  0.44218  1.0000
  C   C3795     1.0  0.78880  0.81663  0.28983  1.0000
  C   C3796     1.0  0.75667  0.81117  0.30902  1.0000
  C   C3797     1.0  0.76970  0.89304  0.28438  1.0000
  C   C3798     1.0  0.76129  0.87554  0.28788  1.0000
  C   C3799     1.0  0.74497  0.87491  0.27911  1.0000
  C   C3800     1.0  0.73697  0.89171  0.26678  1.0000
  C   C3801     1.0  0.74532  0.90919  0.26337  1.0000
  C   C3802     1.0  0.76157  0.90986  0.27217  1.0000
  H   H3022     1.0  0.76747  0.86246  0.29718  1.0000
  H   H3023     1.0  0.73857  0.86133  0.28185  1.0000
  H   H3024     1.0  0.73950  0.92210  0.25365  1.0000
  H   H3025     1.0  0.76802  0.92344  0.26934  1.0000
  H   H3026     1.0  0.91414  0.60423  0.34578  1.0000
  C   C3803     1.0  0.82926  0.80356  0.22978  1.0000
  C   C3804     1.0  0.78522  0.84070  0.42619  1.0000
  C   C3805     1.0  0.79592  0.84213  0.40711  1.0000
  C   C3806     1.0  0.81668  0.83704  0.40418  1.0000
  C   C3807     1.0  0.82657  0.82934  0.42005  1.0000
  H   H3027     1.0  0.76917  0.84477  0.42859  1.0000
  H   H3028     1.0  0.82518  0.83868  0.38967  1.0000
  H   H3029     1.0  0.80978  0.89394  0.25171  1.0000
  C   C3808     1.0  0.87136  0.76793  0.26974  1.0000
  C   C3809     1.0  0.86085  0.75532  0.28432  1.0000
  C   C3810     1.0  0.84721  0.76330  0.29952  1.0000
  C   C3811     1.0  0.84428  0.78381  0.30053  1.0000
  C   C3812     1.0  0.85498  0.79637  0.28611  1.0000
  C   C3813     1.0  0.86829  0.78850  0.27064  1.0000
  H   H3030     1.0  0.86303  0.73948  0.28376  1.0000
  H   H3031     1.0  0.83893  0.75351  0.31056  1.0000
  H   H3032     1.0  0.85303  0.81212  0.28694  1.0000
  H   H3033     1.0  0.87641  0.79833  0.25944  1.0000
  H   H3034     1.0  0.91512  0.69094  0.43260  1.0000
  C   C3814     1.0  0.90376  0.66019  0.35418  1.0000
  C   C3815     1.0  0.91538  0.66849  0.33712  1.0000
  C   C3816     1.0  0.91004  0.66900  0.31891  1.0000
  C   C3817     1.0  0.89332  0.66090  0.31784  1.0000
  C   C3818     1.0  0.88201  0.65236  0.33491  1.0000
  C   C3819     1.0  0.88697  0.65237  0.35301  1.0000
  H   H3035     1.0  0.92826  0.67474  0.33796  1.0000
  H   H3036     1.0  0.91896  0.67543  0.30575  1.0000
  H   H3037     1.0  0.86897  0.64629  0.33419  1.0000
  H   H3038     1.0  0.87771  0.64635  0.36616  1.0000
  H   H3039     1.0  0.78369  0.80709  0.32083  1.0000
  C   C3820     1.0  0.94769  0.54046  0.32395  1.0000
  C   C3821     1.0  0.95182  0.52679  0.38609  1.0000
  C   C3822     1.0  0.94306  0.54435  0.39362  1.0000
  C   C3823     1.0  0.95287  0.56109  0.38934  1.0000
  H   H3040     1.0  0.93729  0.74326  0.29407  1.0000
  S   S524      1.0  0.82849  0.81450  0.45814  1.0000
  Fe  Fe258     1.0  0.95661  0.62828  0.42140  1.0000
  H   H3041     1.0  0.92860  0.54495  0.40281  1.0000
  H   H3042     1.0  0.94581  0.57463  0.39498  1.0000
  H   H3043     1.0  0.92758  0.74654  0.32928  1.0000
  H   H3044     1.0  0.74014  0.78958  0.25867  1.0000
  C   C3824     1.0  0.87333  0.91962  0.36375  1.0000
  C   C3825     1.0  0.88826  0.90294  0.36603  1.0000
  C   C3826     1.0  0.88776  0.88563  0.35853  1.0000
  C   C3827     1.0  0.87214  0.88472  0.34904  1.0000
  C   C3828     1.0  0.85697  0.90124  0.34719  1.0000
  C   C3829     1.0  0.85764  0.91866  0.35440  1.0000
  H   H3045     1.0  0.90045  0.90353  0.37314  1.0000
  H   H3046     1.0  0.89957  0.87296  0.36000  1.0000
  H   H3047     1.0  0.84506  0.90087  0.33963  1.0000
  H   H3048     1.0  0.84608  0.93149  0.35252  1.0000
  C   C3830     1.0  0.78191  0.83663  0.23036  1.0000
  C   C3831     1.0  0.90072  0.54223  0.34143  1.0000
  H   H3049     1.0  0.77847  0.91490  0.32916  1.0000
  C   C3832     1.0  0.83552  0.87146  0.25543  1.0000
  C   C3833     1.0  0.80683  0.90977  0.41774  1.0000
  H   H3050     1.0  0.98166  0.64277  0.44520  1.0000
  H   H3051     1.0  0.73356  0.96276  0.25100  1.0000
  C   C3834     1.0  0.87525  0.86068  0.43007  1.0000
  C   C3835     1.0  0.76278  0.91441  0.33472  1.0000
  H   H3052     1.0  0.66053  0.58703  0.22617  1.0000
  H   H3053     1.0  0.78681  0.83169  0.45682  1.0000
  H   H3054     1.0  0.94228  0.80678  0.29601  1.0000
  C   C3836     1.0  0.84324  0.85110  0.25687  1.0000
  Fe  Fe259     1.0  0.93510  0.69472  0.24321  1.0000
  C   C3837     1.0  0.84261  0.89155  0.43457  1.0000
  H   H3055     1.0  0.70683  0.91075  0.35294  1.0000
  C   C3838     1.0  0.89471  0.86201  0.46857  1.0000
  Fe  Fe260     1.0  0.89822  0.69158  0.22602  1.0000
  C   C3839     1.0  0.82262  0.76731  0.25349  1.0000
  H   H3056     1.0  0.86307  0.52515  0.32839  1.0000
  H   H3057     1.0  0.67827  0.81169  0.25676  1.0000
  H   H3058     1.0  0.84257  0.82473  0.41753  1.0000
  C   C3840     1.0  0.72380  0.95441  0.28179  1.0000
  S   S525      1.0  0.91954  0.88431  0.44185  1.0000
  H   H3059     1.0  0.74756  0.80736  0.32306  1.0000
  C   C3841     1.0  0.97219  0.56658  0.32803  1.0000
  C   C3842     1.0  0.81586  0.82718  0.43905  1.0000
  C   C3843     1.0  0.93929  0.71667  0.34154  1.0000
  H   H3060     1.0  0.96402  0.72909  0.24224  1.0000
  H   H3061     1.0  0.93693  0.77359  0.23581  1.0000
  C   C3844     1.0  0.93371  0.62338  0.30574  1.0000
  H   H3062     1.0  0.78860  0.93865  0.42029  1.0000
  C   C3845     1.0  0.67988  0.97717  0.32942  1.0000
  C   C3846     1.0  0.88354  0.50746  0.34656  1.0000
  C   C3847     1.0  0.68151  0.97101  0.36911  1.0000
  H   H3063     1.0  0.95233  0.75355  0.44898  1.0000
  H   H3064     1.0  0.91396  0.82663  0.34979  1.0000
  P   P127      1.0  0.79646  0.82638  0.24956  1.0000
  C   C3848     1.0  0.94615  0.78479  0.32183  1.0000
  C   C3849     1.0  0.80613  0.90746  0.46034  1.0000
  H   H3065     1.0  0.93646  0.71086  0.39618  1.0000
  C   C3850     1.0  0.75714  0.89887  0.34937  1.0000
  H   H3066     1.0  0.93857  0.53020  0.32200  1.0000
  H   H3067     1.0  0.98347  0.78192  0.33246  1.0000
  H   H3068     1.0  0.92689  0.79383  0.36805  1.0000
  H   H3069     1.0  0.97019  0.66804  0.28813  1.0000
  H   H3070     1.0  0.95514  0.68794  0.35255  1.0000
  Fe  Fe261     1.0  0.97126  0.60930  0.38478  1.0000
  H   H3071     1.0  0.88357  0.62081  0.27603  1.0000
  C   C3851     1.0  0.81252  0.80319  0.24469  1.0000
  H   H3072     1.0  0.84441  0.88195  0.25748  1.0000
  C   C3852     1.0  0.98425  0.67142  0.28995  1.0000
  S   S526      1.0  0.91720  0.71574  0.22247  1.0000
  H   H3073     1.0  0.73244  0.81589  0.29308  1.0000
  S   S527      1.0  0.96703  0.63888  0.36476  1.0000
  C   C3853     1.0  0.78046  0.82139  0.27279  1.0000
  C   C3854     1.0  0.97416  0.62720  0.29514  1.0000
  C   C3855     1.0  0.74828  0.92876  0.32655  1.0000
  H   H3074     1.0  0.93489  0.74679  0.38193  1.0000
  C   C3856     1.0  0.80419  0.86469  0.25022  1.0000
  C   C3857     1.0  0.72795  0.92773  0.33315  1.0000
  H   H3075     1.0  0.98429  0.49481  0.40582  1.0000
  H   H3076     1.0  0.98162  0.57655  0.33012  1.0000
  C   C3858     1.0  0.74822  0.81592  0.29214  1.0000
  C   C3859     1.0  0.97985  0.63592  0.46035  1.0000
  C   C3860     1.0  0.72864  0.79879  0.25108  1.0000
  Fe  Fe262     1.0  0.68519  0.96357  0.23470  1.0000
  C   C3861     1.0  0.96646  0.48177  0.43186  1.0000
  H   H3077     1.0  0.82259  0.88083  0.41095  1.0000
  C   C3862     1.0  0.93026  0.79646  0.35231  1.0000
  C   C3863     1.0  0.73151  0.96702  0.26526  1.0000
  S   S528      1.0  0.66484  0.91315  0.24505  1.0000
  C   C3864     1.0  0.85968  0.89480  0.42069  1.0000
  C   C3865     1.0  0.90620  0.71853  0.44435  1.0000
  H   H3078     1.0  0.84641  0.63233  0.22255  1.0000
  C   C3866     1.0  0.84016  0.96284  0.40728  1.0000
  C   C3867     1.0  0.78677  0.90980  0.38720  1.0000
  C   C3868     1.0  0.73697  0.89782  0.35610  1.0000
  H   H3079     1.0  0.76840  0.88742  0.35531  1.0000
  H   H3080     1.0  0.76174  0.85808  0.24661  1.0000
  C   C3869     1.0  0.96427  0.62155  0.28217  1.0000
  C   C3870     1.0  0.98065  0.54875  0.32099  1.0000
  C   C3871     1.0  0.70858  0.79951  0.25964  1.0000
  H   H3081     1.0  0.71357  0.90789  0.45148  1.0000
  H   H3082     1.0  0.98561  0.64737  0.25207  1.0000
  C   C3872     1.0  0.91039  0.69772  0.44568  1.0000
  C   C3873     1.0  0.87605  0.87951  0.41870  1.0000
  C   C3874     1.0  0.95722  0.53776  0.44145  1.0000
  H   H3083     1.0  0.95931  0.79587  0.24026  1.0000
  H   H3084     1.0  0.70450  0.94616  0.36355  1.0000
  H   H3085     1.0  0.91200  0.59381  0.26889  1.0000
  H   H3086     1.0  0.86041  0.90903  0.41123  1.0000
  C   C3875     1.0  0.71492  0.90054  0.46617  1.0000
  H   H3087     1.0  0.77077  0.93841  0.39351  1.0000
  C   C3876     1.0  0.94944  0.48629  0.29878  1.0000
  C   C3877     1.0  0.86299  0.70785  0.33489  1.0000
  C   C3878     1.0  0.84245  0.71032  0.33548  1.0000
  C   C3879     1.0  0.82986  0.72538  0.34466  1.0000
  C   C3880     1.0  0.83783  0.73807  0.35311  1.0000
  C   C3881     1.0  0.85848  0.73552  0.35281  1.0000
  C   C3882     1.0  0.87100  0.72026  0.34358  1.0000
  P   P128      1.0  0.86916  0.75269  0.36245  1.0000
  C   C3883     1.0  0.85092  0.76442  0.38070  1.0000
  C   C3884     1.0  0.89035  0.73944  0.37339  1.0000
  C   C3885     1.0  0.89102  0.71930  0.38219  1.0000
  C   C3886     1.0  0.83536  0.77939  0.37509  1.0000
  C   C3887     1.0  0.82162  0.78899  0.38901  1.0000
  C   C3888     1.0  0.82329  0.78379  0.40864  1.0000
  C   C3889     1.0  0.83864  0.76887  0.41442  1.0000
  C   C3890     1.0  0.85236  0.75913  0.40054  1.0000
  C   C3891     1.0  0.87768  0.77141  0.34250  1.0000
  C   C3892     1.0  0.87572  0.79143  0.34506  1.0000
  C   C3893     1.0  0.88174  0.80592  0.32943  1.0000
  C   C3894     1.0  0.89044  0.80046  0.31133  1.0000
  C   C3895     1.0  0.89328  0.78046  0.30887  1.0000
  C   C3896     1.0  0.88673  0.76603  0.32430  1.0000
  H   H3088     1.0  0.87276  0.69645  0.32744  1.0000
  H   H3089     1.0  0.83639  0.70071  0.32858  1.0000
  H   H3090     1.0  0.81395  0.72758  0.34480  1.0000
  H   H3091     1.0  0.82777  0.74998  0.35952  1.0000
  H   H3092     1.0  0.88700  0.71809  0.34277  1.0000
  H   H3093     1.0  0.90819  0.69346  0.39679  1.0000
  H   H3094     1.0  0.87891  0.71132  0.38252  1.0000
  H   H3095     1.0  0.83399  0.78384  0.35988  1.0000
  H   H3096     1.0  0.80981  0.80076  0.38455  1.0000
  H   H3097     1.0  0.81281  0.79152  0.41936  1.0000
  H   H3098     1.0  0.86409  0.74764  0.40540  1.0000
  H   H3099     1.0  0.86928  0.79606  0.35898  1.0000
  H   H3100     1.0  0.87954  0.82147  0.33134  1.0000
  H   H3101     1.0  0.89481  0.81177  0.29918  1.0000
  H   H3102     1.0  0.89979  0.77627  0.29475  1.0000
  H   H3103     1.0  0.88847  0.75082  0.32174  1.0000
  H   H3104     1.0  0.96681  0.92860  0.41566  1.0000
  H   H3105     1.0  0.82044  0.75332  0.26300  1.0000
  C   C3897     1.0  0.79208  0.92593  0.41267  1.0000
  C   C3898     1.0  0.67327  0.93339  0.31757  1.0000
  H   H3106     1.0  0.77923  0.90978  0.37528  1.0000
  C   C3899     1.0  0.93904  0.80356  0.31169  1.0000
  H   H3107     1.0  0.80455  0.81663  0.28923  1.0000
  C   C3900     1.0  0.78203  0.92588  0.39749  1.0000
  C   C3901     1.0  0.76591  0.85234  0.23300  1.0000
  H   H3108     1.0  0.86776  0.78851  0.46084  1.0000
  C   C3902     1.0  0.87947  0.61084  0.30696  1.0000
  C   C3903     1.0  0.88878  0.60976  0.28778  1.0000
  C   C3904     1.0  0.90491  0.59466  0.28381  1.0000
  C   C3905     1.0  0.91216  0.58103  0.29909  1.0000
  C   C3906     1.0  0.90322  0.58239  0.31845  1.0000
  C   C3907     1.0  0.88646  0.59708  0.32225  1.0000
  P   P129      1.0  0.91218  0.56438  0.33808  1.0000
  C   C3908     1.0  0.93904  0.55813  0.33155  1.0000
  H   H3109     1.0  0.78900  0.87043  0.24832  1.0000
  C   C3909     1.0  0.95153  0.57120  0.33339  1.0000
  C   C3910     1.0  0.90637  0.57540  0.36014  1.0000
  C   C3911     1.0  0.89909  0.56444  0.37812  1.0000
  C   C3912     1.0  0.89486  0.57307  0.39506  1.0000
  C   C3913     1.0  0.89809  0.59260  0.39425  1.0000
  C   C3914     1.0  0.90518  0.60364  0.37645  1.0000
  C   C3915     1.0  0.90904  0.59522  0.35944  1.0000
  H   H3110     1.0  0.86706  0.62270  0.30994  1.0000
  C   C3916     1.0  0.95453  0.76769  0.28558  1.0000
  H   H3111     1.0  0.95424  0.48223  0.42442  1.0000
  H   H3112     1.0  0.92479  0.56956  0.29577  1.0000
  H   H3113     1.0  0.87890  0.59815  0.33699  1.0000
  C   C3917     1.0  0.92760  0.81856  0.32180  1.0000
  H   H3114     1.0  0.94557  0.58487  0.33921  1.0000
  H   H3115     1.0  0.94760  0.76734  0.35042  1.0000
  H   H3116     1.0  0.89688  0.54915  0.37931  1.0000
  H   H3117     1.0  0.88945  0.56445  0.40888  1.0000
  H   H3118     1.0  0.89519  0.59921  0.40738  1.0000
  H   H3119     1.0  0.90776  0.61875  0.37586  1.0000
  C   C3918     1.0  0.96383  0.62992  0.31379  1.0000
  H   H3120     1.0  0.77783  0.91035  0.45067  1.0000
  H   H3121     1.0  0.87785  0.55581  0.32396  1.0000
  H   H3122     1.0  0.92195  0.83298  0.31394  1.0000
  C   C3919     1.0  0.90756  0.70914  0.39046  1.0000
  H   H3123     1.0  0.73270  0.88559  0.36730  1.0000
  H   H3124     1.0  0.88938  0.88230  0.40833  1.0000
  C   C3920     1.0  0.81130  0.89355  0.40748  1.0000
  H   H3125     1.0  0.97939  0.88320  0.41488  1.0000
  C   C3921     1.0  0.97180  0.56020  0.37783  1.0000
  C   C3922     1.0  0.84303  0.97187  0.42221  1.0000
  H   H3126     1.0  0.90745  0.72795  0.43022  1.0000
  C   C3923     1.0  0.94453  0.55615  0.43981  1.0000
  C   C3924     1.0  0.70372  0.91130  0.30743  1.0000
  C   C3925     1.0  0.98072  0.54251  0.37048  1.0000
  H   H3127     1.0  0.82908  0.93744  0.46096  1.0000
  C   C3926     1.0  0.88423  0.54237  0.33269  1.0000
  H   H3128     1.0  0.90565  0.76502  0.36735  1.0000
  H   H3129     1.0  0.85000  0.75437  0.23689  1.0000
  C   C3927     1.0  0.92309  0.81499  0.34208  1.0000
  C   C3928     1.0  0.85805  0.85710  0.44342  1.0000
  H   H3130     1.0  0.88801  0.84892  0.42858  1.0000
  H   H3131     1.0  0.79671  0.78398  0.26824  1.0000
  S   S529      1.0  0.90520  0.96864  0.39612  1.0000
  C   C3929     1.0  0.84174  0.87243  0.44558  1.0000
  H   H3132     1.0  0.90691  0.49724  0.27943  1.0000
  C   C3930     1.0  0.80142  0.89371  0.39218  1.0000
  C   C3931     1.0  0.97066  0.52593  0.37437  1.0000
  C   C3932     1.0  0.78536  0.90833  0.46297  1.0000
  H   H3133     1.0  0.91814  0.49390  0.44070  1.0000
  C   C3933     1.0  0.69253  0.89868  0.30270  1.0000
  P   P130      1.0  0.82093  0.91081  0.43618  1.0000
  H   H3134     1.0  0.89266  0.91227  0.46432  1.0000
  C   C3934     1.0  0.90032  0.72715  0.46126  1.0000
  C   C3935     1.0  0.90841  0.52455  0.35281  1.0000
  C   C3936     1.0  0.87576  0.52500  0.33519  1.0000
  H   H3135     1.0  0.83994  0.76506  0.42967  1.0000
  C   C3937     1.0  0.94221  0.75494  0.28270  1.0000
  P   P131      1.0  0.70895  0.94463  0.32141  1.0000
  H   H3136     1.0  0.80527  0.88133  0.38410  1.0000
  C   C3938     1.0  0.94197  0.77196  0.24959  1.0000
  H   H3137     1.0  0.91788  0.62284  0.30951  1.0000
  C   C3939     1.0  0.73062  0.88487  0.46932  1.0000
  C   C3940     1.0  0.82903  0.93501  0.43097  1.0000
  H   H3138     1.0  0.66529  0.94667  0.32323  1.0000
  C   C3941     1.0  0.89976  0.50731  0.35548  1.0000
  H   H3139     1.0  0.83220  0.93726  0.39966  1.0000
  C   C3942     1.0  0.80923  0.78484  0.25644  1.0000
  H   H3140     1.0  0.93612  0.61702  0.27685  1.0000
  H   H3141     1.0  0.75329  0.82384  0.26121  1.0000
  C   C3943     1.0  0.93594  0.75717  0.26483  1.0000
  C   C3944     1.0  0.83140  0.83750  0.25512  1.0000
  H   H3142     1.0  0.92477  0.51059  0.29979  1.0000
  C   C3945     1.0  0.95640  0.70276  0.34433  1.0000
  C   C3946     1.0  0.83334  0.94444  0.41159  1.0000
  H   H3143     1.0  0.92633  0.74740  0.26273  1.0000
  H   H3144     1.0  0.75309  0.94016  0.31470  1.0000
  C   C3947     1.0  0.67177  0.90341  0.30532  1.0000
  P   P132      1.0  0.96197  0.76567  0.30898  1.0000
  C   C3948     1.0  0.94398  0.62016  0.28732  1.0000
  C   C3949     1.0  0.96075  0.78240  0.27006  1.0000
  H   H3145     1.0  0.71984  0.90741  0.30517  1.0000
  H   H3146     1.0  0.97503  0.52170  0.31375  1.0000
  H   H3147     1.0  0.92473  0.71250  0.34747  1.0000
  C   C3950     1.0  0.98546  0.70206  0.24194  1.0000
  H   H3148     1.0  0.93702  0.58542  0.44813  1.0000
  H   H3149     1.0  0.70000  0.88534  0.29676  1.0000
  C   C3951     1.0  0.92260  0.73917  0.38202  1.0000
  C   C3952     1.0  0.92344  0.71897  0.39020  1.0000
  C   C3953     1.0  0.83173  0.94437  0.44593  1.0000
  H   H3150     1.0  0.89685  0.48882  0.41882  1.0000
  H   H3151     1.0  0.87701  0.49398  0.34852  1.0000
  H   H3152     1.0  0.72031  0.94034  0.28013  1.0000
  H   H3153     1.0  0.97268  0.70280  0.28929  1.0000
  C   C3954     1.0  0.76010  0.82071  0.27406  1.0000
  H   H3154     1.0  0.97189  0.61849  0.26800  1.0000
  H   H3155     1.0  0.93590  0.63019  0.33348  1.0000
  C   C3955     1.0  0.81602  0.87823  0.25210  1.0000
  S   S530      1.0  0.95106  0.65914  0.40462  1.0000
  C   C3956     1.0  0.69419  0.92886  0.31481  1.0000
  H   H3156     1.0  0.95551  0.52622  0.43378  1.0000
  C   C3957     1.0  0.96430  0.62495  0.46821  1.0000
  H   H3157     1.0  0.83753  0.82177  0.25695  1.0000
  C   C3958     1.0  0.94377  0.62779  0.31913  1.0000
  C   C3959     1.0  0.83928  0.76787  0.23876  1.0000
  C   C3960     1.0  0.95448  0.78451  0.25216  1.0000
  H   H3158     1.0  0.95746  0.49215  0.30744  1.0000
  C   C3961     1.0  0.72241  0.91213  0.34799  1.0000
  C   C3962     1.0  0.98044  0.93483  0.41193  1.0000
  C   C3963     1.0  0.65544  0.86152  0.24499  1.0000
  S   S531      1.0  0.68441  0.94356  0.26373  1.0000
  C   C3964     1.0  0.81182  0.84416  0.25151  1.0000
  H   H3159     1.0  0.97038  0.79232  0.27179  1.0000
  H   H3160     1.0  0.93300  0.55890  0.43096  1.0000
  C   C3965     1.0  0.97521  0.70795  0.33656  1.0000
  H   H3161     1.0  0.84414  0.96954  0.39225  1.0000
  S   S532      1.0  0.96894  0.68660  0.23913  1.0000
  C   C3966     1.0  0.90836  0.68550  0.46387  1.0000
  H   H3162     1.0  0.90303  0.84931  0.46207  1.0000
  C   C3967     1.0  0.94098  0.73587  0.33120  1.0000
  H   H3163     1.0  0.96310  0.57945  0.46849  1.0000
  C   C3968     1.0  0.95987  0.74113  0.32311  1.0000
  C   C3969     1.0  0.65772  0.84443  0.23627  1.0000
  C   C3970     1.0  0.96169  0.56773  0.46091  1.0000
  C   C3971     1.0  0.98361  0.48891  0.42118  1.0000
  Fe  Fe263     1.0  0.89734  0.95888  0.42812  1.0000
  C   C3972     1.0  0.73388  0.81002  0.23279  1.0000
  H   H3164     1.0  0.85820  0.84576  0.25995  1.0000
  H   H3165     1.0  0.84156  0.96941  0.45308  1.0000
  H   H3166     1.0  0.86749  0.65593  0.22703  1.0000
  H   H3167     1.0  0.82838  0.86920  0.45559  1.0000
  C   C3973     1.0  0.97608  0.97470  0.44298  1.0000
  H   H3168     1.0  0.70452  0.79086  0.27386  1.0000
  C   C3974     1.0  0.97938  0.72245  0.24284  1.0000
  H   H3169     1.0  0.85731  0.84245  0.45212  1.0000
  C   C3975     1.0  0.69333  0.96115  0.33722  1.0000
  C   C3976     1.0  0.95014  0.76234  0.46056  1.0000
  H   H3170     1.0  0.97752  0.51251  0.36836  1.0000
  H   H3171     1.0  0.74147  0.88008  0.45714  1.0000
  Fe  Fe264     1.0  0.65403  0.94016  0.25966  1.0000
  H   H3172     1.0  0.66311  0.89385  0.30130  1.0000
  C   C3977     1.0  0.97699  0.72702  0.32598  1.0000
  H   H3173     1.0  0.97124  0.63404  0.32409  1.0000
  H   H3174     1.0  0.98148  0.51985  0.45436  1.0000
  H   H3175     1.0  0.68208  0.96865  0.38451  1.0000
  C   C3978     1.0  0.66216  0.92065  0.31293  1.0000
  H   H3176     1.0  0.66678  0.87099  0.24148  1.0000
  H   H3177     1.0  0.97426  0.77863  0.44699  1.0000
  C   C3979     1.0  0.69885  0.82272  0.23150  1.0000
  H   H3178     1.0  0.96271  0.96839  0.44395  1.0000
  C   C3980     1.0  0.96251  0.77643  0.45944  1.0000
  C   C3981     1.0  0.98288  0.95038  0.39630  1.0000
  H   H3179     1.0  0.84671  0.48303  0.22868  1.0000
  C   C3982     1.0  0.97468  0.54941  0.46244  1.0000
  Fe  Fe265     1.0  0.98040  0.65033  0.38583  1.0000
  C   C3983     1.0  0.97213  0.53431  0.45288  1.0000
  C   C3984     1.0  0.71906  0.82191  0.22300  1.0000
  H   H3180     1.0  0.66807  0.62144  0.22231  1.0000
  C   C3985     1.0  0.98537  0.97245  0.45922  1.0000
  S   S533      1.0  0.98461  0.58094  0.37209  1.0000
  C   C3986     1.0  0.84260  0.78597  0.22690  1.0000
  S   S534      1.0  0.65402  0.96177  0.23177  1.0000
  C   C3987     1.0  0.91634  0.47881  0.44002  1.0000
  Fe  Fe266     1.0  0.95271  0.47896  0.37775  1.0000
  C   C3988     1.0  0.88883  0.89751  0.46973  1.0000
  H   H3181     1.0  0.96552  0.89489  0.46880  1.0000
  H   H3182     1.0  0.83235  0.81756  0.22079  1.0000
  H   H3183     1.0  0.74280  0.87301  0.22054  1.0000
  Fe  Fe267     1.0  0.70806  0.91652  0.61195  1.0000
  S   S535      1.0  0.70309  0.92596  0.64140  1.0000
  S   S536      1.0  0.73925  0.91014  0.59486  1.0000
  C   C3989     1.0  0.71254  0.94446  0.55164  1.0000
  C   C3990     1.0  0.87864  0.85940  0.48388  1.0000
  H   H3184     1.0  0.82979  0.49648  0.71371  1.0000
  Fe  Fe268     1.0  0.67792  0.94871  0.63125  1.0000
  H   H3185     1.0  0.75040  0.97162  0.57410  1.0000
  C   C3991     1.0  0.88294  0.69458  0.53903  1.0000
  H   H3186     1.0  0.68332  0.86362  0.52013  1.0000
  S   S537      1.0  0.68474  0.94106  0.60097  1.0000
  S   S538      1.0  0.68787  0.89347  0.62145  1.0000
  Fe  Fe269     1.0  0.82273  0.80669  0.53035  1.0000
  S   S539      1.0  0.81199  0.83660  0.53980  1.0000
  S   S540      1.0  0.82925  0.77741  0.55035  1.0000
  Fe  Fe270     1.0  0.81905  0.82322  0.48803  1.0000
  S   S541      1.0  0.80769  0.85444  0.49398  1.0000
  C   C3992     1.0  0.70098  0.90672  0.48194  1.0000
  Fe  Fe271     1.0  0.83147  0.84842  0.51248  1.0000
  S   S542      1.0  0.84893  0.87258  0.51275  1.0000
  Fe  Fe272     1.0  0.78900  0.84044  0.52084  1.0000
  S   S543      1.0  0.75674  0.85330  0.53082  1.0000
  S   S544      1.0  0.84436  0.81816  0.50468  1.0000
  S   S545      1.0  0.79816  0.80938  0.51318  1.0000
  H   H3187     1.0  0.72210  0.97206  0.60165  1.0000
  H   H3188     1.0  0.86096  0.55709  0.66579  1.0000
  Fe  Fe273     1.0  0.90712  0.68524  0.61189  1.0000
  S   S546      1.0  0.92887  0.70686  0.60469  1.0000
  S   S547      1.0  0.89950  0.66962  0.59003  1.0000
  Fe  Fe274     1.0  0.89141  0.69559  0.65271  1.0000
  S   S548      1.0  0.91160  0.71848  0.64871  1.0000
  S   S549      1.0  0.86581  0.69038  0.67723  1.0000
  Fe  Fe275     1.0  0.90344  0.72795  0.61870  1.0000
  S   S550      1.0  0.89518  0.76023  0.60442  1.0000
  Fe  Fe276     1.0  0.93513  0.69542  0.63508  1.0000
  S   S551      1.0  0.96535  0.68278  0.64387  1.0000
  S   S552      1.0  0.88156  0.70684  0.62405  1.0000
  S   S553      1.0  0.91514  0.67194  0.64106  1.0000
  H   H3189     1.0  0.93446  0.64633  0.60473  1.0000
  H   H3190     1.0  0.83769  0.66879  0.70354  1.0000
  C   C3993     1.0  0.67322  0.86988  0.57446  1.0000
  H   H3191     1.0  0.87067  0.70769  0.56492  1.0000
  C   C3994     1.0  0.98538  0.71485  0.62813  1.0000
  C   C3995     1.0  0.67725  0.84909  0.54973  1.0000
  C   C3996     1.0  0.68064  0.86553  0.53524  1.0000
  C   C3997     1.0  0.86919  0.66892  0.69489  1.0000
  C   C3998     1.0  0.92366  0.65870  0.53112  1.0000
  H   H3192     1.0  0.72029  0.87411  0.51856  1.0000
  H   H3193     1.0  0.94984  0.60793  0.49409  1.0000
  H   H3194     1.0  0.83147  0.90253  0.47521  1.0000
  C   C3999     1.0  0.96020  0.94208  0.47926  1.0000
  C   C4000     1.0  0.79818  0.76095  0.70259  1.0000
  C   C4001     1.0  0.71849  0.88151  0.50399  1.0000
  H   H3195     1.0  0.94397  0.69922  0.52985  1.0000
  C   C4002     1.0  0.86935  0.78030  0.47523  1.0000
  H   H3196     1.0  0.97106  0.72361  0.62593  1.0000
  H   H3197     1.0  0.93784  0.73030  0.50701  1.0000
  H   H3198     1.0  0.93610  0.52737  0.49562  1.0000
  S   S554      1.0  0.94648  0.58425  0.57706  1.0000
  C   C4003     1.0  0.87997  0.69229  0.52066  1.0000
  C   C4004     1.0  0.84719  0.77369  0.56558  1.0000
  C   C4005     1.0  0.85787  0.78865  0.56650  1.0000
  C   C4006     1.0  0.87225  0.78461  0.57883  1.0000
  C   C4007     1.0  0.87628  0.76554  0.58990  1.0000
  C   C4008     1.0  0.86540  0.75083  0.58894  1.0000
  C   C4009     1.0  0.85088  0.75490  0.57701  1.0000
  H   H3199     1.0  0.85506  0.80326  0.55777  1.0000
  H   H3200     1.0  0.88038  0.79621  0.57965  1.0000
  H   H3201     1.0  0.86811  0.73621  0.59729  1.0000
  H   H3202     1.0  0.84246  0.74338  0.57666  1.0000
  C   C4010     1.0  0.67670  0.88630  0.56003  1.0000
  C   C4011     1.0  0.74376  0.89400  0.57741  1.0000
  C   C4012     1.0  0.76323  0.88929  0.56742  1.0000
  C   C4013     1.0  0.76739  0.87666  0.55330  1.0000
  C   C4014     1.0  0.75202  0.86882  0.54885  1.0000
  C   C4015     1.0  0.73247  0.87365  0.55873  1.0000
  C   C4016     1.0  0.72836  0.88607  0.57307  1.0000
  H   H3203     1.0  0.77514  0.89554  0.57053  1.0000
  H   H3204     1.0  0.78246  0.87325  0.54568  1.0000
  H   H3205     1.0  0.72050  0.86765  0.55538  1.0000
  H   H3206     1.0  0.71325  0.88976  0.58052  1.0000
  C   C4017     1.0  0.95864  0.66845  0.50701  1.0000
  C   C4018     1.0  0.89858  0.71499  0.47951  1.0000
  H   H3207     1.0  0.81130  0.89962  0.50809  1.0000
  C   C4019     1.0  0.97393  0.68358  0.56429  1.0000
  C   C4020     1.0  0.69616  0.92193  0.53190  1.0000
  H   H3208     1.0  0.74471  0.86339  0.49082  1.0000
  H   H3209     1.0  0.94276  0.64187  0.55105  1.0000
  H   H3210     1.0  0.92877  0.90335  0.47310  1.0000
  H   H3211     1.0  0.85367  0.51595  0.71924  1.0000
  C   C4021     1.0  0.94669  0.97218  0.51394  1.0000
  C   C4022     1.0  0.89021  0.64365  0.71388  1.0000
  C   C4023     1.0  0.71917  0.79158  0.69112  1.0000
  C   C4024     1.0  0.96196  0.61625  0.48787  1.0000
  C   C4025     1.0  0.71682  0.91878  0.53169  1.0000
  H   H3212     1.0  0.89042  0.63891  0.57325  1.0000
  H   H3213     1.0  0.95965  0.50201  0.53460  1.0000
  C   C4026     1.0  0.91150  0.64497  0.58894  1.0000
  H   H3214     1.0  0.83926  0.72450  0.55312  1.0000
  H   H3215     1.0  0.91034  0.65400  0.54024  1.0000
  C   C4027     1.0  0.92293  0.70979  0.55372  1.0000
  C   C4028     1.0  0.86809  0.87573  0.49258  1.0000
  C   C4029     1.0  0.87332  0.89476  0.48557  1.0000
  C   C4030     1.0  0.68382  0.93674  0.54186  1.0000
  H   H3216     1.0  0.86524  0.90743  0.49228  1.0000
  C   C4031     1.0  0.91371  0.80495  0.54974  1.0000
  C   C4032     1.0  0.90076  0.82236  0.54410  1.0000
  C   C4033     1.0  0.89106  0.82359  0.52841  1.0000
  C   C4034     1.0  0.89415  0.80737  0.51844  1.0000
  C   C4035     1.0  0.90666  0.78960  0.52437  1.0000
  C   C4036     1.0  0.91678  0.78867  0.53984  1.0000
  P   P133      1.0  0.91091  0.76879  0.51123  1.0000
  C   C4037     1.0  0.91557  0.74553  0.52771  1.0000
  C   C4038     1.0  0.88864  0.76925  0.50149  1.0000
  C   C4039     1.0  0.87239  0.76096  0.51314  1.0000
  C   C4040     1.0  0.85482  0.76235  0.50583  1.0000
  H   H3217     1.0  0.97229  0.67114  0.49721  1.0000
  H   H3218     1.0  0.67625  0.90055  0.56445  1.0000
  C   C4041     1.0  0.88152  0.61882  0.49871  1.0000
  H   H3219     1.0  0.98368  0.78346  0.56886  1.0000
  H   H3220     1.0  0.98350  0.95852  0.52211  1.0000
  H   H3221     1.0  0.66282  0.97749  0.58704  1.0000
  C   C4042     1.0  0.90891  0.72573  0.55985  1.0000
  C   C4043     1.0  0.90517  0.74349  0.54691  1.0000
  C   C4044     1.0  0.93163  0.77132  0.49138  1.0000
  C   C4045     1.0  0.67357  0.85126  0.56934  1.0000
  C   C4046     1.0  0.96436  0.62762  0.64704  1.0000
  H   H3222     1.0  0.67009  0.87175  0.58964  1.0000
  H   H3223     1.0  0.89818  0.83492  0.55187  1.0000
  H   H3224     1.0  0.88105  0.83715  0.52401  1.0000
  H   H3225     1.0  0.88673  0.80876  0.50616  1.0000
  H   H3226     1.0  0.92689  0.77533  0.54439  1.0000
  H   H3227     1.0  0.87281  0.75411  0.52810  1.0000
  H   H3228     1.0  0.84200  0.75685  0.51521  1.0000
  H   H3229     1.0  0.90014  0.52783  0.50888  1.0000
  H   H3230     1.0  0.73696  0.76387  0.70159  1.0000
  C   C4047     1.0  0.70293  0.80630  0.69586  1.0000
  C   C4048     1.0  0.87211  0.65164  0.50839  1.0000
  C   C4049     1.0  0.93934  0.94703  0.48086  1.0000
  C   C4050     1.0  0.66027  0.93852  0.50545  1.0000
  H   H3231     1.0  0.90083  0.72428  0.57466  1.0000
  H   H3232     1.0  0.89415  0.75564  0.55192  1.0000
  C   C4051     1.0  0.90915  0.48608  0.48755  1.0000
  C   C4052     1.0  0.77405  0.90622  0.48173  1.0000
  C   C4053     1.0  0.79001  0.65367  0.69662  1.0000
  C   C4054     1.0  0.77853  0.80570  0.56981  1.0000
  C   C4055     1.0  0.75866  0.81217  0.56762  1.0000
  C   C4056     1.0  0.74650  0.82553  0.57916  1.0000
  C   C4057     1.0  0.75421  0.83257  0.59279  1.0000
  C   C4058     1.0  0.77416  0.82602  0.59528  1.0000
  C   C4059     1.0  0.78631  0.81266  0.58344  1.0000
  P   P134      1.0  0.78449  0.83502  0.61284  1.0000
  C   C4060     1.0  0.76477  0.84160  0.63268  1.0000
  C   C4061     1.0  0.80333  0.81492  0.62127  1.0000
  C   C4062     1.0  0.82246  0.81858  0.62175  1.0000
  C   C4063     1.0  0.83772  0.80262  0.62567  1.0000
  C   C4064     1.0  0.83399  0.78294  0.62932  1.0000
  C   C4065     1.0  0.81487  0.77919  0.62946  1.0000
  C   C4066     1.0  0.79957  0.79509  0.62553  1.0000
  C   C4067     1.0  0.76321  0.82937  0.65102  1.0000
  C   C4068     1.0  0.74766  0.83441  0.66608  1.0000
  C   C4069     1.0  0.73360  0.85167  0.66298  1.0000
  C   C4070     1.0  0.73512  0.86395  0.64486  1.0000
  C   C4071     1.0  0.75057  0.85896  0.62978  1.0000
  C   C4072     1.0  0.79639  0.85623  0.60038  1.0000
  C   C4073     1.0  0.79304  0.87415  0.60802  1.0000
  C   C4074     1.0  0.80240  0.89030  0.59793  1.0000
  C   C4075     1.0  0.81542  0.88858  0.58034  1.0000
  C   C4076     1.0  0.81933  0.87061  0.57297  1.0000
  C   C4077     1.0  0.81002  0.85447  0.58308  1.0000
  H   H3233     1.0  0.78805  0.79562  0.56060  1.0000
  H   H3234     1.0  0.75286  0.80737  0.55653  1.0000
  H   H3235     1.0  0.73126  0.83104  0.57699  1.0000
  H   H3236     1.0  0.74450  0.84334  0.60099  1.0000
  H   H3237     1.0  0.80192  0.80769  0.58446  1.0000
  H   H3238     1.0  0.82585  0.83366  0.61852  1.0000
  H   H3239     1.0  0.85264  0.80545  0.62531  1.0000
  H   H3240     1.0  0.84606  0.77061  0.63164  1.0000
  H   H3241     1.0  0.81209  0.76390  0.63197  1.0000
  H   H3242     1.0  0.78502  0.79190  0.62498  1.0000
  H   H3243     1.0  0.77392  0.81599  0.65377  1.0000
  H   H3244     1.0  0.74651  0.82502  0.68021  1.0000
  H   H3245     1.0  0.72150  0.85566  0.67457  1.0000
  H   H3246     1.0  0.72428  0.87742  0.64250  1.0000
  H   H3247     1.0  0.75138  0.86873  0.61582  1.0000
  H   H3248     1.0  0.78324  0.87588  0.62168  1.0000
  H   H3249     1.0  0.79928  0.90426  0.60362  1.0000
  H   H3250     1.0  0.82244  0.90116  0.57238  1.0000
  H   H3251     1.0  0.82947  0.86922  0.55933  1.0000
  H   H3252     1.0  0.81359  0.84050  0.57751  1.0000
  C   C4078     1.0  0.87598  0.50664  0.67389  1.0000
  H   H3253     1.0  0.68248  0.95916  0.55951  1.0000
  C   C4079     1.0  0.78875  0.67356  0.68740  1.0000
  H   H3254     1.0  0.92108  0.80397  0.56201  1.0000
  C   C4080     1.0  0.85056  0.71544  0.54416  1.0000
  C   C4081     1.0  0.85933  0.51860  0.70380  1.0000
  C   C4082     1.0  0.93322  0.71162  0.53462  1.0000
  H   H3255     1.0  0.69821  0.81850  0.68475  1.0000
  H   H3256     1.0  0.85948  0.70039  0.50006  1.0000
  C   C4083     1.0  0.81847  0.72377  0.69401  1.0000
  S   S555      1.0  0.65524  0.92783  0.64219  1.0000
  C   C4084     1.0  0.80493  0.72475  0.71152  1.0000
  C   C4085     1.0  0.95823  0.90930  0.47260  1.0000
  C   C4086     1.0  0.96079  0.73657  0.56839  1.0000
  C   C4087     1.0  0.94875  0.75324  0.57537  1.0000
  C   C4088     1.0  0.95700  0.77006  0.57569  1.0000
  H   H3257     1.0  0.78524  0.67760  0.67284  1.0000
  H   H3258     1.0  0.81463  0.77331  0.67519  1.0000
  C   C4089     1.0  0.92960  0.72937  0.52165  1.0000
  H   H3259     1.0  0.98003  0.50833  0.50210  1.0000
  H   H3260     1.0  0.94970  0.64796  0.66688  1.0000
  Fe  Fe277     1.0  0.68095  0.90447  0.65015  1.0000
  H   H3261     1.0  0.94204  0.79464  0.50135  1.0000
  H   H3262     1.0  0.97331  0.61143  0.51470  1.0000
  C   C4090     1.0  0.81180  0.75980  0.68525  1.0000
  H   H3263     1.0  0.90885  0.60530  0.56809  1.0000
  C   C4091     1.0  0.70257  0.89713  0.50100  1.0000
  H   H3264     1.0  0.97379  0.65084  0.52978  1.0000
  H   H3265     1.0  0.79030  0.70363  0.68970  1.0000
  C   C4092     1.0  0.95479  0.53275  0.53910  1.0000
  C   C4093     1.0  0.93972  0.61858  0.59325  1.0000
  H   H3266     1.0  0.95411  0.72365  0.56839  1.0000
  H   H3267     1.0  0.93303  0.75297  0.58082  1.0000
  H   H3268     1.0  0.94767  0.78276  0.58157  1.0000
  C   C4094     1.0  0.68062  0.88424  0.54030  1.0000
  C   C4095     1.0  0.80399  0.90237  0.49549  1.0000
  C   C4096     1.0  0.92257  0.67122  0.51315  1.0000
  C   C4097     1.0  0.94203  0.65172  0.53726  1.0000
  S   S556      1.0  0.68159  0.88412  0.67932  1.0000
  C   C4098     1.0  0.98259  0.73047  0.49862  1.0000
  H   H3269     1.0  0.95674  0.65949  0.57219  1.0000
  H   H3270     1.0  0.68902  0.91893  0.47917  1.0000
  C   C4099     1.0  0.82195  0.74119  0.68099  1.0000
  C   C4100     1.0  0.94870  0.63500  0.66083  1.0000
  C   C4101     1.0  0.95950  0.65671  0.52526  1.0000
  P   P135      1.0  0.89899  0.67838  0.50463  1.0000
  C   C4102     1.0  0.72494  0.93000  0.54157  1.0000
  C   C4103     1.0  0.94422  0.78535  0.49022  1.0000
  H   H3271     1.0  0.95301  0.56417  0.53966  1.0000
  H   H3272     1.0  0.90123  0.66527  0.68971  1.0000
  H   H3273     1.0  0.92564  0.69595  0.56375  1.0000
  H   H3274     1.0  0.86061  0.66270  0.51459  1.0000
  H   H3275     1.0  0.83274  0.74018  0.66771  1.0000
  H   H3276     1.0  0.78748  0.64226  0.68926  1.0000
  C   C4104     1.0  0.84743  0.71319  0.52597  1.0000
  C   C4105     1.0  0.96739  0.66675  0.57632  1.0000
  C   C4106     1.0  0.69207  0.94813  0.55144  1.0000
  C   C4107     1.0  0.90404  0.63316  0.57906  1.0000
  C   C4108     1.0  0.90217  0.69402  0.48097  1.0000
  H   H3277     1.0  0.71870  0.95224  0.56021  1.0000
  C   C4109     1.0  0.66070  0.86039  0.70867  1.0000
  Fe  Fe278     1.0  0.66397  0.91877  0.61258  1.0000
  C   C4110     1.0  0.91443  0.61415  0.57617  1.0000
  C   C4111     1.0  0.87321  0.52624  0.66380  1.0000
  C   C4112     1.0  0.66309  0.86877  0.68888  1.0000
  H   H3278     1.0  0.96900  0.79902  0.47329  1.0000
  H   H3279     1.0  0.82653  0.70946  0.69051  1.0000
  H   H3280     1.0  0.96803  0.68914  0.55101  1.0000
  C   C4113     1.0  0.85235  0.66168  0.70633  1.0000
  H   H3281     1.0  0.88332  0.49471  0.66584  1.0000
  H   H3282     1.0  0.83944  0.77361  0.48148  1.0000
  H   H3283     1.0  0.83368  0.72049  0.52092  1.0000
  H   H3284     1.0  0.74074  0.92681  0.54223  1.0000
  H   H3285     1.0  0.67086  0.83858  0.58060  1.0000
  H   H3286     1.0  0.92188  0.64225  0.49035  1.0000
  H   H3287     1.0  0.72716  0.79240  0.67630  1.0000
  C   C4114     1.0  0.90646  0.64008  0.49493  1.0000
  C   C4115     1.0  0.95877  0.55205  0.53132  1.0000
  C   C4116     1.0  0.98128  0.73652  0.56180  1.0000
  C   C4117     1.0  0.86334  0.54196  0.67367  1.0000
  C   C4118     1.0  0.92896  0.63740  0.59667  1.0000
  C   C4119     1.0  0.86698  0.63355  0.50650  1.0000
  H   H3288     1.0  0.95363  0.61303  0.59857  1.0000
  C   C4120     1.0  0.85635  0.53812  0.69365  1.0000
  H   H3289     1.0  0.87847  0.52923  0.64827  1.0000
  H   H3290     1.0  0.77465  0.90130  0.51251  1.0000
  H   H3291     1.0  0.97591  0.74375  0.48992  1.0000
  H   H3292     1.0  0.89417  0.72202  0.49243  1.0000
  C   C4121     1.0  0.93255  0.60705  0.58279  1.0000
  C   C4122     1.0  0.78335  0.90333  0.49797  1.0000
  C   C4123     1.0  0.98460  0.73109  0.51767  1.0000
  C   C4124     1.0  0.90633  0.57265  0.61812  1.0000
  C   C4125     1.0  0.91379  0.55264  0.62430  1.0000
  C   C4126     1.0  0.91836  0.54662  0.64302  1.0000
  C   C4127     1.0  0.91563  0.56066  0.65551  1.0000
  C   C4128     1.0  0.90795  0.58081  0.64947  1.0000
  C   C4129     1.0  0.90349  0.58671  0.63057  1.0000
  P   P136      1.0  0.90689  0.59922  0.66478  1.0000
  C   C4130     1.0  0.90288  0.58740  0.69003  1.0000
  C   C4131     1.0  0.92976  0.60975  0.65817  1.0000
  C   C4132     1.0  0.93138  0.62629  0.66618  1.0000
  C   C4133     1.0  0.81539  0.90403  0.47679  1.0000
  H   H3293     1.0  0.72667  0.90706  0.52476  1.0000
  H   H3294     1.0  0.84838  0.55020  0.70136  1.0000
  C   C4134     1.0  0.94566  0.60228  0.64439  1.0000
  C   C4135     1.0  0.88810  0.57511  0.69663  1.0000
  C   C4136     1.0  0.79186  0.68829  0.69700  1.0000
  C   C4137     1.0  0.96286  0.61124  0.63885  1.0000
  H   H3295     1.0  0.87753  0.60488  0.49712  1.0000
  C   C4138     1.0  0.91374  0.59083  0.70340  1.0000
  C   C4139     1.0  0.88647  0.61948  0.66085  1.0000
  C   C4140     1.0  0.88842  0.63395  0.64402  1.0000
  C   C4141     1.0  0.87292  0.64981  0.64083  1.0000
  C   C4142     1.0  0.85539  0.65150  0.65448  1.0000
  C   C4143     1.0  0.85326  0.63720  0.67125  1.0000
  C   C4144     1.0  0.86877  0.62138  0.67457  1.0000
  H   H3296     1.0  0.90345  0.57744  0.60336  1.0000
  H   H3297     1.0  0.91648  0.54196  0.61435  1.0000
  H   H3298     1.0  0.92449  0.53118  0.64769  1.0000
  H   H3299     1.0  0.91998  0.55586  0.66968  1.0000
  H   H3300     1.0  0.89843  0.60220  0.62508  1.0000
  H   H3301     1.0  0.91909  0.63269  0.67635  1.0000
  C   C4145     1.0  0.86207  0.70176  0.51424  1.0000
  C   C4146     1.0  0.86905  0.50265  0.69402  1.0000
  C   C4147     1.0  0.88819  0.65966  0.69844  1.0000
  H   H3302     1.0  0.94477  0.58985  0.63755  1.0000
  H   H3303     1.0  0.87932  0.57258  0.68665  1.0000
  H   H3304     1.0  0.87466  0.84471  0.48914  1.0000
  C   C4148     1.0  0.85333  0.77190  0.48687  1.0000
  H   H3305     1.0  0.84364  0.70722  0.71830  1.0000
  C   C4149     1.0  0.94027  0.67581  0.50098  1.0000
  H   H3306     1.0  0.90207  0.63322  0.63346  1.0000
  H   H3307     1.0  0.87467  0.66106  0.62795  1.0000
  H   H3308     1.0  0.84370  0.66421  0.65230  1.0000
  H   H3309     1.0  0.83985  0.63881  0.68207  1.0000
  H   H3310     1.0  0.86691  0.61114  0.68811  1.0000
  C   C4150     1.0  0.96237  0.51709  0.52843  1.0000
  C   C4151     1.0  0.92859  0.51578  0.49345  1.0000
  H   H3311     1.0  0.97941  0.74497  0.52340  1.0000
  H   H3312     1.0  0.67301  0.94627  0.50230  1.0000
  H   H3313     1.0  0.92509  0.60030  0.69896  1.0000
  P   P137      1.0  0.68530  0.90548  0.52167  1.0000
  H   H3314     1.0  0.67748  0.83465  0.54576  1.0000
  C   C4152     1.0  0.97854  0.53995  0.50235  1.0000
  C   C4153     1.0  0.97728  0.77039  0.56861  1.0000
  H   H3315     1.0  0.97003  0.64584  0.60282  1.0000
  H   H3316     1.0  0.94804  0.95645  0.52018  1.0000
  H   H3317     1.0  0.94011  0.68445  0.48658  1.0000
  H   H3318     1.0  0.94607  0.52990  0.55351  1.0000
  H   H3319     1.0  0.89647  0.68770  0.54453  1.0000
  C   C4154     1.0  0.86827  0.70608  0.55072  1.0000
  P   P138      1.0  0.97464  0.96006  0.48258  1.0000
  H   H3320     1.0  0.66774  0.93893  0.54303  1.0000
  H   H3321     1.0  0.98489  0.50398  0.55869  1.0000
  C   C4155     1.0  0.90126  0.62210  0.49294  1.0000
  C   C4156     1.0  0.88686  0.77919  0.48254  1.0000
  C   C4157     1.0  0.93748  0.91408  0.47499  1.0000
  C   C4158     1.0  0.79476  0.74351  0.71571  1.0000
  C   C4159     1.0  0.72472  0.77557  0.70539  1.0000
  C   C4160     1.0  0.90832  0.51607  0.50088  1.0000
  C   C4161     1.0  0.92804  0.93297  0.47904  1.0000
  C   C4162     1.0  0.92951  0.48576  0.47990  1.0000
  C   C4163     1.0  0.97536  0.61808  0.49954  1.0000
  C   C4164     1.0  0.69237  0.80514  0.71488  1.0000
  C   C4165     1.0  0.89861  0.50118  0.49798  1.0000
  C   C4166     1.0  0.66195  0.91843  0.51457  1.0000
  C   C4167     1.0  0.73241  0.87540  0.48824  1.0000
  H   H3322     1.0  0.85169  0.63096  0.51108  1.0000
  C   C4168     1.0  0.93475  0.75980  0.47645  1.0000
  H   H3323     1.0  0.88289  0.50139  0.50377  1.0000
  H   H3324     1.0  0.75810  0.90661  0.48373  1.0000
  C   C4169     1.0  0.89189  0.65514  0.50243  1.0000
  C   C4170     1.0  0.88393  0.56682  0.71630  1.0000
  H   H3325     1.0  0.79042  0.77540  0.70594  1.0000
  H   H3326     1.0  0.90488  0.63684  0.71696  1.0000
  Fe  Fe279     1.0  0.97858  0.58797  0.56723  1.0000
  C   C4171     1.0  0.96956  0.92319  0.47475  1.0000
  C   C4172     1.0  0.93921  0.50060  0.48317  1.0000
  H   H3327     1.0  0.91261  0.61079  0.48676  1.0000
  C   C4173     1.0  0.97469  0.65916  0.59363  1.0000
  H   H3328     1.0  0.98557  0.91913  0.47257  1.0000
  H   H3329     1.0  0.97495  0.60574  0.62792  1.0000
  H   H3330     1.0  0.97628  0.48913  0.61993  1.0000
  H   H3331     1.0  0.92510  0.74903  0.47700  1.0000
  H   H3332     1.0  0.67939  0.81632  0.71807  1.0000
  C   C4174     1.0  0.79675  0.68314  0.71578  1.0000
  H   H3333     1.0  0.97322  0.57081  0.50702  1.0000
  H   H3334     1.0  0.95489  0.50067  0.47773  1.0000
  C   C4175     1.0  0.79425  0.64852  0.71550  1.0000
  C   C4176     1.0  0.97045  0.55570  0.51291  1.0000
  H   H3335     1.0  0.97748  0.63488  0.64242  1.0000
  H   H3336     1.0  0.93168  0.96181  0.48325  1.0000
  H   H3337     1.0  0.91198  0.93694  0.48013  1.0000
  C   C4177     1.0  0.97418  0.52067  0.51010  1.0000
  C   C4178     1.0  0.95958  0.78788  0.47428  1.0000
  H   H3338     1.0  0.89864  0.78674  0.47357  1.0000
  H   H3339     1.0  0.67004  0.86358  0.71778  1.0000
  H   H3340     1.0  0.79829  0.48338  0.72023  1.0000
  C   C4179     1.0  0.83031  0.48075  0.71363  1.0000
  C   C4180     1.0  0.95811  0.97840  0.49584  1.0000
  C   C4181     1.0  0.79492  0.52780  0.85141  1.0000
  H   H3341     1.0  0.78585  0.51571  0.88171  1.0000
  H   H3342     1.0  0.75874  0.69808  0.73194  1.0000
  S   S557      1.0  0.90795  0.54531  0.85792  1.0000
  H   H3343     1.0  0.82016  0.50099  0.95039  1.0000
  C   C4182     1.0  0.78384  0.52836  0.87023  1.0000
  Fe  Fe280     1.0  0.69251  0.66423  0.87670  1.0000
  S   S558      1.0  0.93017  0.49466  0.88860  1.0000
  S   S559      1.0  0.69238  0.63215  0.89081  1.0000
  Fe  Fe281     1.0  0.71955  0.69194  0.85107  1.0000
  S   S560      1.0  0.69689  0.71959  0.85516  1.0000
  S   S561      1.0  0.74988  0.69226  0.83200  1.0000
  Fe  Fe282     1.0  0.69059  0.70523  0.88666  1.0000
  S   S562      1.0  0.68136  0.72256  0.91195  1.0000
  Fe  Fe283     1.0  0.67526  0.70147  0.85040  1.0000
  S   S563      1.0  0.66719  0.68910  0.88208  1.0000
  S   S564      1.0  0.71561  0.67950  0.88308  1.0000
  S   S565      1.0  0.69835  0.67456  0.84457  1.0000
  Fe  Fe284     1.0  0.82602  0.57081  0.75998  1.0000
  S   S566      1.0  0.85116  0.57293  0.77458  1.0000
  C   C4183     1.0  0.83205  0.51796  0.80791  1.0000
  Fe  Fe285     1.0  0.80305  0.61129  0.77005  1.0000
  S   S567      1.0  0.82668  0.61612  0.78514  1.0000
  S   S568      1.0  0.77424  0.63326  0.76943  1.0000
  Fe  Fe286     1.0  0.84808  0.60493  0.75995  1.0000
  Fe  Fe287     1.0  0.82721  0.58386  0.79801  1.0000
  S   S569      1.0  0.82489  0.57304  0.82999  1.0000
  C   C4184     1.0  0.79794  0.49021  0.76431  1.0000
  S   S570      1.0  0.80212  0.57942  0.78466  1.0000
  C   C4185     1.0  0.91547  0.50344  0.96748  1.0000
  H   H3344     1.0  0.78958  0.54135  0.75834  1.0000
  C   C4186     1.0  0.75635  0.67563  0.81484  1.0000
  C   C4187     1.0  0.77645  0.66788  0.80914  1.0000
  C   C4188     1.0  0.78204  0.65478  0.79540  1.0000
  C   C4189     1.0  0.76766  0.64982  0.78671  1.0000
  C   C4190     1.0  0.74760  0.65810  0.79194  1.0000
  C   C4191     1.0  0.74193  0.67072  0.80613  1.0000
  H   H3345     1.0  0.78772  0.67188  0.81549  1.0000
  H   H3346     1.0  0.79752  0.64874  0.79147  1.0000
  H   H3347     1.0  0.73635  0.65468  0.78512  1.0000
  H   H3348     1.0  0.72649  0.67722  0.80977  1.0000
  C   C4192     1.0  0.89184  0.49008  0.75311  1.0000
  C   C4193     1.0  0.78749  0.50982  0.76387  1.0000
  C   C4194     1.0  0.70435  0.69677  0.93696  1.0000
  C   C4195     1.0  0.68867  0.71273  0.93480  1.0000
  C   C4196     1.0  0.79865  0.49115  0.83596  1.0000
  H   H3349     1.0  0.96557  0.50462  0.84907  1.0000
  H   H3350     1.0  0.67530  0.63094  0.85118  1.0000
  H   H3351     1.0  0.71196  0.68981  0.92454  1.0000
  C   C4197     1.0  0.65779  0.67191  0.93398  1.0000
  C   C4198     1.0  0.85435  0.64559  0.72161  1.0000
  C   C4199     1.0  0.83331  0.51313  0.82781  1.0000
  C   C4200     1.0  0.67899  0.72170  0.95105  1.0000
  C   C4201     1.0  0.69728  0.77394  0.77265  1.0000
  C   C4202     1.0  0.67077  0.63668  0.94121  1.0000
  H   H3352     1.0  0.84515  0.50106  0.75315  1.0000
  C   C4203     1.0  0.90569  0.50081  0.93717  1.0000
  H   H3353     1.0  0.89094  0.56481  0.74484  1.0000
  H   H3354     1.0  0.83975  0.49689  0.90628  1.0000
  P   P139      1.0  0.68376  0.78769  0.75371  1.0000
  H   H3355     1.0  0.88131  0.52013  0.82478  1.0000
  C   C4204     1.0  0.82906  0.50356  0.75625  1.0000
  C   C4205     1.0  0.68536  0.82816  0.75251  1.0000
  C   C4206     1.0  0.83531  0.48942  0.89615  1.0000
  H   H3356     1.0  0.67623  0.74594  0.76421  1.0000
  C   C4207     1.0  0.66786  0.63615  0.83870  1.0000
  C   C4208     1.0  0.88784  0.49062  0.73447  1.0000
  C   C4209     1.0  0.67502  0.81207  0.76071  1.0000
  C   C4210     1.0  0.88486  0.55362  0.85024  1.0000
  C   C4211     1.0  0.88362  0.56621  0.83239  1.0000
  C   C4212     1.0  0.86524  0.57204  0.82586  1.0000
  C   C4213     1.0  0.84809  0.56564  0.83743  1.0000
  C   C4214     1.0  0.84929  0.55340  0.85539  1.0000
  C   C4215     1.0  0.86766  0.54726  0.86175  1.0000
  H   H3357     1.0  0.89694  0.57107  0.82344  1.0000
  H   H3358     1.0  0.86434  0.58150  0.81194  1.0000
  H   H3359     1.0  0.83601  0.54841  0.86420  1.0000
  H   H3360     1.0  0.86851  0.53780  0.87566  1.0000
  S   S571      1.0  0.88554  0.49550  0.87796  1.0000
  C   C4216     1.0  0.91237  0.51182  0.94855  1.0000
  H   H3361     1.0  0.69855  0.82641  0.74151  1.0000
  C   C4217     1.0  0.68508  0.71501  0.96924  1.0000
  C   C4218     1.0  0.66815  0.62616  0.89746  1.0000
  C   C4219     1.0  0.86759  0.51948  0.82000  1.0000
  H   H3362     1.0  0.91544  0.52676  0.94254  1.0000
  H   H3363     1.0  0.77510  0.57350  0.82934  1.0000
  C   C4220     1.0  0.71779  0.75299  0.80262  1.0000
  H   H3364     1.0  0.87200  0.55800  0.72150  1.0000
  H   H3365     1.0  0.66683  0.73402  0.94950  1.0000
  H   H3366     1.0  0.71030  0.60320  0.85064  1.0000
  H   H3367     1.0  0.77137  0.51233  0.76643  1.0000
  C   C4221     1.0  0.76446  0.71676  0.77828  1.0000
  C   C4222     1.0  0.74594  0.71322  0.77610  1.0000
  C   C4223     1.0  0.74395  0.70669  0.75929  1.0000
  C   C4224     1.0  0.76053  0.70348  0.74470  1.0000
  C   C4225     1.0  0.77928  0.70668  0.74693  1.0000
  C   C4226     1.0  0.78105  0.71373  0.76367  1.0000
  S   S572      1.0  0.92545  0.49307  0.84399  1.0000
  C   C4227     1.0  0.82240  0.69196  0.74010  1.0000
  C   C4228     1.0  0.82644  0.50066  0.88063  1.0000
  H   H3368     1.0  0.65759  0.66581  0.84610  1.0000
  C   C4229     1.0  0.76981  0.54521  0.87429  1.0000
  H   H3369     1.0  0.71702  0.56770  0.82833  1.0000
  H   H3370     1.0  0.67214  0.49759  0.86535  1.0000
  H   H3371     1.0  0.96897  0.51543  0.95362  1.0000
  C   C4230     1.0  0.82041  0.67825  0.75748  1.0000
  C   C4231     1.0  0.83709  0.66907  0.76592  1.0000
  C   C4232     1.0  0.85594  0.67363  0.75720  1.0000
  H   H3372     1.0  0.65693  0.86378  0.77789  1.0000
  H   H3373     1.0  0.97976  0.62058  0.76419  1.0000
  H   H3374     1.0  0.72604  0.78148  0.75798  1.0000
  C   C4233     1.0  0.72020  0.57993  0.81670  1.0000
  C   C4234     1.0  0.67871  0.84682  0.75852  1.0000
  C   C4235     1.0  0.65854  0.63087  0.80922  1.0000
  P   P140      1.0  0.80088  0.70205  0.72837  1.0000
  C   C4236     1.0  0.71790  0.77349  0.77079  1.0000
  H   H3375     1.0  0.76602  0.72125  0.79163  1.0000
  H   H3376     1.0  0.80065  0.65869  0.73969  1.0000
  H   H3377     1.0  0.79533  0.71641  0.76566  1.0000
  C   C4237     1.0  0.87328  0.63675  0.72562  1.0000
  H   H3378     1.0  0.74406  0.76243  0.78414  1.0000
  H   H3379     1.0  0.73267  0.62329  0.77495  1.0000
  H   H3380     1.0  0.98248  0.65668  0.75697  1.0000
  P   P141      1.0  0.81226  0.50570  0.84564  1.0000
  H   H3381     1.0  0.80600  0.67426  0.76425  1.0000
  H   H3382     1.0  0.83545  0.65798  0.77890  1.0000
  H   H3383     1.0  0.86900  0.66584  0.76324  1.0000
  H   H3384     1.0  0.77066  0.49879  0.85497  1.0000
  C   C4238     1.0  0.82563  0.49099  0.96258  1.0000
  C   C4239     1.0  0.66372  0.75515  0.75822  1.0000
  C   C4240     1.0  0.70450  0.58507  0.87861  1.0000
  C   C4241     1.0  0.98135  0.50065  0.84955  1.0000
  H   H3385     1.0  0.90348  0.50741  0.92254  1.0000
  C   C4242     1.0  0.69717  0.75401  0.80485  1.0000
  C   C4243     1.0  0.73916  0.57881  0.80516  1.0000
  C   C4244     1.0  0.95932  0.55985  0.92392  1.0000
  H   H3386     1.0  0.72310  0.67828  0.95656  1.0000
  P   P142      1.0  0.97530  0.55515  0.95795  1.0000
  C   C4245     1.0  0.85802  0.68774  0.74027  1.0000
  P   P143      1.0  0.68109  0.59797  0.82840  1.0000
  H   H3387     1.0  0.69103  0.56504  0.80507  1.0000
  H   H3388     1.0  0.75599  0.57474  0.86266  1.0000
  S   S573      1.0  0.83173  0.54345  0.74521  1.0000
  H   H3389     1.0  0.84122  0.64055  0.73070  1.0000
  H   H3390     1.0  0.89914  0.50152  0.75590  1.0000
  H   H3391     1.0  0.72247  0.48890  0.78152  1.0000
  C   C4246     1.0  0.65786  0.65588  0.83593  1.0000
  C   C4247     1.0  0.76660  0.56152  0.85956  1.0000
  C   C4248     1.0  0.96604  0.54630  0.93963  1.0000
  C   C4249     1.0  0.72906  0.61115  0.78656  1.0000
  C   C4250     1.0  0.79120  0.54404  0.83666  1.0000
  H   H3392     1.0  0.87270  0.69092  0.73318  1.0000
  H   H3393     1.0  0.89236  0.50245  0.72296  1.0000
  C   C4251     1.0  0.67382  0.65621  0.93316  1.0000
  C   C4252     1.0  0.77723  0.56084  0.84076  1.0000
  H   H3394     1.0  0.72569  0.74465  0.81414  1.0000
  H   H3395     1.0  0.71071  0.63660  0.95103  1.0000
  C   C4253     1.0  0.69835  0.78959  0.72951  1.0000
  C   C4254     1.0  0.85128  0.51393  0.83368  1.0000
  H   H3396     1.0  0.75824  0.59369  0.78112  1.0000
  C   C4255     1.0  0.74356  0.59442  0.79008  1.0000
  H   H3397     1.0  0.69929  0.62564  0.79514  1.0000
  H   H3398     1.0  0.68411  0.50776  0.95142  1.0000
  C   C4256     1.0  0.72813  0.76289  0.78567  1.0000
  C   C4257     1.0  0.95110  0.53272  0.91148  1.0000
  Fe  Fe288     1.0  0.91144  0.51201  0.86682  1.0000
  C   C4258     1.0  0.96481  0.52599  0.94126  1.0000
  C   C4259     1.0  0.71010  0.61237  0.79808  1.0000
  H   H3399     1.0  0.93234  0.56900  0.95714  1.0000
  S   S574      1.0  0.82448  0.60231  0.74360  1.0000
  C   C4260     1.0  0.84134  0.69695  0.73177  1.0000
  C   C4261     1.0  0.95749  0.51921  0.92719  1.0000
  H   H3400     1.0  0.68307  0.62442  0.94012  1.0000
  C   C4262     1.0  0.65854  0.81469  0.77559  1.0000
  H   H3401     1.0  0.79941  0.54405  0.82202  1.0000
  H   H3402     1.0  0.66035  0.68700  0.92768  1.0000
  C   C4263     1.0  0.81861  0.52321  0.75505  1.0000
  H   H3403     1.0  0.67082  0.76574  0.79241  1.0000
  H   H3404     1.0  0.65880  0.62145  0.79861  1.0000
  C   C4264     1.0  0.67212  0.50338  0.96283  1.0000
  H   H3405     1.0  0.94683  0.56347  0.89773  1.0000
  H   H3406     1.0  0.71659  0.58914  0.88379  1.0000
  C   C4265     1.0  0.71067  0.69030  0.95510  1.0000
  H   H3407     1.0  0.82419  0.51683  0.87885  1.0000
  H   H3408     1.0  0.84761  0.52661  0.77897  1.0000
  C   C4266     1.0  0.68458  0.58881  0.85327  1.0000
  H   H3409     1.0  0.65839  0.53378  0.96569  1.0000
  C   C4267     1.0  0.66463  0.60908  0.91106  1.0000
  C   C4268     1.0  0.66316  0.77588  0.75234  1.0000
  H   H3410     1.0  0.95637  0.50350  0.92869  1.0000
  H   H3411     1.0  0.76143  0.54565  0.88884  1.0000
  C   C4269     1.0  0.70075  0.59323  0.85987  1.0000
  C   C4270     1.0  0.70548  0.59670  0.81321  1.0000
  C   C4271     1.0  0.66819  0.62346  0.82537  1.0000
  C   C4272     1.0  0.83378  0.66454  0.82366  1.0000
  C   C4273     1.0  0.84893  0.65063  0.81538  1.0000
  C   C4274     1.0  0.84864  0.63018  0.82142  1.0000
  C   C4275     1.0  0.83333  0.62364  0.83587  1.0000
  C   C4276     1.0  0.81823  0.63747  0.84460  1.0000
  C   C4277     1.0  0.81848  0.65801  0.83821  1.0000
  P   P144      1.0  0.79841  0.62866  0.86319  1.0000
  C   C4278     1.0  0.77875  0.62466  0.85178  1.0000
  C   C4279     1.0  0.80862  0.60532  0.87681  1.0000
  C   C4280     1.0  0.79803  0.58913  0.88200  1.0000
  C   C4281     1.0  0.80630  0.57097  0.89212  1.0000
  C   C4282     1.0  0.82518  0.56884  0.89710  1.0000
  C   C4283     1.0  0.83583  0.58486  0.89193  1.0000
  C   C4284     1.0  0.82756  0.60306  0.88192  1.0000
  C   C4285     1.0  0.75862  0.62879  0.86050  1.0000
  C   C4286     1.0  0.74348  0.62664  0.85111  1.0000
  C   C4287     1.0  0.74830  0.61989  0.83318  1.0000
  C   C4288     1.0  0.76826  0.61490  0.82487  1.0000
  C   C4289     1.0  0.78345  0.61725  0.83411  1.0000
  C   C4290     1.0  0.78850  0.64700  0.87923  1.0000
  C   C4291     1.0  0.77573  0.66441  0.87293  1.0000
  C   C4292     1.0  0.76749  0.67852  0.88521  1.0000
  C   C4293     1.0  0.77183  0.67534  0.90401  1.0000
  C   C4294     1.0  0.78460  0.65809  0.91044  1.0000
  C   C4295     1.0  0.79294  0.64396  0.89812  1.0000
  H   H3412     1.0  0.83381  0.68041  0.81876  1.0000
  H   H3413     1.0  0.86078  0.65565  0.80412  1.0000
  H   H3414     1.0  0.86019  0.61933  0.81481  1.0000
  H   H3415     1.0  0.83332  0.60774  0.84020  1.0000
  H   H3416     1.0  0.80691  0.66911  0.84425  1.0000
  H   H3417     1.0  0.78359  0.59037  0.87793  1.0000
  H   H3418     1.0  0.79831  0.55839  0.89562  1.0000
  H   H3419     1.0  0.83187  0.55461  0.90440  1.0000
  H   H3420     1.0  0.85075  0.58298  0.89521  1.0000
  H   H3421     1.0  0.83612  0.61526  0.87781  1.0000
  H   H3422     1.0  0.75448  0.63408  0.87436  1.0000
  H   H3423     1.0  0.72799  0.63071  0.85755  1.0000
  H   H3424     1.0  0.73662  0.61895  0.82551  1.0000
  H   H3425     1.0  0.77202  0.60989  0.81086  1.0000
  H   H3426     1.0  0.79880  0.61361  0.82721  1.0000
  H   H3427     1.0  0.77200  0.66700  0.85849  1.0000
  H   H3428     1.0  0.75758  0.69186  0.88013  1.0000
  H   H3429     1.0  0.76523  0.68623  0.91358  1.0000
  H   H3430     1.0  0.78799  0.65568  0.92501  1.0000
  H   H3431     1.0  0.80268  0.63071  0.90345  1.0000
  S   S575      1.0  0.87600  0.61778  0.74580  1.0000
  C   C4296     1.0  0.79778  0.52628  0.75942  1.0000
  H   H3432     1.0  0.73176  0.60518  0.96324  1.0000
  H   H3433     1.0  0.94527  0.52749  0.90066  1.0000
  H   H3434     1.0  0.73325  0.71499  0.78772  1.0000
  C   C4297     1.0  0.86628  0.52396  0.80029  1.0000
  C   C4298     1.0  0.81879  0.48710  0.76103  1.0000
  C   C4299     1.0  0.68690  0.76470  0.79010  1.0000
  H   H3435     1.0  0.87892  0.52830  0.78973  1.0000
  H   H3436     1.0  0.85302  0.51027  0.84875  1.0000
  C   C4300     1.0  0.89463  0.57058  0.72949  1.0000
  H   H3437     1.0  0.67663  0.60009  0.91796  1.0000
  H   H3438     1.0  0.82393  0.47968  0.81564  1.0000
  H   H3439     1.0  0.75048  0.56586  0.80783  1.0000
  C   C4301     1.0  0.95200  0.55303  0.90985  1.0000
  C   C4302     1.0  0.84857  0.52308  0.79426  1.0000
  H   H3440     1.0  0.68903  0.74661  0.81807  1.0000
  H   H3441     1.0  0.81840  0.51771  0.80285  1.0000
  H   H3442     1.0  0.79475  0.63320  0.72291  1.0000
  C   C4303     1.0  0.67509  0.56763  0.81005  1.0000
  H   H3443     1.0  0.68850  0.65916  0.92587  1.0000
  H   H3444     1.0  0.68643  0.85932  0.75181  1.0000
  C   C4304     1.0  0.66622  0.58272  0.82124  1.0000
  H   H3445     1.0  0.72964  0.70361  0.75783  1.0000
  C   C4305     1.0  0.82160  0.49109  0.86686  1.0000
  H   H3446     1.0  0.91736  0.58591  0.73344  1.0000
  C   C4306     1.0  0.90184  0.48141  0.94474  1.0000
  H   H3447     1.0  0.67023  0.54421  0.79624  1.0000
  H   H3448     1.0  0.65512  0.74647  0.84727  1.0000
  H   H3449     1.0  0.95955  0.57569  0.92262  1.0000
  C   C4307     1.0  0.66214  0.84935  0.77321  1.0000
  C   C4308     1.0  0.66915  0.48431  0.86120  1.0000
  C   C4309     1.0  0.66333  0.55574  0.80500  1.0000
  H   H3450     1.0  0.71818  0.76155  0.73515  1.0000
  C   C4310     1.0  0.71014  0.63172  0.96653  1.0000
  C   C4311     1.0  0.77834  0.49061  0.84338  1.0000
  H   H3451     1.0  0.78431  0.74475  0.72911  1.0000
  C   C4312     1.0  0.79760  0.66315  0.72504  1.0000
  C   C4313     1.0  0.71417  0.77441  0.72446  1.0000
  C   C4314     1.0  0.90959  0.58246  0.72303  1.0000
  C   C4315     1.0  0.69200  0.57264  0.89099  1.0000
  H   H3452     1.0  0.69453  0.56686  0.90572  1.0000
  H   H3453     1.0  0.75194  0.47963  0.84108  1.0000
  C   C4316     1.0  0.76767  0.47972  0.83560  1.0000
  C   C4317     1.0  0.80826  0.47986  0.82135  1.0000
  C   C4318     1.0  0.67552  0.56865  0.88477  1.0000
  C   C4319     1.0  0.67181  0.57666  0.86599  1.0000
  S   S576      1.0  0.65366  0.71250  0.82912  1.0000
  H   H3454     1.0  0.66531  0.55975  0.89469  1.0000
  C   C4320     1.0  0.67084  0.48311  0.96927  1.0000
  H   H3455     1.0  0.65889  0.57342  0.86164  1.0000
  H   H3456     1.0  0.65494  0.65146  0.87887  1.0000
