data_image0
_chemical_formula_structural       FeS2H3PHCFeS2FeS2FeSFeS3CSHC8H4C2HCSH2C5H3CHC6H7CHCH2C4HPC18HC2HCH3CH7CHCHC5HCHFeH4CH3C2HFeHCHC2H2C6H4C2HC4HC6H3C2HC2PCH2C3HC2HC7H2C7H3SH3CH3C3H2C3H6SCH2CH4C4H4FeSCH2PC2HC4FeS2FeS2FeSFeS4CFeS2FeS2FeS2FeHFeS3FeS2FeS2FeSFeCS2FeS2H2FeS2FeSHFeS2C3H2CHC4HCH2C6H4C6H5C6H2CHC6H4CHC6H4C6H4C2HC2H3C4H2CHC2HCHC3SHCHC2H2CSC5H3C3HC4H2C2H3CHC2HCHC7H7CH7CHCHCH2C3PC10SH5CH5SHCHC2FeHCHCHPHC2HCHFeHC2HC2H2C3SCHCPHCHCHC2HC2HSHCH5C2H8CHC3PC8HCH5FeH3C2H2C2H5C5HCSHC2PCH4CHC2HCHCH3CHC2PC2H2C2HC3H3C2H2C3HC2H2PC9H3PCH7CHC6HC6H2C5H3C2H2PHCHCHC6H2CHC3H2C2HCHC3HC6HC2HC4H4SCHC4H2C2H2CH3CH3C5HC4HCHC2HC3H2SCHSH2CFeSPFeS2FeS2FeSFeS3FeS2HCHCHSC8H4CH2C2HC3H2C6H5C3HCH4C2H3CHCHCH2CHC2H3PC13HC3H3CH4C2PH2C4HC2H3C2FeHCH2C7HCHC3H2C2HC3H5CHCH2CHSHC3HC2H2C5PC4HCH2C2H3C2H4C3H3C2H2CHC2PCHC9H2CHCHCH3C2H3CHC4H4CH3C2H2C5HC6H7C3HCFeCHCH5SH3CHSC2HCFeSHSFeS2FeS2FeSFeS3CHSC6H4C2HCH3C6H4C2HSHCHC3H2PH2FeH2CHCHCHC2FeC2H2CHCH2C3HC4HC4HC2HC3HC3H2SCHCHCHC2HCH3C3HC2H3C3HCHC4HC3HCHP2HCH2C3H3SHC4HCHCHC2HC2HC2H2CHCH2C2HCHSHSCHC2H3C2H3C3H2PC2HC2HCH3CFeH2C8PCHC6H3C3HCH2CHPHC2HCHC2FeS2FeS2FeSFeS3HSCH2FeSHC4SHCHFeSHFeS2FeS2FeHFeS3FeS2FeS2FeCFeS3FeS2FeCSFeS2FeHFeS3FeCHC2SH2C6H4C6H2CHC6H5C7H4C6H4CFeCSCH2C3HCH2CH3CHC6H4C6H5C3HCH4CHC3HCHCH3C2H2CH2FeCH5SH2CH2CHC7PC3SH2C8H5SCH4SCH3PC13H10C2H3C5PCH2CH2C11HC3HCHC3HCH3CH3SH4C3HCHC4HCHCHPC4PC7HC6H2CH5CHCH2C4H3C2H2C7H3C2SCHC3HCHC3PCH3C4HC4H2CH2PHCH3C3HCPCHC2H3C5H3CHCHC2H2C2HC2HC4H2C2HC3H2C2HC2H2CH3CHFeHC2HC3HC3H3CHC2H2C4HC4H2C2HCHC3H3CHCH3C2HC2HCH3C2HCH2SHC2H3CH5C4H4C3H5CH4C2SHC2HCHCHCHC2H2FeHCHSC5H2P2CFe2SCSCFeS2FeS2FeSFeS3CS2C3H3C6H9C3H2C6H4C2HC2H2C4HC2HCHCH2C5HCH2CH2C4HC2HCHCHC3H2CHC6H2C4HSCHC5HCHC2HSCHC3H3SC4HC3H2C9PC9HC8H20PC2HC3HCH4C2HC6FeH2PHCHCH2SHC3H4PC2H3C2HCPH3FeCH4FeHSFeSH3S2FeHSCHC3SCFeS2FeS2FeSFeS3FeS2FeS2FeSFeS3HSCSFeCFeSC7H5CHCHC6H5C3H2C8H5CH2C8H4CH3CHCHCH2CHC3PC2HC9H12C2HC4HC4HCHCHSC4HC3HCHC9PC2HC3HCHC7HFeH4CHC3H5CHC4H7C6PC7HCHCH5PH6C4H3CHPCHC2SHC3HC3H2CHCHC2H4C5SHCHC2HC2HCPCHC3H2CHCH2C4H5C3HC2HC3PHC8HCH2CHC2HC4HCHCH3CHC2H4CH3C4H4CSC2HCHCH2CHC2PH4CH3CHCHC5FeH5CSCS3CSC3H2C7SHC4HCH3C6H2C3SH2C2H2CHCHC2H2CH2CH2C3HC2HCHC3H3C4H2PCH2C3SC3HCH2C2FeCH2C2HCH2CH3CH3FeC2HC3HC2HC2HCHC2H2C2H3CH2CH2C6SH2CH2FeS2HCFeS2CS2FeS2FeS2FeSFeS3FeS2FeS2FeSFeS3FeSCHSCFeSFeSCSC2H2C6H4C4HC2H2C6H4C2H3C3HC6H4CHC6H4CH6CH5CH2CHC2HC4PC15H11C4HC3H2C4HCHC2HCH3CH4C2H2CHCHSC4H2C2H2C3HSCFeC7PC2SCHC7HCH4CHCH5CH2SC3H3CH3C4PH4CH2C3HC2H2CHCHFeH3FeC2H2C4HC2HC2HC2PH3C2H2CPSH2C3H2CHC2H3C2HC3H3C4HCSH3C2FeH2CH2C5HC2H3SC2H3CH3FeC3SCH2CH2SHCSC2FeSHFeS2FeS2FeSFeS3FeS2FeS2FeSFeS5H2FeSCFeC2H2C6H6CH2C6H5C3H2CHC6H4C2HC10H4CH3C6H2CH5CHC2HCHC3HC2HC2H2CFeC2HPCH2CHC4H2CS2CFeC4H3C6PC18H20CH2CHC5PC7HCH2CH9CH2CSCHCHCHC6PC18H20SHC2SHC3HC3H2C5HC6HC3HSHCH4FeCPFeHCH2C4HC2H3C2H2CH3C3HC2H3C2HC2SH4C2H2CHCH2C2HCHSHS2CFeSC6HC5HCHCHC3HC2SCFeHC6H6C6HCH2C2H2SH2CH4CPC2H3CHPCHC6HC5HSCHCH2FeCHCPC2H2C5H2C2H2CHC6HFeCH5CH4C4HC3H3CHCH6C6PC6HC2HCHCH2CHC6SHCHC2H3CH2CHCH2CH2C4HSH2PH4C3H2CH2CHCH2C2H2CHC3H2CH4CSFeSCSFeS2FeS2FeSFeS3FeS2FeS2FeSFeS3HSCHSCFeSFeSHSC6HC6H4C8H4CHCHC4H2C6H6FeHC9H4C3HC3HCHC2H4C3HC2HCHCH2CHCHCHC2H2C6PC16HCH7CH7CHFeHCH6CH2CPCH5C4PCH3C3HCHC2H3FeSC2H4CPCHC2HCH2SHC3H2C2HC3HCH2C7PC18H7CH12C5H2CHC2HC2HC2HC2H3CHCHCH5C3H2CH3C3H2C2HC3H3C3HC2H4CHCHC2H2C3HCHCH3C2H5CSCSPHC2HC7H2CH4CH3FeHC2PC2HC5H2CHC3HCFeHSH2SC2FeCSC2SHFeS2FeS2FeSFeS3CSCSCFeSFeHSFeS2FeS2FeSFeHS2C2SHCFeH3CH2C6H4C6H5C2H2C6H5CHCH2SPHC7H5CHC4HCSFeH3CH2CHC2HC6PC10H11SCH2CHPC5HC13HCHCH3C2H7CHCHC2PC10H2C2H9SHPC19H17C4PC19HCH15C2H2CHFeCHC2H2PCHC2H2CHC2H4C2HC2FeHCH3C3H6CHC3HC3HCSCHC4HCHC4H2CH2C3H4C2HCHC2HC4HC3H4C2SC2H3C2H2PHC4FeCHCH2C4H3CHCHCHCH2CHC2H2CHCH2CHC2HFeHCH3CSCH2FeCFeCSHCS2H2FeHSH2CSC2SC2H5CSC6H2CHC6HCH3CHCH3CHC4HCHSHC2SC2SCHC2H3FeC2HCH2C2PC2HC4H5SC2HSC3HCH2SH3CHCH2C2SC2H2C2H2CHCH3FeHCH3C2FeHC7HCHCH2C2HPC2HCHCH2CHCHCH2C3SCFeHCHC7H5CH2C3HPH2C3HC2HC2HSHFeSH2SFeS2FeS2FeSFeS3HSHCSHFeSFeSCSFeS2FeS2FeSFeS3HCHCPCH2C11H4C6H4C3H2CFeHC6H4C6H11C4H4CSHCH2PC3HPCSHC2HC3HCH2SH2C12PC18H12CH7C2H2CHC3HC4H3C3H2C2H2C3H2CHCH2CHCHC4HC2H2CH2CHCSH2C4HC2HCH4CPC2H2CHCH2C2H2C2PC11HCH9CHC2HCH2CHCH2C3HC4HCHCFeHPC6H2CHCH2CH2CHCHCPC2HSHC4H2C2H3CHCPC2HC4HC2HC3H2C4H3C2HC4HFeCHC4HCH2C2HC3HC2H2C2H2C3FeHCH2CH2CHCH2C2H5C2HCSCSHFeSCSHSCFeSFeS2FeS2FeS2FeSFeS3FeS2FeS2FeSFeS3HC4HCH4C2HC6H4C3HC9H4C3PC8H4CHC10H6C2PH3CHC4H2C2H2CPC3H7C3SHC2HC2HFeHC2H2C2H3C4HC11H6CH3C6H7CSC4HC8HCHFeC3H4CH3CHCSC2HCH2CHCHC2HC2HCH2SC3HC2H2CH2CPHC5PHC2HCHC3H2C4HC2HFeH2PH3PHC2H2C6H3CH3CSH3CHCHCH8CHC2HCHC3HCH2C2HCH2CHC2HC3PH3CH3CHC2FeCHCHC2HC2H3C6H3CH2C4H2CHSH4C2HC2FeHSCSC2SHCFeHSHCSHCHCH2C2HC2H3C6HCH2SH2CHC5H2PC5HCHCHC3HPC2PHCH2C5HC2HC2H3PHC4HSH3C3HSC2HC4H3CSPCH2C5H2C3H3C2HCHSHCHC2HCHC2HCHCH4C4HC3HCHSCH2CSCHC2HC2H2C2FeC5HC4H3CHC6H2C3H2C4H3C4H2CHCH2CHCHCHC3FeHC3HCHC2H2CH2CH3C2H2FeH3CHC2H2CH3CHCPHSCHC3HC4H3SC3H2FeHSCS2H2SC2S2FeSFeCSCFeS2FeS2FeSFeS3FeSHFeS2FeSFeS3HC6H4C2H2CH3C6H4CHCH2C6H4CH2CHC11H4CPHPH5CH2CH6C2H2CHCH4C5H3C4HCHCHCHC3H3CHC2H2CHCPC12HFeCSHCHC2HCH4C2H4C4HSC2HC3H2CPHC2H3C6PC4HC3HC9H8CHC2H4CPH2CHC7HCH3C4HC3PC2HC7H2C4H2C3H5CH5CHC2HCHC8SC2HC2HC2HC6H2C2FeHCH3C2HC3H5CH3CH3C3HC9HC2HCH2FeH2CHC2H2SCH2CHCHCH2SCFeCH2CHC2HS2HCSFeS2FeS2FeSFeS3C4H2C4HCHC6H6C6H4CSCHCFeHCHC4H2CH2CHCHPHCH3CHCHCHCHCH6C2HC9PC12H5CFeH5CHSH4C2HC3HCHCHC2HC2H2CH2C2HC2H3PC2H2CH3C5HCH4CHCH2SHCH3CHCFeS2FeS2FeSFeS3CHSCSHC2HFeS2C3H2CFeS2FeS2FeSFeS3FeS2FeS2FeSFePS2FeS2FeSH2SCH2C7H4C9H4C5H3CHCHC7H7C6H5C9H4C6H4CH2CHC2HCH4CHCHCPC3HCHSHSHCHCHC3H4SHC4H5CH2FeCFePC12H2C4HCH2CH2C3H4CHCH2CH2C2H2C4HC4H2CH3CH5C8PC18H17CH2CHC6H2CHC2H2CH2CPC2H3CHCH2CH2C3HCHPHCH2CH2CHCHC2HCH3CH2C2HCHC5HCHCHC2SCPCH2C2HC3H2C2HC3H4CH2C3H2C2HCH2PCHCHCHC3HC5HC2HCH2CHC2HC5H2C2H2FeHCHFeCHPH2CHSHPC10SC3HC4H4C5H2CH2C2HC4HC2HC2H5C2HC4SHC2H2C7H2CFeHCSCHFeSCSPCSFeS2FeS2FeSFeS3C5H3C4H3CHC6H6CSC6H6C11PC7H3C8H10CHCH5CHC2HC2HC4HCHC4HCH2CHC2HCFeHCH2C2H2C2HCHC3SC6HC2H3C3HCHCPHCH2CH7C2H2C3HPHPH2C2H3C4H2C4HCHCH2CPC2H7C4H6CHCH2C5H2C4HCH4C5HCHSCH2CHCH2CHCHC4H2C3HCHCH5FeS2HFeS2FeS2FeSFeS4C4H2C6H8C6H5C4SHCH2CHPCHC5H4CHC3HC2HC3HC5H2CHC3H3C3H2C4HC3H2CH5C3HC13PHC2H4FeC6HC3HPCH3C2HCH8C2HC2H3CHC4PCHCHC4HC3SH2C5H3CHPCHCHFeS2FeS2FeSFeS3FeCSFeHCHS2HS2FeSCFeCSFeS2FeS2FeS2FeSFeS3FeS2FeS2FeSFeS3FeS2C4FeSCSCH3C6H4C6H4C7H2FeH3CSH2C6H5C7H8C3H2C6H4C6H4CH3C2SH2C5H2PHSC2H2FeCH2CPC5HC6H2C7H4CH7CH2C2H4CHC3HCSCH4C2HSHSHC2H3CHC2HC6H3CHC2HC4H2C2H2CHC6PC15H2CH16CHCHPC2PC18H13CH2CHC3HCHCHCH2CH4CH2C3HCH2CH2C2HC3H2C3HSC2HC2H4S2C2HC5HCHCHCPH3C2H2C2HCHC3FeC6H2C3H2CPCH4C4HC2FeHCHCH3FeH4CH2CHC2HCHC4HCHCHCHC6H3C3HCHCH4CSC2H2C4H2CH2CH3C2HC4H2CH4FeSFeS2FeS2FeSFeS3H3FeSC3H2C6H6C3HC2H3C7H4CH2C3HCH2C2H3CH2C2HCPC2H3C2H2C4H2C6HC4HC5H2C4SCHCHC2H3CHCHC3HCHCH8C2H2C5HC4HCPCHCHSCH3CHCH4CHC2HC4HCSC2HCSC
_chemical_formula_sum              "Fe288 S576 H3456 P144 C4320"
_cell_length_a       72.56
_cell_length_b       72.4567
_cell_length_c       72.5272
_cell_angle_alpha    84.6509
_cell_angle_beta     85.5355
_cell_angle_gamma    85.2024

_space_group_name_H-M_alt    "P 1"
_space_group_IT_number       1

loop_
  _space_group_symop_operation_xyz
  'x, y, z'

loop_
  _atom_site_type_symbol
  _atom_site_label
  _atom_site_symmetry_multiplicity
  _atom_site_fract_x
  _atom_site_fract_y
  _atom_site_fract_z
  _atom_site_occupancy
  Fe  Fe1       1.0  0.02757  0.39974  0.08785  1.0000
  S   S1        1.0  0.02110  0.41060  0.05878  1.0000
  S   S2        1.0  0.05855  0.39910  0.09195  1.0000
  H   H1        1.0  0.07606  0.41754  0.25302  1.0000
  H   H2        1.0  0.06855  0.42172  0.19015  1.0000
  H   H3        1.0  0.07084  0.42302  0.15592  1.0000
  P   P1        1.0  0.09338  0.43176  0.21695  1.0000
  H   H4        1.0  0.09877  0.43422  0.13797  1.0000
  C   C1        1.0  0.06384  0.45924  0.21383  1.0000
  Fe  Fe2       1.0  0.13216  0.38509  0.16928  1.0000
  S   S3        1.0  0.13592  0.40189  0.19299  1.0000
  S   S4        1.0  0.10208  0.38039  0.16520  1.0000
  Fe  Fe3       1.0  0.17463  0.37696  0.16175  1.0000
  S   S5        1.0  0.18079  0.39306  0.18549  1.0000
  S   S6        1.0  0.19446  0.36610  0.13793  1.0000
  Fe  Fe4       1.0  0.15685  0.37878  0.20184  1.0000
  S   S7        1.0  0.15668  0.36832  0.23303  1.0000
  Fe  Fe5       1.0  0.15898  0.41487  0.17514  1.0000
  S   S8        1.0  0.16094  0.44595  0.16568  1.0000
  S   S9        1.0  0.15230  0.36129  0.17867  1.0000
  S   S10       1.0  0.15372  0.39936  0.15076  1.0000
  C   C2        1.0  0.20525  0.47222  0.13969  1.0000
  S   S11       1.0  0.10419  0.31737  0.28916  1.0000
  H   H5        1.0  0.14413  0.46867  0.23066  1.0000
  C   C3        1.0  0.14363  0.42180  0.23985  1.0000
  C   C4        1.0  0.07840  0.23921  0.29011  1.0000
  C   C5        1.0  0.14168  0.35430  0.24839  1.0000
  C   C6        1.0  0.14500  0.35132  0.26740  1.0000
  C   C7        1.0  0.13370  0.34028  0.28007  1.0000
  C   C8        1.0  0.11885  0.33188  0.27395  1.0000
  C   C9        1.0  0.11556  0.33480  0.25493  1.0000
  C   C10       1.0  0.12679  0.34593  0.24228  1.0000
  H   H6        1.0  0.15642  0.35764  0.27240  1.0000
  H   H7        1.0  0.13652  0.33826  0.29458  1.0000
  H   H8        1.0  0.10421  0.32838  0.24991  1.0000
  H   H9        1.0  0.12401  0.34794  0.22776  1.0000
  C   C11       1.0  0.21798  0.35695  0.13378  1.0000
  C   C12       1.0  0.05276  0.47895  0.23822  1.0000
  H   H10       1.0  0.05454  0.36437  0.07599  1.0000
  C   C13       1.0  0.23015  0.35286  0.14793  1.0000
  S   S12       1.0  0.00806  0.37690  0.08883  1.0000
  H   H11       1.0  0.04609  0.35041  0.01427  1.0000
  H   H12       1.0  0.22536  0.35527  0.16207  1.0000
  C   C14       1.0  0.16311  0.46688  0.17615  1.0000
  C   C15       1.0  0.16861  0.46697  0.19419  1.0000
  C   C16       1.0  0.15991  0.48401  0.16557  1.0000
  C   C17       1.0  0.08047  0.42743  0.18245  1.0000
  C   C18       1.0  0.13449  0.27428  0.27283  1.0000
  H   H13       1.0  0.15349  0.17106  0.30125  1.0000
  H   H14       1.0  0.17142  0.45392  0.20238  1.0000
  H   H15       1.0  0.04893  0.23652  0.29420  1.0000
  C   C19       1.0  0.04846  0.39716  0.01279  1.0000
  H   H16       1.0  0.06288  0.45563  0.19983  1.0000
  C   C20       1.0  0.06994  0.39523  0.11288  1.0000
  C   C21       1.0  0.08887  0.39822  0.11246  1.0000
  C   C22       1.0  0.09882  0.39415  0.12847  1.0000
  C   C23       1.0  0.08996  0.38682  0.14499  1.0000
  C   C24       1.0  0.07090  0.38428  0.14553  1.0000
  C   C25       1.0  0.06091  0.38847  0.12957  1.0000
  H   H17       1.0  0.09596  0.40346  0.09961  1.0000
  H   H18       1.0  0.11342  0.39636  0.12797  1.0000
  H   H19       1.0  0.06386  0.37887  0.15832  1.0000
  H   H20       1.0  0.04635  0.38609  0.13008  1.0000
  H   H21       1.0  0.08473  0.31724  0.05309  1.0000
  H   H22       1.0  0.09970  0.26241  0.13723  1.0000
  H   H23       1.0  0.21533  0.35650  0.10443  1.0000
  C   C26       1.0  0.11946  0.22629  0.30746  1.0000
  H   H24       1.0  0.17507  0.48389  0.21551  1.0000
  C   C27       1.0  0.10844  0.49191  0.16358  1.0000
  H   H25       1.0  0.04915  0.43290  0.11374  1.0000
  H   H26       1.0  0.15451  0.13090  0.30959  1.0000
  C   C28       1.0  0.04262  0.47664  0.12790  1.0000
  C   C29       1.0  0.23011  0.47211  0.11544  1.0000
  C   C30       1.0  0.08950  0.33822  0.15251  1.0000
  C   C31       1.0  0.08351  0.33304  0.13593  1.0000
  H   H27       1.0  0.03133  0.48649  0.13192  1.0000
  P   P2        1.0  0.09983  0.32941  0.11619  1.0000
  C   C32       1.0  0.11853  0.34452  0.11577  1.0000
  C   C33       1.0  0.10955  0.30559  0.11807  1.0000
  C   C34       1.0  0.12700  0.30086  0.10923  1.0000
  C   C35       1.0  0.13459  0.28244  0.11060  1.0000
  C   C36       1.0  0.12477  0.26859  0.12071  1.0000
  C   C37       1.0  0.10733  0.27315  0.12942  1.0000
  C   C38       1.0  0.09972  0.29158  0.12810  1.0000
  C   C39       1.0  0.13287  0.34003  0.12778  1.0000
  C   C40       1.0  0.14765  0.35131  0.12726  1.0000
  C   C41       1.0  0.14831  0.36712  0.11474  1.0000
  C   C42       1.0  0.13416  0.37169  0.10272  1.0000
  C   C43       1.0  0.11929  0.36047  0.10323  1.0000
  C   C44       1.0  0.08788  0.33409  0.09507  1.0000
  C   C45       1.0  0.09157  0.32262  0.08041  1.0000
  C   C46       1.0  0.08191  0.32617  0.06432  1.0000
  C   C47       1.0  0.06853  0.34117  0.06274  1.0000
  C   C48       1.0  0.06488  0.35269  0.07720  1.0000
  C   C49       1.0  0.07454  0.34921  0.09326  1.0000
  H   H28       1.0  0.14585  0.21361  0.29701  1.0000
  C   C50       1.0  0.06101  0.48170  0.12574  1.0000
  C   C51       1.0  0.07497  0.46908  0.11867  1.0000
  H   H29       1.0  0.10372  0.34118  0.15355  1.0000
  C   C52       1.0  0.05230  0.33164  0.15070  1.0000
  H   H30       1.0  0.13476  0.31142  0.10126  1.0000
  H   H31       1.0  0.14812  0.27893  0.10386  1.0000
  H   H32       1.0  0.13068  0.25432  0.12179  1.0000
  C   C53       1.0  0.16528  0.16918  0.29136  1.0000
  H   H33       1.0  0.08619  0.29480  0.13494  1.0000
  H   H34       1.0  0.13262  0.32785  0.13763  1.0000
  H   H35       1.0  0.15862  0.34789  0.13664  1.0000
  H   H36       1.0  0.15977  0.37587  0.11453  1.0000
  H   H37       1.0  0.13453  0.38413  0.09323  1.0000
  H   H38       1.0  0.10837  0.36450  0.09399  1.0000
  H   H39       1.0  0.10182  0.31091  0.08134  1.0000
  C   C54       1.0  0.19527  0.16482  0.26514  1.0000
  H   H40       1.0  0.07154  0.35832  0.10431  1.0000
  C   C55       1.0  0.08627  0.40910  0.22595  1.0000
  H   H41       1.0  0.21000  0.15055  0.28732  1.0000
  C   C56       1.0  0.04906  0.36435  0.00877  1.0000
  C   C57       1.0  0.15181  0.29244  0.29083  1.0000
  C   C58       1.0  0.99408  0.37162  0.99845  1.0000
  C   C59       1.0  0.06484  0.32943  0.13526  1.0000
  C   C60       1.0  0.07578  0.38813  0.25213  1.0000
  H   H42       1.0  0.08168  0.34491  0.18046  1.0000
  C   C61       1.0  0.15001  0.22159  0.24494  1.0000
  H   H43       1.0  0.04172  0.48090  0.21133  1.0000
  Fe  Fe6       1.0  0.99856  0.42870  0.07227  1.0000
  H   H44       1.0  0.23835  0.46504  0.10474  1.0000
  H   H45       1.0  0.05989  0.32500  0.12281  1.0000
  H   H46       1.0  0.17737  0.17974  0.24554  1.0000
  H   H47       1.0  0.06674  0.47395  0.26355  1.0000
  C   C62       1.0  0.09052  0.39373  0.21548  1.0000
  H   H48       1.0  0.12875  0.27252  0.25982  1.0000
  H   H49       1.0  0.09790  0.28059  0.28050  1.0000
  H   H50       1.0  0.06096  0.34391  0.05035  1.0000
  C   C63       1.0  0.08010  0.37296  0.24159  1.0000
  C   C64       1.0  0.13806  0.26491  0.30536  1.0000
  H   H51       1.0  0.99435  0.47902  0.12260  1.0000
  Fe  Fe7       1.0  0.00003  0.38962  0.06052  1.0000
  H   H52       1.0  0.07051  0.38583  0.26649  1.0000
  C   C65       1.0  0.01557  0.45142  0.01035  1.0000
  H   H53       1.0  0.15580  0.48413  0.15153  1.0000
  C   C66       1.0  0.00382  0.29350  0.31639  1.0000
  C   C67       1.0  0.13762  0.21322  0.23513  1.0000
  H   H54       1.0  0.15933  0.30457  0.29186  1.0000
  H   H55       1.0  0.03369  0.29340  0.31681  1.0000
  C   C68       1.0  0.06585  0.46978  0.24970  1.0000
  C   C69       1.0  0.99720  0.48250  0.10788  1.0000
  C   C70       1.0  0.08736  0.37579  0.22324  1.0000
  C   C71       1.0  0.16365  0.17638  0.27294  1.0000
  C   C72       1.0  0.05514  0.40064  0.99429  1.0000
  C   C73       1.0  0.02464  0.45741  0.99341  1.0000
  H   H56       1.0  0.21643  0.39877  0.14775  1.0000
  H   H57       1.0  0.06533  0.29222  0.28209  1.0000
  H   H58       1.0  0.09111  0.36404  0.21511  1.0000
  H   H59       1.0  0.18376  0.19203  0.31410  1.0000
  C   C74       1.0  0.00237  0.40072  0.00797  1.0000
  C   C75       1.0  0.13915  0.45491  0.23149  1.0000
  H   H60       1.0  0.04517  0.40856  0.02145  1.0000
  C   C76       1.0  0.05176  0.47368  0.22029  1.0000
  C   C77       1.0  0.99830  0.47419  0.07616  1.0000
  C   C78       1.0  0.12466  0.23151  0.26668  1.0000
  C   C79       1.0  0.09251  0.25150  0.28640  1.0000
  H   H61       1.0  0.16458  0.22125  0.24026  1.0000
  C   C80       1.0  0.99633  0.45056  0.01178  1.0000
  C   C81       1.0  0.22934  0.42290  0.15430  1.0000
  C   C82       1.0  0.13084  0.26197  0.28860  1.0000
  C   C83       1.0  0.06889  0.27736  0.28399  1.0000
  C   C84       1.0  0.14849  0.28008  0.30648  1.0000
  C   C85       1.0  0.12208  0.45248  0.22471  1.0000
  H   H62       1.0  0.16339  0.44139  0.24384  1.0000
  H   H63       1.0  0.09679  0.39542  0.20146  1.0000
  H   H64       1.0  0.03937  0.37652  0.03412  1.0000
  C   C86       1.0  0.09476  0.43356  0.19181  1.0000
  C   C87       1.0  0.11882  0.21382  0.24113  1.0000
  H   H65       1.0  0.23690  0.41013  0.06455  1.0000
  C   C88       1.0  0.05499  0.26508  0.28798  1.0000
  C   C89       1.0  0.11559  0.43467  0.22556  1.0000
  P   P3        1.0  0.11665  0.24282  0.28735  1.0000
  C   C90       1.0  0.14491  0.28947  0.27398  1.0000
  H   H66       1.0  0.15341  0.23698  0.26816  1.0000
  H   H67       1.0  0.14703  0.29942  0.26202  1.0000
  C   C91       1.0  0.14999  0.43956  0.23894  1.0000
  C   C92       1.0  0.12643  0.41936  0.23337  1.0000
  C   C93       1.0  0.05974  0.24599  0.29091  1.0000
  H   H68       1.0  0.12198  0.40538  0.23413  1.0000
  C   C94       1.0  0.08170  0.42815  0.16306  1.0000
  C   C95       1.0  0.07705  0.44991  0.22528  1.0000
  H   H69       1.0  0.07820  0.35897  0.24779  1.0000
  C   C96       1.0  0.05836  0.33709  0.16704  1.0000
  C   C97       1.0  0.07890  0.40612  0.24439  1.0000
  C   C98       1.0  0.09738  0.43456  0.15289  1.0000
  C   C99       1.0  0.14359  0.23060  0.26071  1.0000
  C   C100      1.0  0.08754  0.27062  0.28308  1.0000
  C   C101      1.0  0.17864  0.17419  0.25983  1.0000
  C   C102      1.0  0.19696  0.15762  0.28358  1.0000
  H   H70       1.0  0.15209  0.40978  0.24537  1.0000
  H   H71       1.0  0.11403  0.46448  0.21864  1.0000
  C   C103      1.0  0.22458  0.35355  0.11551  1.0000
  C   C104      1.0  0.11156  0.44083  0.16204  1.0000
  C   C105      1.0  0.03846  0.45899  0.12389  1.0000
  C   C106      1.0  0.05249  0.44641  0.11726  1.0000
  C   C107      1.0  0.07071  0.45149  0.11453  1.0000
  C   C108      1.0  0.11235  0.22288  0.25686  1.0000
  C   C109      1.0  0.07798  0.45536  0.24326  1.0000
  H   H72       1.0  0.02424  0.45525  0.12533  1.0000
  H   H73       1.0  0.22465  0.14429  0.31603  1.0000
  H   H74       1.0  0.08821  0.44858  0.25228  1.0000
  S   S13       1.0  0.99720  0.37251  0.03610  1.0000
  H   H75       1.0  0.12386  0.44553  0.15413  1.0000
  H   H76       1.0  0.14256  0.20638  0.22282  1.0000
  H   H77       1.0  0.15073  0.18365  0.26886  1.0000
  C   C110      1.0  0.21615  0.46303  0.12612  1.0000
  H   H78       1.0  0.21359  0.44892  0.12379  1.0000
  H   H79       1.0  0.09020  0.47672  0.14999  1.0000
  H   H80       1.0  0.15354  0.28250  0.31967  1.0000
  C   C111      1.0  0.00374  0.49186  0.06979  1.0000
  C   C112      1.0  0.21880  0.13104  0.31952  1.0000
  C   C113      1.0  0.11022  0.44052  0.18140  1.0000
  H   H81       1.0  0.08141  0.44186  0.10882  1.0000
  H   H82       1.0  0.04056  0.27040  0.28909  1.0000
  C   C114      1.0  0.13520  0.21362  0.30829  1.0000
  C   C115      1.0  0.99798  0.38238  0.01268  1.0000
  C   C116      1.0  0.18196  0.15970  0.29687  1.0000
  H   H83       1.0  0.08905  0.47303  0.11590  1.0000
  H   H84       1.0  0.09774  0.22324  0.26115  1.0000
  H   H85       1.0  0.04863  0.33905  0.17893  1.0000
  H   H86       1.0  0.21762  0.42767  0.16334  1.0000
  H   H87       1.0  0.02334  0.44736  0.02246  1.0000
  H   H88       1.0  0.13532  0.25577  0.31771  1.0000
  S   S14       1.0  0.00635  0.41953  0.10114  1.0000
  C   C117      1.0  0.10647  0.22663  0.32287  1.0000
  H   H89       1.0  0.12168  0.44504  0.18809  1.0000
  H   H90       1.0  0.10919  0.20739  0.23349  1.0000
  C   C118      1.0  0.04528  0.37906  0.01999  1.0000
  H   H91       1.0  0.08183  0.22444  0.29292  1.0000
  H   H92       1.0  0.20691  0.16313  0.25498  1.0000
  H   H93       1.0  0.03784  0.32924  0.14994  1.0000
  H   H94       1.0  0.19423  0.46524  0.14776  1.0000
  C   C119      1.0  0.07697  0.34027  0.16796  1.0000
  C   C120      1.0  0.99499  0.46952  0.09521  1.0000
  C   C121      1.0  0.22863  0.40666  0.14550  1.0000
  C   C122      1.0  0.17075  0.48399  0.20156  1.0000
  H   H95       1.0  0.04346  0.49021  0.24317  1.0000
  H   H96       1.0  0.00367  0.29882  0.30196  1.0000
  H   H97       1.0  0.00554  0.40911  0.01870  1.0000
  H   H98       1.0  0.11536  0.47957  0.17034  1.0000
  Fe  Fe8       1.0  0.10103  0.30662  0.32041  1.0000
  S   S15       1.0  0.99532  0.45830  0.06010  1.0000
  C   C123      1.0  0.09437  0.49037  0.15176  1.0000
  H   H99       1.0  0.03955  0.45804  0.99229  1.0000
  H   H100      1.0  0.09475  0.23686  0.32317  1.0000
  P   P4        1.0  0.18422  0.15115  0.32094  1.0000
  C   C124      1.0  0.20827  0.49050  0.14260  1.0000
  C   C125      1.0  0.14982  0.13643  0.32267  1.0000
  H   H101      1.0  0.12346  0.12448  0.32402  1.0000
  C   C126      1.0  0.19955  0.13008  0.32289  1.0000
  C   C127      1.0  0.23080  0.11494  0.32128  1.0000
  C   C128      1.0  0.23314  0.49043  0.11829  1.0000
  C   C129      1.0  0.13758  0.20120  0.32407  1.0000
  Fe  Fe9       1.0  0.07641  0.37322  0.48417  1.0000
  S   S16       1.0  0.07361  0.36123  0.51402  1.0000
  S   S17       1.0  0.07564  0.34989  0.46503  1.0000
  Fe  Fe10      1.0  0.07555  0.41368  0.49579  1.0000
  S   S18       1.0  0.07310  0.40402  0.52625  1.0000
  S   S19       1.0  0.06880  0.44441  0.48574  1.0000
  Fe  Fe11      1.0  0.09422  0.38094  0.51922  1.0000
  S   S20       1.0  0.11810  0.37213  0.53715  1.0000
  Fe  Fe12      1.0  0.05266  0.38497  0.51867  1.0000
  S   S21       1.0  0.02590  0.38112  0.53602  1.0000
  S   S22       1.0  0.09876  0.39180  0.48902  1.0000
  S   S23       1.0  0.05356  0.39569  0.48871  1.0000
  S   S24       1.0  0.10731  0.02835  0.38437  1.0000
  C   C130      1.0  0.12254  0.11529  0.54380  1.0000
  Fe  Fe13      1.0  0.09479  0.01305  0.58743  1.0000
  S   S25       1.0  0.09926  0.04394  0.58744  1.0000
  S   S26       1.0  0.07942  0.00944  0.56249  1.0000
  Fe  Fe14      1.0  0.18064  0.10328  0.40485  1.0000
  S   S27       1.0  0.21073  0.10304  0.41070  1.0000
  S   S28       1.0  0.16867  0.07520  0.41300  1.0000
  Fe  Fe15      1.0  0.17660  0.14625  0.39849  1.0000
  S   S29       1.0  0.20635  0.14840  0.40461  1.0000
  S   S30       1.0  0.15305  0.16982  0.39580  1.0000
  Fe  Fe16      1.0  0.21365  0.12451  0.38654  1.0000
  H   H102      1.0  0.19764  0.21559  0.32988  1.0000
  Fe  Fe17      1.0  0.20153  0.12647  0.42833  1.0000
  S   S31       1.0  0.21377  0.12294  0.45668  1.0000
  S   S32       1.0  0.18384  0.12339  0.37913  1.0000
  S   S33       1.0  0.17156  0.12580  0.42360  1.0000
  Fe  Fe18      1.0  0.17461  0.11594  0.60158  1.0000
  S   S34       1.0  0.19995  0.11419  0.58177  1.0000
  S   S35       1.0  0.16397  0.08800  0.61305  1.0000
  Fe  Fe19      1.0  0.17458  0.15865  0.60242  1.0000
  S   S36       1.0  0.20034  0.15894  0.58278  1.0000
  S   S37       1.0  0.16229  0.18843  0.60782  1.0000
  Fe  Fe20      1.0  0.18682  0.13967  0.56632  1.0000
  S   S38       1.0  0.18034  0.14615  0.53584  1.0000
  Fe  Fe21      1.0  0.21154  0.13332  0.60002  1.0000
  C   C131      1.0  0.18878  0.06427  0.49220  1.0000
  S   S39       1.0  0.16061  0.14028  0.58515  1.0000
  S   S40       1.0  0.18669  0.13416  0.62069  1.0000
  Fe  Fe22      1.0  0.10244  0.31309  0.63874  1.0000
  S   S41       1.0  0.08534  0.29098  0.63089  1.0000
  S   S42       1.0  0.12007  0.33162  0.61886  1.0000
  H   H103      1.0  0.13428  0.42726  0.59222  1.0000
  H   H104      1.0  0.05250  0.31206  0.60885  1.0000
  Fe  Fe23      1.0  0.11290  0.27570  0.35140  1.0000
  S   S43       1.0  0.12113  0.30503  0.34282  1.0000
  S   S44       1.0  0.13652  0.25228  0.35581  1.0000
  Fe  Fe24      1.0  0.07138  0.28810  0.34759  1.0000
  S   S45       1.0  0.07695  0.31783  0.33894  1.0000
  H   H105      1.0  0.05313  0.04137  0.42984  1.0000
  Fe  Fe25      1.0  0.09662  0.31451  0.36188  1.0000
  S   S46       1.0  0.09810  0.33922  0.37925  1.0000
  S   S47       1.0  0.08975  0.28534  0.37177  1.0000
  C   C132      1.0  0.02138  0.28309  0.34328  1.0000
  C   C133      1.0  0.12607  0.13957  0.34776  1.0000
  C   C134      1.0  0.19816  0.02658  0.58627  1.0000
  H   H106      1.0  0.11589  0.16466  0.54647  1.0000
  H   H107      1.0  0.11295  0.01793  0.46567  1.0000
  C   C135      1.0  0.12156  0.22710  0.64233  1.0000
  H   H108      1.0  0.03802  0.45422  0.38469  1.0000
  C   C136      1.0  0.13624  0.19587  0.63748  1.0000
  C   C137      1.0  0.14666  0.20290  0.62170  1.0000
  C   C138      1.0  0.14449  0.22215  0.61643  1.0000
  C   C139      1.0  0.13208  0.23416  0.62666  1.0000
  H   H109      1.0  0.18983  0.02223  0.57591  1.0000
  C   C140      1.0  0.13195  0.49019  0.58327  1.0000
  H   H110      1.0  0.11015  0.05030  0.43338  1.0000
  H   H111      1.0  0.99570  0.08210  0.40353  1.0000
  C   C141      1.0  0.14885  0.19280  0.38463  1.0000
  C   C142      1.0  0.16219  0.20151  0.37267  1.0000
  C   C143      1.0  0.15817  0.21964  0.36413  1.0000
  C   C144      1.0  0.14074  0.22945  0.36736  1.0000
  C   C145      1.0  0.12742  0.22077  0.37943  1.0000
  C   C146      1.0  0.13146  0.20262  0.38795  1.0000
  H   H112      1.0  0.17561  0.19427  0.37009  1.0000
  H   H113      1.0  0.16864  0.22616  0.35493  1.0000
  H   H114      1.0  0.11400  0.22804  0.38219  1.0000
  H   H115      1.0  0.12099  0.19615  0.39722  1.0000
  C   C147      1.0  0.20351  0.12824  0.47878  1.0000
  C   C148      1.0  0.21347  0.12301  0.49458  1.0000
  C   C149      1.0  0.20629  0.12769  0.51232  1.0000
  C   C150      1.0  0.18914  0.13786  0.51437  1.0000
  C   C151      1.0  0.17904  0.14281  0.49862  1.0000
  C   C152      1.0  0.18611  0.13795  0.48092  1.0000
  H   H116      1.0  0.22699  0.11559  0.49303  1.0000
  H   H117      1.0  0.21430  0.12404  0.52427  1.0000
  H   H118      1.0  0.16579  0.15076  0.50005  1.0000
  H   H119      1.0  0.17830  0.14204  0.46890  1.0000
  H   H120      1.0  0.13355  0.12988  0.44767  1.0000
  C   C153      1.0  0.11858  0.05511  0.59338  1.0000
  C   C154      1.0  0.12968  0.04751  0.60752  1.0000
  C   C155      1.0  0.14371  0.05767  0.61311  1.0000
  C   C156      1.0  0.14698  0.07542  0.60449  1.0000
  C   C157      1.0  0.13626  0.08281  0.58995  1.0000
  C   C158      1.0  0.12195  0.07281  0.58463  1.0000
  H   H121      1.0  0.12673  0.03429  0.61486  1.0000
  H   H122      1.0  0.15170  0.05200  0.62460  1.0000
  C   C159      1.0  0.08021  0.18639  0.54978  1.0000
  H   H123      1.0  0.02954  0.42396  0.40054  1.0000
  C   C160      1.0  0.12431  0.04140  0.39246  1.0000
  C   C161      1.0  0.12753  0.05913  0.38366  1.0000
  C   C162      1.0  0.14101  0.06978  0.38968  1.0000
  C   C163      1.0  0.15151  0.06270  0.40450  1.0000
  C   C164      1.0  0.14827  0.04500  0.41325  1.0000
  C   C165      1.0  0.13477  0.03443  0.40731  1.0000
  H   H124      1.0  0.11956  0.06463  0.37211  1.0000
  H   H125      1.0  0.14334  0.08337  0.38281  1.0000
  H   H126      1.0  0.15638  0.03934  0.42460  1.0000
  H   H127      1.0  0.13262  0.02080  0.41414  1.0000
  C   C166      1.0  0.05611  0.31533  0.59421  1.0000
  H   H128      1.0  0.12840  0.07330  0.52592  1.0000
  C   C167      1.0  0.08209  0.34735  0.44112  1.0000
  C   C168      1.0  0.07962  0.33036  0.43398  1.0000
  C   C169      1.0  0.08435  0.32762  0.41513  1.0000
  C   C170      1.0  0.09170  0.34186  0.40314  1.0000
  C   C171      1.0  0.09415  0.35885  0.41028  1.0000
  C   C172      1.0  0.08939  0.36161  0.42914  1.0000
  H   H129      1.0  0.07404  0.31920  0.44310  1.0000
  H   H130      1.0  0.08245  0.31447  0.40988  1.0000
  H   H131      1.0  0.09988  0.36994  0.40115  1.0000
  H   H132      1.0  0.09139  0.37473  0.43439  1.0000
  C   C173      1.0  0.11705  0.36038  0.55971  1.0000
  C   C174      1.0  0.13349  0.35788  0.56877  1.0000
  C   C175      1.0  0.13389  0.34894  0.58670  1.0000
  C   C176      1.0  0.11790  0.34213  0.59596  1.0000
  C   C177      1.0  0.10121  0.34454  0.58703  1.0000
  C   C178      1.0  0.10081  0.35362  0.56883  1.0000
  H   H133      1.0  0.14608  0.36300  0.56190  1.0000
  H   H134      1.0  0.14680  0.34729  0.59343  1.0000
  H   H135      1.0  0.08871  0.33951  0.59413  1.0000
  H   H136      1.0  0.08803  0.35555  0.56193  1.0000
  C   C179      1.0  0.12957  0.11606  0.45252  1.0000
  C   C180      1.0  0.09120  0.06770  0.50437  1.0000
  H   H137      1.0  0.99588  0.22685  0.33861  1.0000
  C   C181      1.0  0.07991  0.46491  0.48854  1.0000
  C   C182      1.0  0.09832  0.46438  0.49312  1.0000
  H   H138      1.0  0.15732  0.00688  0.51567  1.0000
  H   H139      1.0  0.22366  0.02457  0.56902  1.0000
  H   H140      1.0  0.10622  0.45111  0.49518  1.0000
  C   C183      1.0  0.07940  0.99656  0.48171  1.0000
  C   C184      1.0  0.01571  0.36807  0.50456  1.0000
  C   C185      1.0  0.00968  0.37440  0.52177  1.0000
  C   C186      1.0  0.08520  0.23152  0.61413  1.0000
  H   H141      1.0  0.03033  0.36621  0.50049  1.0000
  H   H142      1.0  0.11186  0.02682  0.53665  1.0000
  C   C187      1.0  0.15212  0.04520  0.55000  1.0000
  H   H143      1.0  0.03541  0.40420  0.45407  1.0000
  C   C188      1.0  0.13747  0.15002  0.35663  1.0000
  C   C189      1.0  0.15511  0.15366  0.34861  1.0000
  H   H144      1.0  0.23315  0.08542  0.32870  1.0000
  C   C190      1.0  0.02088  0.29047  0.32478  1.0000
  H   H145      1.0  0.99777  0.40696  0.50014  1.0000
  C   C191      1.0  0.07000  0.48237  0.48552  1.0000
  C   C192      1.0  0.04174  0.31608  0.39191  1.0000
  C   C193      1.0  0.16140  0.14691  0.33153  1.0000
  S   S48       1.0  0.23988  0.12742  0.36636  1.0000
  H   H146      1.0  0.19928  0.08346  0.33534  1.0000
  C   C194      1.0  0.99334  0.34424  0.60332  1.0000
  H   H147      1.0  0.08844  0.04989  0.54953  1.0000
  C   C195      1.0  0.07505  0.05055  0.46742  1.0000
  C   C196      1.0  0.15048  0.99485  0.61301  1.0000
  H   H148      1.0  0.04048  0.32139  0.42054  1.0000
  H   H149      1.0  0.12595  0.11393  0.62248  1.0000
  C   C197      1.0  0.01650  0.31741  0.48114  1.0000
  S   S49       1.0  0.06364  0.00020  0.46452  1.0000
  C   C198      1.0  0.15812  0.32918  0.64605  1.0000
  C   C199      1.0  0.13224  0.13277  0.33078  1.0000
  C   C200      1.0  0.20045  0.03698  0.61676  1.0000
  C   C201      1.0  0.05957  0.46645  0.56949  1.0000
  C   C202      1.0  0.10917  0.12593  0.60048  1.0000
  H   H150      1.0  0.23123  0.99533  0.61545  1.0000
  H   H151      1.0  0.14468  0.13117  0.55028  1.0000
  H   H152      1.0  0.08856  0.31492  0.48674  1.0000
  C   C203      1.0  0.04200  0.44385  0.52917  1.0000
  C   C204      1.0  0.10663  0.48109  0.49458  1.0000
  C   C205      1.0  0.01149  0.43428  0.53947  1.0000
  H   H153      1.0  0.20406  0.06953  0.58171  1.0000
  C   C206      1.0  0.14110  0.11851  0.54501  1.0000
  C   C207      1.0  0.15519  0.10537  0.53950  1.0000
  C   C208      1.0  0.21518  0.17375  0.50036  1.0000
  C   C209      1.0  0.01962  0.23208  0.35246  1.0000
  H   H154      1.0  0.01480  0.37917  0.45248  1.0000
  H   H155      1.0  0.04305  0.24489  0.56567  1.0000
  C   C210      1.0  0.99320  0.41536  0.48797  1.0000
  C   C211      1.0  0.21567  0.17896  0.48128  1.0000
  H   H156      1.0  0.03230  0.27938  0.53330  1.0000
  H   H157      1.0  0.23529  0.07391  0.59846  1.0000
  H   H158      1.0  0.00758  0.35927  0.47917  1.0000
  C   C212      1.0  0.02499  0.38205  0.44108  1.0000
  H   H159      1.0  0.12097  0.48059  0.49778  1.0000
  C   C213      1.0  0.02533  0.29254  0.53678  1.0000
  C   C214      1.0  0.99947  0.32017  0.47315  1.0000
  H   H160      1.0  0.00042  0.33990  0.54861  1.0000
  C   C215      1.0  0.03406  0.46035  0.52067  1.0000
  H   H161      1.0  0.15341  0.44389  0.56501  1.0000
  C   C216      1.0  0.02581  0.45364  0.39430  1.0000
  C   C217      1.0  0.21064  0.18962  0.43753  1.0000
  C   C218      1.0  0.19748  0.17633  0.44066  1.0000
  C   C219      1.0  0.17981  0.18018  0.43414  1.0000
  C   C220      1.0  0.17523  0.19723  0.42429  1.0000
  C   C221      1.0  0.18839  0.21035  0.42069  1.0000
  C   C222      1.0  0.20609  0.20656  0.42719  1.0000
  H   H162      1.0  0.20231  0.17550  0.50888  1.0000
  H   H163      1.0  0.14996  0.19189  0.32509  1.0000
  H   H164      1.0  0.05597  0.48308  0.48151  1.0000
  H   H165      1.0  0.20310  0.18513  0.47544  1.0000
  H   H166      1.0  0.09941  0.22077  0.57043  1.0000
  H   H167      1.0  0.01744  0.30977  0.49462  1.0000
  H   H168      1.0  0.06922  0.48906  0.52701  1.0000
  C   C223      1.0  0.02676  0.23429  0.36938  1.0000
  H   H169      1.0  0.00283  0.42398  0.54659  1.0000
  H   H170      1.0  0.04536  0.32322  0.47817  1.0000
  H   H171      1.0  0.20099  0.16291  0.44795  1.0000
  H   H172      1.0  0.16976  0.16979  0.43635  1.0000
  H   H173      1.0  0.16157  0.20012  0.41914  1.0000
  H   H174      1.0  0.18487  0.22337  0.41265  1.0000
  H   H175      1.0  0.13511  0.14441  0.63021  1.0000
  C   C224      1.0  0.01447  0.28079  0.65460  1.0000
  H   H176      1.0  0.04280  0.36679  0.39973  1.0000
  C   C225      1.0  0.20530  0.08113  0.52838  1.0000
  H   H177      1.0  0.17667  0.06597  0.56521  1.0000
  C   C226      1.0  0.15636  0.01750  0.52536  1.0000
  H   H178      1.0  0.23304  0.08879  0.53056  1.0000
  H   H179      1.0  0.99704  0.32320  0.63731  1.0000
  C   C227      1.0  0.00281  0.36397  0.49251  1.0000
  C   C228      1.0  0.07666  0.45633  0.57173  1.0000
  C   C229      1.0  0.09103  0.45760  0.55762  1.0000
  P   P5        1.0  0.11354  0.44563  0.56098  1.0000
  C   C230      1.0  0.11079  0.42457  0.57614  1.0000
  C   C231      1.0  0.12300  0.41905  0.59010  1.0000
  C   C232      1.0  0.12088  0.40253  0.60144  1.0000
  C   C233      1.0  0.10654  0.39147  0.59901  1.0000
  C   C234      1.0  0.09430  0.39689  0.58521  1.0000
  C   C235      1.0  0.09641  0.41333  0.57381  1.0000
  C   C236      1.0  0.12449  0.43962  0.53881  1.0000
  C   C237      1.0  0.11924  0.08017  0.46493  1.0000
  C   C238      1.0  0.13207  0.41735  0.51574  1.0000
  C   C239      1.0  0.12321  0.42197  0.53269  1.0000
  S   S50       1.0  0.09410  0.27673  0.32783  1.0000
  H   H180      1.0  0.07861  0.44755  0.58445  1.0000
  H   H181      1.0  0.13052  0.39810  0.61196  1.0000
  H   H182      1.0  0.10513  0.37851  0.60759  1.0000
  H   H183      1.0  0.08347  0.38804  0.58304  1.0000
  H   H184      1.0  0.08705  0.41704  0.56289  1.0000
  C   C240      1.0  0.11950  0.16022  0.60920  1.0000
  H   H185      1.0  0.13107  0.40363  0.51122  1.0000
  H   H186      1.0  0.11554  0.41159  0.54090  1.0000
  H   H187      1.0  0.08491  0.07889  0.49541  1.0000
  H   H188      1.0  0.15538  0.33769  0.63331  1.0000
  H   H189      1.0  0.08184  0.24345  0.62210  1.0000
  S   S51       1.0  0.06615  0.00411  0.41128  1.0000
  H   H190      1.0  0.19373  0.04021  0.63007  1.0000
  C   C241      1.0  0.21946  0.03903  0.61271  1.0000
  H   H191      1.0  0.09933  0.47141  0.53096  1.0000
  C   C242      1.0  0.02662  0.37150  0.42565  1.0000
  C   C243      1.0  0.12377  0.20787  0.64764  1.0000
  Fe  Fe26      1.0  0.09629  0.00261  0.40081  1.0000
  H   H192      1.0  0.23219  0.10586  0.64036  1.0000
  C   C244      1.0  0.03676  0.39618  0.44212  1.0000
  H   H193      1.0  0.18965  0.08562  0.44830  1.0000
  C   C245      1.0  0.01064  0.48844  0.48614  1.0000
  H   H194      1.0  0.13051  0.24886  0.62239  1.0000
  P   P6        1.0  0.00524  0.48599  0.51090  1.0000
  H   H195      1.0  0.07205  0.05116  0.48215  1.0000
  C   C246      1.0  0.09302  0.05246  0.45906  1.0000
  C   C247      1.0  0.06068  0.04689  0.45683  1.0000
  H   H196      1.0  0.22572  0.22034  0.45997  1.0000
  C   C248      1.0  0.08672  0.00014  0.51305  1.0000
  H   H197      1.0  0.00951  0.44552  0.45319  1.0000
  Fe  Fe27      1.0  0.06407  0.30207  0.65229  1.0000
  H   H198      1.0  0.05695  0.44125  0.52825  1.0000
  C   C249      1.0  0.02073  0.33539  0.37261  1.0000
  C   C250      1.0  0.09635  0.05001  0.44006  1.0000
  H   H199      1.0  0.12624  0.19178  0.35129  1.0000
  C   C251      1.0  0.21247  0.17696  0.35664  1.0000
  C   C252      1.0  0.13011  0.10244  0.44006  1.0000
  H   H200      1.0  0.14954  0.05592  0.55953  1.0000
  H   H201      1.0  0.08300  0.00587  0.52604  1.0000
  C   C253      1.0  0.04060  0.37505  0.41151  1.0000
  C   C254      1.0  0.22091  0.08314  0.53794  1.0000
  C   C255      1.0  0.03478  0.32113  0.37459  1.0000
  S   S52       1.0  0.10505  0.24144  0.65539  1.0000
  C   C256      1.0  0.15106  0.48570  0.58316  1.0000
  H   H202      1.0  0.04705  0.04476  0.46349  1.0000
  C   C257      1.0  0.12507  0.08459  0.44622  1.0000
  P   P7        1.0  0.11198  0.05712  0.47244  1.0000
  H   H203      1.0  0.11252  0.13658  0.35419  1.0000
  C   C258      1.0  0.01066  0.00395  0.46923  1.0000
  H   H204      1.0  0.06027  0.40996  0.42928  1.0000
  C   C259      1.0  0.02105  0.43660  0.40324  1.0000
  H   H205      1.0  0.05284  0.30517  0.39325  1.0000
  C   C260      1.0  0.01476  0.46404  0.52146  1.0000
  C   C261      1.0  0.08537  0.06592  0.52324  1.0000
  H   H206      1.0  0.23256  0.08071  0.56451  1.0000
  C   C262      1.0  0.99932  0.30996  0.55207  1.0000
  C   C263      1.0  0.02125  0.47455  0.47688  1.0000
  H   H207      1.0  0.10571  0.48178  0.57699  1.0000
  S   S53       1.0  0.07752  0.99266  0.60558  1.0000
  H   H208      1.0  0.13270  0.15512  0.36989  1.0000
  C   C264      1.0  0.20467  0.07217  0.56671  1.0000
  H   H209      1.0  0.08479  0.04420  0.41495  1.0000
  H   H210      1.0  0.04364  0.48588  0.55153  1.0000
  H   H211      1.0  0.14106  0.24701  0.57384  1.0000
  H   H212      1.0  0.04288  0.34135  0.44796  1.0000
  H   H213      1.0  0.12817  0.33753  0.51756  1.0000
  C   C265      1.0  0.05258  0.38896  0.41279  1.0000
  C   C266      1.0  0.03216  0.32493  0.47192  1.0000
  H   H214      1.0  0.11654  0.09059  0.49223  1.0000
  H   H215      1.0  0.08150  0.48283  0.62365  1.0000
  H   H216      1.0  0.03491  0.46699  0.45091  1.0000
  H   H217      1.0  0.02634  0.46171  0.48429  1.0000
  H   H218      1.0  0.17796  0.03527  0.46097  1.0000
  H   H219      1.0  0.12618  0.07426  0.43631  1.0000
  H   H220      1.0  0.09889  0.21461  0.35042  1.0000
  H   H221      1.0  0.09090  0.24797  0.58844  1.0000
  C   C267      1.0  0.00350  0.45101  0.53130  1.0000
  H   H222      1.0  0.03838  0.16200  0.57481  1.0000
  C   C268      1.0  0.00550  0.42654  0.47733  1.0000
  C   C269      1.0  0.09532  0.20052  0.59403  1.0000
  C   C270      1.0  0.08968  0.19811  0.61299  1.0000
  P   P8        1.0  0.23352  0.18411  0.44566  1.0000
  C   C271      1.0  0.12575  0.14383  0.61936  1.0000
  C   C272      1.0  0.09044  0.23404  0.59518  1.0000
  C   C273      1.0  0.12174  0.18442  0.56547  1.0000
  C   C274      1.0  0.13503  0.19582  0.57022  1.0000
  C   C275      1.0  0.15165  0.19737  0.55929  1.0000
  C   C276      1.0  0.15507  0.18761  0.54350  1.0000
  C   C277      1.0  0.14193  0.17617  0.53872  1.0000
  C   C278      1.0  0.12545  0.17432  0.54982  1.0000
  H   H223      1.0  0.08921  0.18436  0.62016  1.0000
  C   C279      1.0  0.01532  0.23301  0.38577  1.0000
  H   H224      1.0  0.13977  0.02478  0.56947  1.0000
  H   H225      1.0  0.13303  0.20286  0.58284  1.0000
  H   H226      1.0  0.16222  0.20546  0.56359  1.0000
  H   H227      1.0  0.16825  0.18825  0.53541  1.0000
  H   H228      1.0  0.14502  0.16806  0.52688  1.0000
  Fe  Fe28      1.0  0.09767  0.27308  0.65470  1.0000
  H   H229      1.0  0.13308  0.29740  0.60127  1.0000
  H   H230      1.0  0.11169  0.12538  0.54835  1.0000
  H   H231      1.0  0.10366  0.09643  0.53609  1.0000
  C   C280      1.0  0.13210  0.08589  0.53121  1.0000
  C   C281      1.0  0.11766  0.32786  0.51687  1.0000
  H   H232      1.0  0.16949  0.10812  0.54060  1.0000
  H   H233      1.0  0.07437  0.29067  0.59189  1.0000
  C   C282      1.0  0.11804  0.09901  0.53685  1.0000
  C   C283      1.0  0.05069  0.39950  0.42809  1.0000
  H   H234      1.0  0.01957  0.42681  0.48134  1.0000
  H   H235      1.0  0.11831  0.31803  0.54561  1.0000
  H   H236      1.0  0.18126  0.31312  0.63355  1.0000
  H   H237      1.0  0.16376  0.16159  0.35592  1.0000
  H   H238      1.0  0.20634  0.14913  0.35331  1.0000
  C   C284      1.0  0.12458  0.11165  0.47131  1.0000
  C   C285      1.0  0.08472  0.21358  0.62299  1.0000
  C   C286      1.0  0.16053  0.04912  0.53209  1.0000
  C   C287      1.0  0.02041  0.33959  0.40552  1.0000
  C   C288      1.0  0.09305  0.05137  0.53491  1.0000
  H   H239      1.0  0.06627  0.16450  0.59160  1.0000
  C   C289      1.0  0.14646  0.02749  0.55570  1.0000
  S   S54       1.0  0.04264  0.27691  0.35396  1.0000
  H   H240      1.0  0.02383  0.01020  0.46756  1.0000
  C   C290      1.0  0.08829  0.46971  0.54168  1.0000
  C   C291      1.0  0.09538  0.21860  0.58511  1.0000
  P   P9        1.0  0.10133  0.18076  0.58074  1.0000
  C   C292      1.0  0.01372  0.33812  0.44661  1.0000
  H   H241      1.0  0.11329  0.07889  0.57384  1.0000
  H   H242      1.0  0.06218  0.01277  0.50071  1.0000
  H   H243      1.0  0.03915  0.34117  0.59270  1.0000
  H   H244      1.0  0.12429  0.17329  0.61218  1.0000
  C   C293      1.0  0.12423  0.20120  0.33899  1.0000
  H   H245      1.0  0.20497  0.05902  0.46668  1.0000
  C   C294      1.0  0.06598  0.17000  0.57719  1.0000
  C   C295      1.0  0.10776  0.15964  0.59482  1.0000
  H   H246      1.0  0.19599  0.05291  0.50019  1.0000
  C   C296      1.0  0.04855  0.33172  0.58510  1.0000
  H   H247      1.0  0.10551  0.11256  0.59693  1.0000
  C   C297      1.0  0.11226  0.04015  0.50882  1.0000
  H   H248      1.0  0.00102  0.08116  0.43699  1.0000
  H   H249      1.0  0.03015  0.33897  0.52965  1.0000
  H   H250      1.0  0.11332  0.33603  0.48805  1.0000
  C   C298      1.0  0.08134  0.17840  0.56811  1.0000
  H   H251      1.0  0.00470  0.27369  0.36771  1.0000
  C   C299      1.0  0.10481  0.05491  0.49700  1.0000
  C   C300      1.0  0.03073  0.43073  0.53843  1.0000
  P   P10       1.0  0.23347  0.04587  0.63008  1.0000
  C   C301      1.0  0.06853  0.30324  0.58455  1.0000
  C   C302      1.0  0.20630  0.07403  0.63845  1.0000
  H   H252      1.0  0.20573  0.08553  0.51370  1.0000
  H   H253      1.0  0.14429  0.99985  0.54779  1.0000
  C   C303      1.0  0.14224  0.43028  0.50470  1.0000
  C   C304      1.0  0.05012  0.16868  0.56775  1.0000
  H   H254      1.0  0.09455  0.14135  0.57877  1.0000
  C   C305      1.0  0.09527  0.31512  0.49957  1.0000
  C   C306      1.0  0.10929  0.32706  0.50028  1.0000
  C   C307      1.0  0.15994  0.01333  0.45965  1.0000
  H   H255      1.0  0.06334  0.49218  0.65215  1.0000
  H   H256      1.0  0.14897  0.42665  0.49151  1.0000
  H   H257      1.0  0.20286  0.07462  0.62413  1.0000
  C   C308      1.0  0.05329  0.33599  0.56625  1.0000
  C   C309      1.0  0.08955  0.30400  0.51544  1.0000
  H   H258      1.0  0.04750  0.34878  0.55916  1.0000
  H   H259      1.0  0.07823  0.29538  0.51469  1.0000
  C   C310      1.0  0.15078  0.08892  0.53267  1.0000
  C   C311      1.0  0.22784  0.03409  0.59557  1.0000
  C   C312      1.0  0.07340  0.30739  0.56560  1.0000
  H   H260      1.0  0.10709  0.30824  0.58223  1.0000
  C   C313      1.0  0.12063  0.12668  0.61497  1.0000
  C   C314      1.0  0.22065  0.07856  0.55708  1.0000
  H   H261      1.0  0.13862  0.09645  0.58321  1.0000
  H   H262      1.0  0.08099  0.21176  0.63779  1.0000
  P   P11       1.0  0.01199  0.35253  0.42500  1.0000
  C   C315      1.0  0.23118  0.16592  0.50847  1.0000
  C   C316      1.0  0.06563  0.32388  0.55651  1.0000
  C   C317      1.0  0.09805  0.30454  0.53214  1.0000
  C   C318      1.0  0.01483  0.46992  0.39774  1.0000
  C   C319      1.0  0.20440  0.16355  0.34793  1.0000
  C   C320      1.0  0.11427  0.29485  0.58025  1.0000
  C   C321      1.0  0.11205  0.31670  0.53277  1.0000
  C   C322      1.0  0.03461  0.32527  0.40736  1.0000
  C   C323      1.0  0.04935  0.17603  0.54929  1.0000
  H   H263      1.0  0.04305  0.47021  0.51335  1.0000
  H   H264      1.0  0.06368  0.19081  0.52607  1.0000
  H   H265      1.0  0.04039  0.31410  0.36262  1.0000
  P   P12       1.0  0.08954  0.29169  0.55320  1.0000
  C   C324      1.0  0.12909  0.28874  0.59105  1.0000
  H   H266      1.0  0.06913  0.32760  0.54195  1.0000
  H   H267      1.0  0.13472  0.10554  0.42559  1.0000
  H   H268      1.0  0.06374  0.39110  0.40215  1.0000
  H   H269      1.0  0.17799  0.11148  0.33206  1.0000
  H   H270      1.0  0.07472  0.07565  0.52884  1.0000
  H   H271      1.0  0.17113  0.00313  0.45611  1.0000
  H   H272      1.0  0.12482  0.12205  0.48108  1.0000
  C   C325      1.0  0.10886  0.28376  0.56705  1.0000
  H   H273      1.0  0.16747  0.03789  0.50543  1.0000
  C   C326      1.0  0.18903  0.07013  0.55721  1.0000
  C   C327      1.0  0.17182  0.09447  0.47147  1.0000
  C   C328      1.0  0.21014  0.19570  0.35006  1.0000
  C   C329      1.0  0.13469  0.45259  0.52755  1.0000
  C   C330      1.0  0.14358  0.44789  0.51062  1.0000
  C   C331      1.0  0.07494  0.00414  0.49861  1.0000
  H   H274      1.0  0.09747  0.26479  0.52522  1.0000
  C   C332      1.0  0.18545  0.08276  0.46291  1.0000
  C   C333      1.0  0.03310  0.30914  0.53030  1.0000
  C   C334      1.0  0.00452  0.27937  0.35340  1.0000
  C   C335      1.0  0.02607  0.47745  0.45783  1.0000
  C   C336      1.0  0.00850  0.29291  0.54763  1.0000
  C   C337      1.0  0.06436  0.18495  0.54033  1.0000
  H   H275      1.0  0.17505  0.03006  0.60650  1.0000
  H   H276      1.0  0.03706  0.17494  0.54199  1.0000
  C   C338      1.0  0.16379  0.03141  0.46248  1.0000
  C   C339      1.0  0.07808  0.27159  0.54831  1.0000
  C   C340      1.0  0.08539  0.26078  0.53395  1.0000
  C   C341      1.0  0.13874  0.27153  0.58871  1.0000
  C   C342      1.0  0.01370  0.34475  0.38795  1.0000
  H   H277      1.0  0.00693  0.32553  0.58447  1.0000
  H   H278      1.0  0.21619  0.20611  0.35698  1.0000
  H   H279      1.0  0.15250  0.22781  0.60434  1.0000
  C   C343      1.0  0.12801  0.46105  0.57042  1.0000
  C   C344      1.0  0.11879  0.26652  0.56467  1.0000
  H   H280      1.0  0.15020  0.26680  0.59715  1.0000
  H   H281      1.0  0.15626  0.10069  0.49670  1.0000
  P   P13       1.0  0.16890  0.07189  0.52559  1.0000
  H   H282      1.0  0.11523  0.25772  0.55448  1.0000
  C   C345      1.0  0.10640  0.03845  0.52768  1.0000
  H   H283      1.0  0.15131  0.45798  0.50193  1.0000
  C   C346      1.0  0.19260  0.11275  0.32860  1.0000
  H   H284      1.0  0.15252  0.05875  0.46830  1.0000
  C   C347      1.0  0.11967  0.09373  0.47755  1.0000
  C   C348      1.0  0.14930  0.04474  0.46648  1.0000
  C   C349      1.0  0.14160  0.00853  0.46093  1.0000
  C   C350      1.0  0.07733  0.24455  0.53089  1.0000
  C   C351      1.0  0.06277  0.26566  0.55975  1.0000
  C   C352      1.0  0.13357  0.26040  0.57556  1.0000
  H   H285      1.0  0.08303  0.23636  0.51973  1.0000
  H   H286      1.0  0.05693  0.27343  0.57110  1.0000
  C   C353      1.0  0.03075  0.33525  0.45475  1.0000
  H   H287      1.0  0.12231  0.02967  0.50357  1.0000
  C   C354      1.0  0.12043  0.47791  0.57698  1.0000
  C   C355      1.0  0.17272  0.31532  0.64620  1.0000
  C   C356      1.0  0.99416  0.45209  0.41910  1.0000
  H   H288      1.0  0.13567  0.46642  0.53173  1.0000
  H   H289      1.0  0.09150  0.19377  0.54279  1.0000
  C   C357      1.0  0.06205  0.23886  0.54228  1.0000
  C   C358      1.0  0.05481  0.24938  0.55671  1.0000
  H   H290      1.0  0.16583  0.10653  0.46349  1.0000
  C   C359      1.0  0.16645  0.09104  0.49034  1.0000
  H   H291      1.0  0.05583  0.22626  0.53997  1.0000
  C   C360      1.0  0.19413  0.16872  0.33239  1.0000
  C   C361      1.0  0.06412  0.04482  0.43790  1.0000
  C   C362      1.0  0.14885  0.01355  0.54348  1.0000
  H   H292      1.0  0.21617  0.21676  0.42388  1.0000
  C   C363      1.0  0.14725  0.45670  0.57027  1.0000
  C   C364      1.0  0.13085  0.04004  0.46758  1.0000
  C   C365      1.0  0.12710  0.02182  0.46490  1.0000
  C   C366      1.0  0.18982  0.03102  0.60348  1.0000
  C   C367      1.0  0.19403  0.06773  0.47330  1.0000
  C   C368      1.0  0.10286  0.14232  0.59033  1.0000
  H   H293      1.0  0.13854  0.99459  0.45852  1.0000
  C   C369      1.0  0.16214  0.03521  0.51964  1.0000
  C   C370      1.0  0.02407  0.32611  0.53465  1.0000
  H   H294      1.0  0.04606  0.30894  0.52181  1.0000
  C   C371      1.0  0.08196  0.04634  0.42954  1.0000
  C   C372      1.0  0.17472  0.07573  0.50084  1.0000
  C   C373      1.0  0.18930  0.07423  0.53786  1.0000
  C   C374      1.0  0.15870  0.46895  0.57670  1.0000
  H   H295      1.0  0.04109  0.23743  0.36971  1.0000
  H   H296      1.0  0.13778  0.18118  0.64187  1.0000
  H   H297      1.0  0.03686  0.41773  0.54474  1.0000
  H   H298      1.0  0.17354  0.46551  0.57651  1.0000
  S   S55       1.0  0.03456  0.31174  0.64478  1.0000
  C   C375      1.0  0.99664  0.22980  0.38522  1.0000
  H   H299      1.0  0.22047  0.17273  0.36855  1.0000
  C   C376      1.0  0.23222  0.17623  0.47010  1.0000
  C   C377      1.0  0.10876  0.21400  0.33845  1.0000
  C   C378      1.0  0.01424  0.29944  0.64765  1.0000
  C   C379      1.0  0.00726  0.32656  0.54548  1.0000
  H   H300      1.0  0.01547  0.33926  0.35909  1.0000
  H   H301      1.0  0.02848  0.23347  0.33976  1.0000
  C   C380      1.0  0.99421  0.01483  0.46602  1.0000
  C   C381      1.0  0.22040  0.06132  0.64524  1.0000
  H   H302      1.0  0.00620  0.34753  0.60846  1.0000
  H   H303      1.0  0.23061  0.16161  0.52323  1.0000
  C   C382      1.0  0.99731  0.30884  0.64281  1.0000
  H   H304      1.0  0.14689  0.00851  0.60629  1.0000
  H   H305      1.0  0.04838  0.46512  0.58020  1.0000
  H   H306      1.0  0.02089  0.23490  0.39884  1.0000
  C   C383      1.0  0.21719  0.02797  0.58238  1.0000
  H   H307      1.0  0.00270  0.27991  0.55246  1.0000
  H   H308      1.0  0.18577  0.09619  0.64471  1.0000
  H   H309      1.0  0.01855  0.48313  0.39079  1.0000
  C   C384      1.0  0.20468  0.09670  0.33054  1.0000
  C   C385      1.0  0.00536  0.43581  0.41566  1.0000
  C   C386      1.0  0.99974  0.43713  0.46139  1.0000
  C   C387      1.0  0.19667  0.08647  0.65005  1.0000
  C   C388      1.0  0.23917  0.22026  0.45233  1.0000
  H   H310      1.0  0.12886  0.99716  0.63496  1.0000
  C   C389      1.0  0.99370  0.33182  0.58962  1.0000
  C   C390      1.0  0.24208  0.02453  0.64255  1.0000
  C   C391      1.0  0.05689  0.47821  0.55337  1.0000
  C   C392      1.0  0.00097  0.22875  0.35186  1.0000
  H   H311      1.0  0.00317  0.35612  0.38601  1.0000
  C   C393      1.0  0.19970  0.20102  0.33477  1.0000
  H   H312      1.0  0.00194  0.42249  0.42259  1.0000
  C   C394      1.0  0.99805  0.33044  0.45594  1.0000
  C   C395      1.0  0.19174  0.18759  0.32592  1.0000
  H   H313      1.0  0.99464  0.02952  0.46173  1.0000
  C   C396      1.0  0.07126  0.47990  0.53952  1.0000
  C   C397      1.0  0.99905  0.46918  0.41009  1.0000
  C   C398      1.0  0.99787  0.27175  0.65683  1.0000
  H   H314      1.0  0.24258  0.03507  0.59236  1.0000
  H   H315      1.0  0.01613  0.35246  0.65764  1.0000
  S   S56       1.0  0.24247  0.12945  0.60618  1.0000
  C   C399      1.0  0.22375  0.09779  0.32681  1.0000
  H   H316      1.0  0.05695  0.41485  0.98898  1.0000
  S   S57       1.0  0.01597  0.40685  0.90174  1.0000
  H   H317      1.0  0.00872  0.46882  0.93099  1.0000
  H   H318      1.0  0.09390  0.40126  0.92840  1.0000
  C   C400      1.0  0.04434  0.41878  0.94193  1.0000
  Fe  Fe29      1.0  0.00885  0.38239  0.88784  1.0000
  S   S58       1.0  0.03123  0.36387  0.87311  1.0000
  P   P14       1.0  0.00634  0.30667  0.72526  1.0000
  Fe  Fe30      1.0  0.17446  0.37913  0.81352  1.0000
  S   S59       1.0  0.16876  0.39232  0.78464  1.0000
  S   S60       1.0  0.20430  0.36628  0.81836  1.0000
  Fe  Fe31      1.0  0.13339  0.38547  0.82690  1.0000
  S   S61       1.0  0.12549  0.39831  0.79916  1.0000
  S   S62       1.0  0.11276  0.38936  0.85190  1.0000
  Fe  Fe32      1.0  0.14371  0.37550  0.78646  1.0000
  S   S63       1.0  0.13580  0.36570  0.75861  1.0000
  Fe  Fe33      1.0  0.15071  0.41438  0.79889  1.0000
  S   S64       1.0  0.14374  0.44489  0.78848  1.0000
  S   S65       1.0  0.15019  0.36110  0.81469  1.0000
  S   S66       1.0  0.15800  0.40254  0.82740  1.0000
  Fe  Fe34      1.0  0.09341  0.30545  0.68077  1.0000
  S   S67       1.0  0.07504  0.28284  0.67578  1.0000
  S   S68       1.0  0.09570  0.31126  0.71140  1.0000
  H   H319      1.0  0.06776  0.48079  0.87651  1.0000
  C   C401      1.0  0.00382  0.46575  0.88512  1.0000
  H   H320      1.0  0.02629  0.39013  0.83915  1.0000
  C   C402      1.0  0.00973  0.38963  0.81583  1.0000
  H   H321      1.0  0.06716  0.33654  0.77067  1.0000
  S   S69       1.0  0.99778  0.40876  0.95227  1.0000
  C   C403      1.0  0.07438  0.41092  0.78675  1.0000
  C   C404      1.0  0.09687  0.32736  0.81747  1.0000
  C   C405      1.0  0.12454  0.35032  0.74578  1.0000
  C   C406      1.0  0.12397  0.35407  0.72637  1.0000
  C   C407      1.0  0.11545  0.34229  0.71559  1.0000
  C   C408      1.0  0.10735  0.32645  0.72404  1.0000
  C   C409      1.0  0.10792  0.32271  0.74343  1.0000
  C   C410      1.0  0.11641  0.33448  0.75419  1.0000
  H   H322      1.0  0.13022  0.36619  0.71961  1.0000
  H   H323      1.0  0.11502  0.34559  0.70078  1.0000
  H   H324      1.0  0.10175  0.31055  0.75021  1.0000
  H   H325      1.0  0.11691  0.33112  0.76896  1.0000
  C   C411      1.0  0.22139  0.36342  0.83535  1.0000
  H   H326      1.0  0.11548  0.40874  0.74922  1.0000
  H   H327      1.0  0.18686  0.29287  0.66213  1.0000
  C   C412      1.0  0.21759  0.36819  0.85363  1.0000
  C   C413      1.0  0.05785  0.37803  0.74550  1.0000
  H   H328      1.0  0.20397  0.37429  0.85781  1.0000
  C   C414      1.0  0.16768  0.46533  0.80529  1.0000
  C   C415      1.0  0.15255  0.46561  0.79442  1.0000
  C   C416      1.0  0.14417  0.48291  0.78769  1.0000
  H   H329      1.0  0.17435  0.45216  0.81046  1.0000
  H   H330      1.0  0.13254  0.48328  0.77918  1.0000
  C   C417      1.0  0.05344  0.37177  0.86608  1.0000
  C   C418      1.0  0.06594  0.36121  0.85467  1.0000
  C   C419      1.0  0.08390  0.36686  0.84936  1.0000
  C   C420      1.0  0.08966  0.38285  0.85588  1.0000
  C   C421      1.0  0.07713  0.39342  0.86720  1.0000
  C   C422      1.0  0.05906  0.38807  0.87206  1.0000
  H   H331      1.0  0.06175  0.34851  0.85013  1.0000
  H   H332      1.0  0.09352  0.35847  0.84088  1.0000
  H   H333      1.0  0.08154  0.40576  0.87234  1.0000
  H   H334      1.0  0.04965  0.39626  0.88085  1.0000
  H   H335      1.0  0.07056  0.27840  0.71951  1.0000
  C   C423      1.0  0.07751  0.32900  0.81879  1.0000
  C   C424      1.0  0.06004  0.35236  0.72611  1.0000
  C   C425      1.0  0.02638  0.38816  0.82448  1.0000
  H   H336      1.0  0.16022  0.27938  0.73883  1.0000
  C   C426      1.0  0.22665  0.26216  0.69991  1.0000
  H   H337      1.0  0.12164  0.33891  0.80475  1.0000
  H   H338      1.0  0.22725  0.27054  0.91738  1.0000
  H   H339      1.0  0.08789  0.43224  0.91046  1.0000
  H   H340      1.0  0.20430  0.30481  0.69091  1.0000
  C   C427      1.0  0.04810  0.29103  0.75988  1.0000
  C   C428      1.0  0.20136  0.08669  0.66835  1.0000
  H   H341      1.0  0.05617  0.39288  0.74670  1.0000
  H   H342      1.0  0.07407  0.45804  0.95227  1.0000
  H   H343      1.0  0.13886  0.47728  0.89492  1.0000
  C   C429      1.0  0.16111  0.30354  0.75369  1.0000
  H   H344      1.0  0.16281  0.32993  0.76480  1.0000
  C   C430      1.0  0.09320  0.39423  0.76369  1.0000
  H   H345      1.0  0.21977  0.07504  0.68904  1.0000
  C   C431      1.0  0.01417  0.34416  0.67075  1.0000
  H   H346      1.0  0.10433  0.31615  0.82544  1.0000
  H   H347      1.0  0.06568  0.32516  0.73995  1.0000
  C   C432      1.0  0.10367  0.40959  0.75932  1.0000
  H   H348      1.0  0.09685  0.38184  0.75650  1.0000
  C   C433      1.0  0.00160  0.33541  0.74861  1.0000
  C   C434      1.0  0.06793  0.34357  0.80859  1.0000
  H   H349      1.0  0.99802  0.35760  0.76671  1.0000
  H   H350      1.0  0.99687  0.38803  0.79034  1.0000
  H   H351      1.0  0.02640  0.38037  0.77226  1.0000
  P   P15       1.0  0.09973  0.46992  0.89847  1.0000
  C   C435      1.0  0.07980  0.45793  0.89432  1.0000
  C   C436      1.0  0.11861  0.46345  0.88193  1.0000
  C   C437      1.0  0.11608  0.45173  0.86807  1.0000
  C   C438      1.0  0.13125  0.44519  0.85672  1.0000
  C   C439      1.0  0.14896  0.45051  0.85884  1.0000
  C   C440      1.0  0.15160  0.46218  0.87255  1.0000
  C   C441      1.0  0.13652  0.46856  0.88411  1.0000
  C   C442      1.0  0.07788  0.43950  0.90162  1.0000
  C   C443      1.0  0.06286  0.43015  0.89737  1.0000
  C   C444      1.0  0.04973  0.43913  0.88584  1.0000
  C   C445      1.0  0.05151  0.45743  0.87867  1.0000
  C   C446      1.0  0.06652  0.46676  0.88271  1.0000
  C   C447      1.0  0.09711  0.35497  0.79589  1.0000
  H   H352      1.0  0.10810  0.43727  0.76569  1.0000
  C   C448      1.0  0.16383  0.32249  0.75241  1.0000
  C   C449      1.0  0.12063  0.38978  0.93641  1.0000
  C   C450      1.0  0.22758  0.30381  0.87304  1.0000
  H   H353      1.0  0.10504  0.36471  0.78703  1.0000
  H   H354      1.0  0.14034  0.32181  0.69062  1.0000
  H   H355      1.0  0.03026  0.37611  0.96234  1.0000
  C   C451      1.0  0.99406  0.37929  0.97980  1.0000
  H   H356      1.0  0.10258  0.44719  0.86615  1.0000
  H   H357      1.0  0.12936  0.43575  0.84637  1.0000
  H   H358      1.0  0.16063  0.44549  0.84988  1.0000
  H   H359      1.0  0.16538  0.46620  0.87423  1.0000
  C   C452      1.0  0.03094  0.29761  0.75325  1.0000
  C   C453      1.0  0.06174  0.36565  0.76104  1.0000
  P   P16       1.0  0.06512  0.37464  0.78289  1.0000
  H   H360      1.0  0.03821  0.43201  0.88217  1.0000
  H   H361      1.0  0.04141  0.46422  0.86956  1.0000
  C   C454      1.0  0.19339  0.26058  0.70497  1.0000
  C   C455      1.0  0.23136  0.36482  0.86665  1.0000
  C   C456      1.0  0.06305  0.33989  0.74164  1.0000
  C   C457      1.0  0.04313  0.38386  0.81436  1.0000
  H   H362      1.0  0.24251  0.35166  0.81635  1.0000
  C   C458      1.0  0.23928  0.35540  0.83039  1.0000
  C   C459      1.0  0.10142  0.39334  0.93922  1.0000
  H   H363      1.0  0.12018  0.43608  0.91363  1.0000
  H   H364      1.0  0.13125  0.42623  0.94463  1.0000
  H   H365      1.0  0.99953  0.44696  0.90960  1.0000
  C   C460      1.0  0.14659  0.33158  0.66212  1.0000
  C   C461      1.0  0.08887  0.47290  0.82605  1.0000
  Fe  Fe35      1.0  0.99378  0.42242  0.88551  1.0000
  H   H366      1.0  0.06137  0.41592  0.90300  1.0000
  C   C462      1.0  0.06395  0.34645  0.75906  1.0000
  H   H367      1.0  0.06327  0.41176  0.79753  1.0000
  H   H368      1.0  0.14543  0.37660  0.94791  1.0000
  C   C463      1.0  0.02659  0.38256  0.78679  1.0000
  C   C464      1.0  0.07318  0.46555  0.83566  1.0000
  C   C465      1.0  0.07185  0.44627  0.83807  1.0000
  C   C466      1.0  0.08619  0.43423  0.83106  1.0000
  C   C467      1.0  0.10156  0.44148  0.82109  1.0000
  C   C468      1.0  0.10273  0.46067  0.81829  1.0000
  C   C469      1.0  0.05714  0.37140  0.72808  1.0000
  H   H369      1.0  0.21338  0.23711  0.70920  1.0000
  C   C470      1.0  0.19065  0.27964  0.69939  1.0000
  H   H370      1.0  0.04029  0.28953  0.70772  1.0000
  C   C471      1.0  0.07767  0.35672  0.79707  1.0000
  C   C472      1.0  0.10664  0.34030  0.80598  1.0000
  C   C473      1.0  0.06598  0.44702  0.94914  1.0000
  H   H371      1.0  0.01643  0.33648  0.74621  1.0000
  H   H372      1.0  0.05591  0.38269  0.82135  1.0000
  C   C474      1.0  0.16210  0.29412  0.73761  1.0000
  C   C475      1.0  0.07149  0.42846  0.95462  1.0000
  H   H373      1.0  0.21810  0.02312  0.66223  1.0000
  C   C476      1.0  0.14979  0.32029  0.67845  1.0000
  C   C477      1.0  0.17459  0.48217  0.80896  1.0000
  C   C478      1.0  0.00384  0.46044  0.90414  1.0000
  H   H374      1.0  0.05972  0.44056  0.84537  1.0000
  H   H375      1.0  0.08537  0.41929  0.83316  1.0000
  H   H376      1.0  0.11262  0.43223  0.81541  1.0000
  H   H377      1.0  0.11445  0.46594  0.80991  1.0000
  H   H378      1.0  0.03556  0.40822  0.93908  1.0000
  C   C479      1.0  0.99506  0.32499  0.69220  1.0000
  H   H379      1.0  0.05292  0.34449  0.80971  1.0000
  C   C480      1.0  0.00911  0.48334  0.87818  1.0000
  H   H380      1.0  0.21450  0.23987  0.92330  1.0000
  H   H381      1.0  0.15392  0.49179  0.84393  1.0000
  C   C481      1.0  0.12076  0.45156  0.95637  1.0000
  H   H382      1.0  0.13985  0.23872  0.67634  1.0000
  S   S70       1.0  0.99842  0.45001  0.86983  1.0000
  H   H383      1.0  0.05875  0.35617  0.98180  1.0000
  C   C482      1.0  0.00982  0.38690  0.79697  1.0000
  C   C483      1.0  0.02889  0.34022  0.68218  1.0000
  C   C484      1.0  0.05581  0.37567  0.94478  1.0000
  H   H384      1.0  0.08161  0.43878  0.78940  1.0000
  C   C485      1.0  0.09949  0.42565  0.76859  1.0000
  C   C486      1.0  0.12125  0.37261  0.96666  1.0000
  H   H385      1.0  0.06058  0.34726  0.71248  1.0000
  H   H386      1.0  0.02637  0.44024  0.92939  1.0000
  C   C487      1.0  0.22404  0.28123  0.69482  1.0000
  C   C488      1.0  0.06456  0.36975  0.92813  1.0000
  C   C489      1.0  0.05514  0.35959  0.91689  1.0000
  C   C490      1.0  0.03696  0.35527  0.92212  1.0000
  C   C491      1.0  0.02818  0.36105  0.93866  1.0000
  P   P17       1.0  0.06704  0.39029  0.95873  1.0000
  C   C492      1.0  0.99523  0.46142  0.97927  1.0000
  C   C493      1.0  0.13055  0.37945  0.95014  1.0000
  C   C494      1.0  0.22804  0.30697  0.85360  1.0000
  C   C495      1.0  0.09194  0.38627  0.95566  1.0000
  H   H387      1.0  0.10931  0.47841  0.96405  1.0000
  C   C496      1.0  0.20612  0.28998  0.69467  1.0000
  H   H388      1.0  0.03827  0.32585  0.70725  1.0000
  H   H389      1.0  0.21470  0.32135  0.83020  1.0000
  C   C497      1.0  0.10773  0.46279  0.92125  1.0000
  C   C498      1.0  0.12379  0.43971  0.94213  1.0000
  H   H390      1.0  0.21602  0.21864  0.89818  1.0000
  H   H391      1.0  0.05034  0.29119  0.77446  1.0000
  H   H392      1.0  0.15821  0.29619  0.76716  1.0000
  C   C499      1.0  0.11742  0.44532  0.92461  1.0000
  C   C500      1.0  0.04336  0.38095  0.79546  1.0000
  H   H393      1.0  0.16470  0.25970  0.67787  1.0000
  H   H394      1.0  0.07848  0.37310  0.92353  1.0000
  H   H395      1.0  0.06177  0.35532  0.90388  1.0000
  H   H396      1.0  0.02959  0.34772  0.91317  1.0000
  C   C501      1.0  0.03900  0.43722  0.93639  1.0000
  C   C502      1.0  0.01447  0.46232  0.97786  1.0000
  C   C503      1.0  0.02670  0.32868  0.69863  1.0000
  H   H397      1.0  0.12697  0.47954  0.83259  1.0000
  H   H398      1.0  0.05501  0.38106  0.71598  1.0000
  H   H399      1.0  0.19413  0.09664  0.67716  1.0000
  C   C504      1.0  0.03753  0.37122  0.94991  1.0000
  C   C505      1.0  0.00931  0.47266  0.91620  1.0000
  H   H400      1.0  0.13480  0.34180  0.66174  1.0000
  H   H401      1.0  0.01397  0.35800  0.94259  1.0000
  C   C506      1.0  0.05604  0.36772  0.99034  1.0000
  H   H402      1.0  0.00927  0.48743  0.86344  1.0000
  C   C507      1.0  0.16476  0.30671  0.67887  1.0000
  C   C508      1.0  0.10200  0.37595  0.96941  1.0000
  P   P18       1.0  0.16765  0.29122  0.69954  1.0000
  C   C509      1.0  0.15005  0.27510  0.69947  1.0000
  H   H403      1.0  0.08398  0.42527  0.96193  1.0000
  C   C510      1.0  0.13330  0.27742  0.71035  1.0000
  C   C511      1.0  0.11922  0.26559  0.70927  1.0000
  C   C512      1.0  0.12171  0.25149  0.69722  1.0000
  C   C513      1.0  0.13822  0.24930  0.68612  1.0000
  C   C514      1.0  0.15227  0.26117  0.68707  1.0000
  C   C515      1.0  0.16549  0.30371  0.72010  1.0000
  C   C516      1.0  0.16851  0.32270  0.71895  1.0000
  C   C517      1.0  0.16759  0.33203  0.73506  1.0000
  C   C518      1.0  0.22837  0.26129  0.90638  1.0000
  H   H404      1.0  0.12779  0.39485  0.92347  1.0000
  H   H405      1.0  0.04557  0.46575  0.93540  1.0000
  C   C519      1.0  0.22179  0.23204  0.89557  1.0000
  H   H406      1.0  0.00635  0.42229  0.98582  1.0000
  C   C520      1.0  0.17593  0.30397  0.66249  1.0000
  H   H407      1.0  0.18658  0.48178  0.81700  1.0000
  C   C521      1.0  0.99823  0.39774  0.97520  1.0000
  H   H408      1.0  0.13078  0.28872  0.71921  1.0000
  H   H409      1.0  0.10618  0.26776  0.71738  1.0000
  H   H410      1.0  0.11064  0.24259  0.69601  1.0000
  C   C522      1.0  0.11148  0.46911  0.95306  1.0000
  C   C523      1.0  0.21133  0.25186  0.70506  1.0000
  H   H411      1.0  0.17163  0.33036  0.70571  1.0000
  H   H412      1.0  0.16947  0.34679  0.73417  1.0000
  H   H413      1.0  0.18175  0.25242  0.70940  1.0000
  C   C524      1.0  0.07859  0.39466  0.77759  1.0000
  H   H414      1.0  0.06992  0.31909  0.82786  1.0000
  C   C525      1.0  0.21394  0.31825  0.84516  1.0000
  C   C526      1.0  0.19917  0.32625  0.85598  1.0000
  C   C527      1.0  0.19833  0.32273  0.87529  1.0000
  C   C528      1.0  0.21238  0.31140  0.88380  1.0000
  H   H415      1.0  0.04221  0.34561  0.67794  1.0000
  H   H416      1.0  0.18863  0.33550  0.84935  1.0000
  H   H417      1.0  0.18692  0.32905  0.88364  1.0000
  H   H418      1.0  0.21154  0.30880  0.89877  1.0000
  C   C529      1.0  0.08473  0.42637  0.78215  1.0000
  H   H419      1.0  0.12576  0.44724  0.96993  1.0000
  H   H420      1.0  0.09505  0.37037  0.98222  1.0000
  H   H421      1.0  0.06186  0.47462  0.84109  1.0000
  C   C530      1.0  0.04982  0.45140  0.93983  1.0000
  C   C531      1.0  0.06063  0.41419  0.95103  1.0000
  H   H422      1.0  0.01995  0.30253  0.76296  1.0000
  H   H423      1.0  0.23688  0.05304  0.66874  1.0000
  C   C532      1.0  0.00982  0.32072  0.70359  1.0000
  C   C533      1.0  0.02812  0.29769  0.73429  1.0000
  C   C534      1.0  0.99382  0.28651  0.72324  1.0000
  C   C535      1.0  0.05883  0.38595  0.98284  1.0000
  C   C536      1.0  0.23700  0.26660  0.88890  1.0000
  H   H424      1.0  0.07582  0.27941  0.75271  1.0000
  C   C537      1.0  0.22098  0.24397  0.90973  1.0000
  C   C538      1.0  0.10503  0.47476  0.93558  1.0000
  C   C539      1.0  0.04233  0.29015  0.72231  1.0000
  C   C540      1.0  0.05946  0.28365  0.72897  1.0000
  C   C541      1.0  0.06242  0.28424  0.74769  1.0000
  C   C542      1.0  0.00272  0.40821  0.98934  1.0000
  H   H425      1.0  0.99677  0.39277  0.82384  1.0000
  H   H426      1.0  0.02144  0.46676  0.96465  1.0000
  H   H427      1.0  0.22812  0.36849  0.88071  1.0000
  H   H428      1.0  0.24186  0.32667  0.89723  1.0000
  H   H429      1.0  0.23593  0.28926  0.69105  1.0000
  H   H430      1.0  0.23023  0.22837  0.86691  1.0000
  H   H431      1.0  0.12895  0.36454  0.97727  1.0000
  C   C543      1.0  0.21571  0.07444  0.67506  1.0000
  C   C544      1.0  0.22529  0.06188  0.66353  1.0000
  C   C545      1.0  0.99722  0.33660  0.67581  1.0000
  H   H432      1.0  0.23013  0.99422  0.67959  1.0000
  C   C546      1.0  0.22984  0.23749  0.87798  1.0000
  Fe  Fe36      1.0  0.99325  0.40007  0.92356  1.0000
  C   C547      1.0  0.23726  0.25480  0.87459  1.0000
  H   H433      1.0  0.23935  0.30099  0.84491  1.0000
  C   C548      1.0  0.01483  0.49013  0.90927  1.0000
  H   H434      1.0  0.99796  0.28680  0.69324  1.0000
  H   H435      1.0  0.11574  0.20219  0.65972  1.0000
  H   H436      1.0  0.07906  0.48037  0.79001  1.0000
  H   H437      1.0  0.99489  0.36678  0.70343  1.0000
  H   H438      1.0  0.09800  0.48846  0.93343  1.0000
  S   S71       1.0  0.11655  0.29444  0.66116  1.0000
  H   H439      1.0  0.99823  0.25725  0.66205  1.0000
  H   H440      1.0  0.08635  0.48588  0.75630  1.0000
  H   H441      1.0  0.24055  0.25539  0.70001  1.0000
  C   C549      1.0  0.23818  0.00010  0.66757  1.0000
  H   H442      1.0  0.06679  0.49128  0.91304  1.0000
  S   S72       1.0  0.08069  0.32537  0.65874  1.0000
  C   C550      1.0  0.08733  0.49174  0.78477  1.0000
  C   C551      1.0  0.99293  0.32189  0.74048  1.0000
  H   H443      1.0  0.02741  0.27332  0.65821  1.0000
  C   C552      1.0  0.23147  0.01654  0.65778  1.0000
  Fe  Fe37      1.0  0.02116  0.58163  0.10062  1.0000
  S   S73       1.0  0.03963  0.59567  0.11830  1.0000
  H   H444      1.0  0.00415  0.59447  0.02009  1.0000
  S   S74       1.0  0.02989  0.55561  0.08690  1.0000
  Fe  Fe38      1.0  0.17574  0.58921  0.17167  1.0000
  S   S75       1.0  0.17134  0.57666  0.20135  1.0000
  S   S76       1.0  0.20171  0.60562  0.16349  1.0000
  Fe  Fe39      1.0  0.13850  0.57632  0.16184  1.0000
  S   S77       1.0  0.13184  0.56338  0.19067  1.0000
  S   S78       1.0  0.12304  0.57099  0.13679  1.0000
  Fe  Fe40      1.0  0.14189  0.58923  0.20087  1.0000
  S   S79       1.0  0.12511  0.60020  0.22676  1.0000
  Fe  Fe41      1.0  0.16155  0.55184  0.18925  1.0000
  S   S80       1.0  0.16999  0.52216  0.20111  1.0000
  S   S81       1.0  0.14651  0.60306  0.17171  1.0000
  S   S82       1.0  0.16799  0.56355  0.15994  1.0000
  C   C553      1.0  0.08891  0.53324  0.08152  1.0000
  H   H445      1.0  0.23186  0.62952  0.15890  1.0000
  S   S83       1.0  0.12490  0.66310  0.28423  1.0000
  C   C554      1.0  0.12423  0.64555  0.26843  1.0000
  C   C555      1.0  0.13403  0.64774  0.25089  1.0000
  C   C556      1.0  0.13448  0.63413  0.23805  1.0000
  C   C557      1.0  0.12520  0.61794  0.24251  1.0000
  C   C558      1.0  0.11504  0.61594  0.25989  1.0000
  C   C559      1.0  0.11455  0.62958  0.27275  1.0000
  H   H446      1.0  0.14146  0.66004  0.24725  1.0000
  H   H447      1.0  0.14178  0.63634  0.22462  1.0000
  H   H448      1.0  0.10771  0.60357  0.26356  1.0000
  H   H449      1.0  0.10682  0.62766  0.28608  1.0000
  C   C560      1.0  0.22054  0.60774  0.14600  1.0000
  C   C561      1.0  0.07549  0.69076  0.27614  1.0000
  H   H450      1.0  0.20820  0.56714  0.18291  1.0000
  C   C562      1.0  0.22298  0.59685  0.13089  1.0000
  H   H451      1.0  0.22258  0.90828  0.28895  1.0000
  H   H452      1.0  0.04486  0.50715  0.09634  1.0000
  H   H453      1.0  0.21325  0.58665  0.12946  1.0000
  C   C563      1.0  0.06211  0.58662  0.12428  1.0000
  C   C564      1.0  0.07409  0.57654  0.11215  1.0000
  C   C565      1.0  0.09262  0.57165  0.11633  1.0000
  C   C566      1.0  0.09927  0.57640  0.13284  1.0000
  C   C567      1.0  0.08704  0.58562  0.14541  1.0000
  C   C568      1.0  0.06866  0.59099  0.14099  1.0000
  H   H454      1.0  0.06927  0.57315  0.09921  1.0000
  H   H455      1.0  0.10193  0.56441  0.10656  1.0000
  H   H456      1.0  0.09180  0.58877  0.15842  1.0000
  H   H457      1.0  0.05949  0.59872  0.15049  1.0000
  C   C569      1.0  0.19091  0.87564  0.26891  1.0000
  C   C570      1.0  0.08052  0.64069  0.12910  1.0000
  H   H458      1.0  0.07757  0.53831  0.05470  1.0000
  S   S84       1.0  0.02037  0.55799  0.03514  1.0000
  H   H459      1.0  0.19007  0.90224  0.31670  1.0000
  C   C571      1.0  0.21563  0.54800  0.16214  1.0000
  H   H460      1.0  0.22495  0.61274  0.19227  1.0000
  C   C572      1.0  0.03783  0.62635  0.22144  1.0000
  C   C573      1.0  0.00690  0.58556  0.00889  1.0000
  C   C574      1.0  0.07034  0.62965  0.10133  1.0000
  H   H461      1.0  0.02734  0.62894  0.21145  1.0000
  H   H462      1.0  0.12422  0.51063  0.17626  1.0000
  P   P19       1.0  0.11705  0.64826  0.13333  1.0000
  H   H463      1.0  0.15936  0.51403  0.16465  1.0000
  H   H464      1.0  0.18697  0.89771  0.24719  1.0000
  Fe  Fe42      1.0  0.01120  0.56679  0.06423  1.0000
  H   H465      1.0  0.05721  0.61144  0.20301  1.0000
  H   H466      1.0  0.05080  0.54387  0.12288  1.0000
  C   C575      1.0  0.08252  0.67699  0.26469  1.0000
  H   H467      1.0  0.23699  0.55910  0.23854  1.0000
  C   C576      1.0  0.16794  0.63964  0.18949  1.0000
  H   H468      1.0  0.22678  0.50155  0.17130  1.0000
  C   C577      1.0  0.21334  0.53911  0.19517  1.0000
  H   H469      1.0  0.05249  0.63423  0.12579  1.0000
  C   C578      1.0  0.04760  0.51831  0.14057  1.0000
  C   C579      1.0  0.19374  0.89315  0.25980  1.0000
  Fe  Fe43      1.0  0.00437  0.54481  0.10177  1.0000
  C   C580      1.0  0.03450  0.63288  0.23906  1.0000
  C   C581      1.0  0.21456  0.65696  0.23658  1.0000
  H   H470      1.0  0.09680  0.52634  0.10927  1.0000
  H   H471      1.0  0.04505  0.59741  0.27734  1.0000
  C   C582      1.0  0.22451  0.84894  0.31676  1.0000
  H   H472      1.0  0.08298  0.70301  0.27666  1.0000
  C   C583      1.0  0.05739  0.51414  0.09229  1.0000
  H   H473      1.0  0.09553  0.67853  0.25650  1.0000
  H   H474      1.0  0.09126  0.62605  0.07902  1.0000
  C   C584      1.0  0.23803  0.59919  0.11745  1.0000
  C   C585      1.0  0.10478  0.52541  0.15822  1.0000
  C   C586      1.0  0.06016  0.52200  0.07404  1.0000
  H   H475      1.0  0.18858  0.64056  0.26048  1.0000
  C   C587      1.0  0.03029  0.54787  0.14528  1.0000
  C   C588      1.0  0.00268  0.50015  0.10146  1.0000
  C   C589      1.0  0.17200  0.62997  0.12989  1.0000
  C   C590      1.0  0.00971  0.63255  0.29397  1.0000
  H   H476      1.0  0.02476  0.54216  0.00021  1.0000
  C   C591      1.0  0.12080  0.70969  0.11140  1.0000
  C   C592      1.0  0.01488  0.56743  0.01248  1.0000
  C   C593      1.0  0.07580  0.53174  0.06870  1.0000
  C   C594      1.0  0.13194  0.67729  0.11046  1.0000
  H   H477      1.0  0.18448  0.60324  0.12309  1.0000
  C   C595      1.0  0.04802  0.62953  0.25205  1.0000
  C   C596      1.0  0.05668  0.65853  0.27545  1.0000
  H   H478      1.0  0.01761  0.51479  0.17914  1.0000
  C   C597      1.0  0.20013  0.55479  0.09240  1.0000
  C   C598      1.0  0.05307  0.62014  0.29161  1.0000
  C   C599      1.0  0.21984  0.60187  0.22092  1.0000
  H   H479      1.0  0.02138  0.64047  0.24243  1.0000
  C   C600      1.0  0.99362  0.51022  0.01179  1.0000
  C   C601      1.0  0.22581  0.66927  0.24320  1.0000
  C   C602      1.0  0.24159  0.81946  0.31100  1.0000
  H   H480      1.0  0.08127  0.60540  0.22593  1.0000
  H   H481      1.0  0.02744  0.56249  0.14100  1.0000
  S   S85       1.0  0.99650  0.56999  0.11699  1.0000
  C   C603      1.0  0.20521  0.90483  0.26706  1.0000
  H   H482      1.0  0.18536  0.53060  0.14063  1.0000
  C   C604      1.0  0.04356  0.53721  0.13499  1.0000
  H   H483      1.0  0.04979  0.52112  0.06421  1.0000
  C   C605      1.0  0.16726  0.50112  0.19108  1.0000
  H   H484      1.0  0.21438  0.55881  0.15086  1.0000
  C   C606      1.0  0.19579  0.65523  0.18005  1.0000
  C   C607      1.0  0.13289  0.69594  0.10371  1.0000
  H   H485      1.0  0.07548  0.61673  0.25694  1.0000
  C   C608      1.0  0.05871  0.58738  0.30192  1.0000
  H   H486      1.0  0.01876  0.66962  0.26297  1.0000
  H   H487      1.0  0.10448  0.63635  0.21188  1.0000
  H   H488      1.0  0.12461  0.67011  0.16397  1.0000
  C   C609      1.0  0.06124  0.62480  0.30729  1.0000
  C   C610      1.0  0.07044  0.51564  0.10529  1.0000
  C   C611      1.0  0.20845  0.53649  0.12078  1.0000
  H   H489      1.0  0.12147  0.72412  0.10606  1.0000
  C   C612      1.0  0.05466  0.61647  0.21666  1.0000
  C   C613      1.0  0.17628  0.54724  0.11649  1.0000
  H   H490      1.0  0.09800  0.71540  0.13143  1.0000
  H   H491      1.0  0.08392  0.53659  0.14007  1.0000
  H   H492      1.0  0.99878  0.50270  0.02419  1.0000
  C   C614      1.0  0.06816  0.61305  0.22954  1.0000
  C   C615      1.0  0.09081  0.52395  0.14634  1.0000
  C   C616      1.0  0.23353  0.62092  0.14739  1.0000
  H   H493      1.0  0.10872  0.53901  0.16080  1.0000
  C   C617      1.0  0.22252  0.49964  0.13219  1.0000
  H   H494      1.0  0.23998  0.55968  0.12312  1.0000
  C   C618      1.0  0.17171  0.61197  0.12456  1.0000
  C   C619      1.0  0.16194  0.50101  0.17296  1.0000
  C   C620      1.0  0.00372  0.50878  0.99472  1.0000
  C   C621      1.0  0.13848  0.63434  0.12905  1.0000
  H   H495      1.0  0.15807  0.58224  0.25785  1.0000
  C   C622      1.0  0.22038  0.52942  0.15859  1.0000
  C   C623      1.0  0.06484  0.61949  0.24716  1.0000
  C   C624      1.0  0.00600  0.50482  0.08244  1.0000
  H   H496      1.0  0.21804  0.58692  0.24822  1.0000
  C   C625      1.0  0.10463  0.62895  0.16623  1.0000
  H   H497      1.0  0.14850  0.60293  0.28285  1.0000
  P   P20       1.0  0.04422  0.63803  0.27484  1.0000
  P   P21       1.0  0.22212  0.87411  0.31384  1.0000
  H   H498      1.0  0.17112  0.56382  0.09096  1.0000
  C   C626      1.0  0.15489  0.60502  0.12170  1.0000
  H   H499      1.0  0.05776  0.57289  0.29982  1.0000
  H   H500      1.0  0.11623  0.63652  0.09591  1.0000
  C   C627      1.0  0.21216  0.55280  0.18035  1.0000
  C   C628      1.0  0.21392  0.89897  0.28337  1.0000
  C   C629      1.0  0.02074  0.53974  0.16101  1.0000
  H   H501      1.0  0.21854  0.64867  0.19730  1.0000
  H   H502      1.0  0.20975  0.54272  0.20924  1.0000
  H   H503      1.0  0.16363  0.63214  0.28384  1.0000
  S   S86       1.0  0.00437  0.59422  0.07676  1.0000
  H   H504      1.0  0.07914  0.65043  0.25552  1.0000
  C   C630      1.0  0.15543  0.64113  0.13219  1.0000
  C   C631      1.0  0.16528  0.59461  0.25875  1.0000
  C   C632      1.0  0.11915  0.67234  0.12527  1.0000
  C   C633      1.0  0.09872  0.64086  0.12095  1.0000
  H   H505      1.0  0.15459  0.59085  0.11815  1.0000
  C   C634      1.0  0.10665  0.68615  0.13251  1.0000
  H   H506      1.0  0.07714  0.64480  0.14299  1.0000
  C   C635      1.0  0.04997  0.67225  0.28728  1.0000
  H   H507      1.0  0.14286  0.69970  0.09235  1.0000
  C   C636      1.0  0.18833  0.61570  0.24593  1.0000
  C   C637      1.0  0.01990  0.64395  0.28088  1.0000
  H   H508      1.0  0.03771  0.67046  0.29657  1.0000
  C   C638      1.0  0.01115  0.66052  0.27295  1.0000
  C   C639      1.0  0.18153  0.55608  0.09916  1.0000
  H   H509      1.0  0.01044  0.51839  0.07744  1.0000
  C   C640      1.0  0.11236  0.64516  0.15819  1.0000
  C   C641      1.0  0.10762  0.70479  0.12572  1.0000
  H   H510      1.0  0.18508  0.63503  0.13264  1.0000
  H   H511      1.0  0.18321  0.59026  0.23442  1.0000
  C   C642      1.0  0.17945  0.59928  0.24538  1.0000
  H   H512      1.0  0.01665  0.50017  0.99393  1.0000
  C   C643      1.0  0.05924  0.68837  0.28746  1.0000
  H   H513      1.0  0.10098  0.54089  0.07740  1.0000
  H   H514      1.0  0.05945  0.62479  0.09401  1.0000
  C   C644      1.0  0.06643  0.63499  0.11932  1.0000
  C   C645      1.0  0.17754  0.65207  0.17719  1.0000
  H   H515      1.0  0.12536  0.61012  0.12259  1.0000
  C   C646      1.0  0.06834  0.61081  0.32001  1.0000
  H   H516      1.0  0.19708  0.85621  0.29214  1.0000
  S   S87       1.0  0.00464  0.51655  0.11719  1.0000
  H   H517      1.0  0.22110  0.68385  0.24345  1.0000
  S   S88       1.0  0.09115  0.69290  0.31886  1.0000
  C   C647      1.0  0.20434  0.64618  0.19538  1.0000
  H   H518      1.0  0.09615  0.61309  0.19166  1.0000
  C   C648      1.0  0.01855  0.55617  0.99762  1.0000
  C   C649      1.0  0.07319  0.66094  0.26431  1.0000
  H   H519      1.0  0.20338  0.66454  0.17028  1.0000
  H   H520      1.0  0.17094  0.65903  0.16531  1.0000
  H   H521      1.0  0.15582  0.65491  0.13665  1.0000
  C   C650      1.0  0.13830  0.61608  0.12411  1.0000
  C   C651      1.0  0.19472  0.63375  0.20790  1.0000
  H   H522      1.0  0.18190  0.86664  0.26338  1.0000
  H   H523      1.0  0.05405  0.69878  0.29676  1.0000
  H   H524      1.0  0.16181  0.54812  0.12169  1.0000
  C   C652      1.0  0.17658  0.63027  0.20462  1.0000
  C   C653      1.0  0.22049  0.63801  0.23629  1.0000
  C   C654      1.0  0.18253  0.62752  0.25993  1.0000
  H   H525      1.0  0.09606  0.68250  0.14330  1.0000
  H   H526      1.0  0.15385  0.63705  0.18720  1.0000
  P   P22       1.0  0.20577  0.62223  0.22780  1.0000
  C   C655      1.0  0.08564  0.50641  0.14278  1.0000
  C   C656      1.0  0.02487  0.52101  0.16683  1.0000
  H   H527      1.0  0.20731  0.91846  0.26009  1.0000
  C   C657      1.0  0.10663  0.63888  0.19692  1.0000
  C   C658      1.0  0.21864  0.52067  0.19180  1.0000
  H   H528      1.0  0.16908  0.62027  0.21360  1.0000
  C   C659      1.0  0.11780  0.65794  0.16976  1.0000
  H   H529      1.0  0.19925  0.49753  0.15281  1.0000
  H   H530      1.0  0.10124  0.61853  0.15756  1.0000
  H   H531      1.0  0.20114  0.66219  0.23184  1.0000
  C   C660      1.0  0.10173  0.62584  0.18552  1.0000
  Fe  Fe44      1.0  0.11151  0.66814  0.31358  1.0000
  H   H532      1.0  0.11895  0.66470  0.19802  1.0000
  H   H533      1.0  0.14106  0.66678  0.10398  1.0000
  C   C661      1.0  0.15983  0.60628  0.27279  1.0000
  C   C662      1.0  0.08637  0.52508  0.09971  1.0000
  C   C663      1.0  0.10241  0.63604  0.10264  1.0000
  C   C664      1.0  0.08830  0.63026  0.09296  1.0000
  C   C665      1.0  0.16842  0.62274  0.27335  1.0000
  C   C666      1.0  0.11475  0.65487  0.18907  1.0000
  C   C667      1.0  0.22356  0.58665  0.23392  1.0000
  C   C668      1.0  0.18968  0.53740  0.12722  1.0000
  P   P23       1.0  0.06634  0.50519  0.12869  1.0000
  C   C669      1.0  0.00012  0.69886  0.32358  1.0000
  H   H534      1.0  0.22853  0.79479  0.32224  1.0000
  C   C670      1.0  0.03849  0.51040  0.15683  1.0000
  C   C671      1.0  0.11356  0.50941  0.16687  1.0000
  C   C672      1.0  0.05162  0.60132  0.28916  1.0000
  C   C673      1.0  0.06715  0.59212  0.31731  1.0000
  C   C674      1.0  0.22249  0.51586  0.17358  1.0000
  C   C675      1.0  0.19961  0.86974  0.28522  1.0000
  H   H535      1.0  0.01022  0.54804  0.16869  1.0000
  H   H536      1.0  0.01608  0.61983  0.30048  1.0000
  H   H537      1.0  0.06218  0.63921  0.30974  1.0000
  C   C676      1.0  0.23439  0.57091  0.22852  1.0000
  C   C677      1.0  0.22748  0.60123  0.20259  1.0000
  C   C678      1.0  0.24026  0.83891  0.30919  1.0000
  H   H538      1.0  0.21924  0.51002  0.20331  1.0000
  C   C679      1.0  0.21138  0.88127  0.29242  1.0000
  H   H539      1.0  0.00649  0.49547  0.05512  1.0000
  H   H540      1.0  0.20415  0.56150  0.07887  1.0000
  C   C680      1.0  0.21353  0.54483  0.10305  1.0000
  H   H541      1.0  0.99745  0.71321  0.31829  1.0000
  P   P24       1.0  0.22546  0.52374  0.13496  1.0000
  H   H542      1.0  0.04194  0.49606  0.16175  1.0000
  C   C681      1.0  0.23781  0.63158  0.24281  1.0000
  C   C682      1.0  0.22734  0.80985  0.32052  1.0000
  H   H543      1.0  0.22778  0.54367  0.09738  1.0000
  C   C683      1.0  0.24172  0.57031  0.21015  1.0000
  H   H544      1.0  0.23957  0.59081  0.10576  1.0000
  C   C684      1.0  0.23829  0.58550  0.19721  1.0000
  C   C685      1.0  0.99266  0.66577  0.27831  1.0000
  Fe  Fe45      1.0  0.08814  0.58958  0.47960  1.0000
  S   S89       1.0  0.11202  0.57293  0.49310  1.0000
  S   S90       1.0  0.08621  0.61561  0.45916  1.0000
  Fe  Fe46      1.0  0.06011  0.57284  0.50806  1.0000
  S   S91       1.0  0.08134  0.55529  0.52397  1.0000
  S   S92       1.0  0.03051  0.57447  0.51959  1.0000
  Fe  Fe47      1.0  0.09782  0.58032  0.52038  1.0000
  S   S93       1.0  0.11464  0.58694  0.54374  1.0000
  Fe  Fe48      1.0  0.09402  0.54860  0.49596  1.0000
  S   S94       1.0  0.10751  0.51896  0.49485  1.0000
  S   S95       1.0  0.07535  0.59848  0.50700  1.0000
  S   S96       1.0  0.07130  0.56462  0.48005  1.0000
  H   H545      1.0  0.01223  0.91688  0.49651  1.0000
  S   S97       1.0  0.07460  0.96168  0.43120  1.0000
  C   C686      1.0  0.01810  0.63069  0.38954  1.0000
  H   H546      1.0  0.11989  0.55588  0.57774  1.0000
  H   H547      1.0  0.01454  0.61563  0.42628  1.0000
  Fe  Fe49      1.0  0.10394  0.96295  0.41881  1.0000
  S   S98       1.0  0.12544  0.93958  0.42776  1.0000
  H   H548      1.0  0.09009  0.50643  0.59857  1.0000
  C   C687      1.0  0.09651  0.49846  0.49214  1.0000
  C   C688      1.0  0.05354  0.92288  0.36588  1.0000
  C   C689      1.0  0.10312  0.98883  0.51058  1.0000
  C   C690      1.0  0.08672  0.84682  0.35778  1.0000
  S   S99       1.0  0.08538  0.96470  0.57172  1.0000
  H   H549      1.0  0.08526  0.86532  0.41551  1.0000
  C   C691      1.0  0.03087  0.51262  0.51167  1.0000
  H   H550      1.0  0.02083  0.94742  0.51150  1.0000
  Fe  Fe50      1.0  0.09988  0.97088  0.59633  1.0000
  S   S100      1.0  0.11386  0.94748  0.61466  1.0000
  H   H551      1.0  0.05381  0.52548  0.65544  1.0000
  Fe  Fe51      1.0  0.16932  0.85175  0.58590  1.0000
  S   S101      1.0  0.19944  0.85576  0.57891  1.0000
  S   S102      1.0  0.14741  0.87478  0.57709  1.0000
  Fe  Fe52      1.0  0.17723  0.80920  0.59606  1.0000
  S   S103      1.0  0.20821  0.81095  0.58938  1.0000
  S   S104      1.0  0.16051  0.78289  0.60045  1.0000
  Fe  Fe53      1.0  0.20519  0.83711  0.60480  1.0000
  H   H552      1.0  0.07704  0.52075  0.56802  1.0000
  Fe  Fe54      1.0  0.20021  0.82979  0.56394  1.0000
  S   S105      1.0  0.21423  0.83156  0.53436  1.0000
  S   S106      1.0  0.17439  0.83446  0.61270  1.0000
  S   S107      1.0  0.16993  0.82668  0.56980  1.0000
  Fe  Fe55      1.0  0.18004  0.80164  0.39180  1.0000
  S   S108      1.0  0.20448  0.80321  0.40940  1.0000
  S   S109      1.0  0.17523  0.77307  0.38121  1.0000
  Fe  Fe56      1.0  0.16819  0.84320  0.39498  1.0000
  S   S110      1.0  0.19127  0.84725  0.41257  1.0000
  S   S111      1.0  0.14764  0.86695  0.38502  1.0000
  Fe  Fe57      1.0  0.20976  0.83051  0.39252  1.0000
  C   C692      1.0  0.00713  0.98334  0.60093  1.0000
  Fe  Fe58      1.0  0.18468  0.82003  0.42813  1.0000
  S   S112      1.0  0.17845  0.81514  0.45979  1.0000
  S   S113      1.0  0.18673  0.82799  0.37388  1.0000
  S   S114      1.0  0.16010  0.81692  0.41155  1.0000
  Fe  Fe59      1.0  0.09679  0.65756  0.62473  1.0000
  S   S115      1.0  0.08679  0.68672  0.63149  1.0000
  S   S116      1.0  0.08814  0.65075  0.59670  1.0000
  Fe  Fe60      1.0  0.11278  0.68657  0.64661  1.0000
  C   C693      1.0  0.16478  0.98335  0.60511  1.0000
  S   S117      1.0  0.12387  0.65822  0.63804  1.0000
  Fe  Fe61      1.0  0.10965  0.65501  0.35538  1.0000
  S   S118      1.0  0.08906  0.67830  0.36300  1.0000
  S   S119      1.0  0.11995  0.63132  0.37586  1.0000
  Fe  Fe62      1.0  0.07462  0.67278  0.33780  1.0000
  H   H553      1.0  0.07281  0.58135  0.32714  1.0000
  Fe  Fe63      1.0  0.10736  0.69670  0.34373  1.0000
  S   S120      1.0  0.11274  0.72597  0.35208  1.0000
  S   S121      1.0  0.11774  0.99159  0.58042  1.0000
  S   S122      1.0  0.12869  0.67331  0.33714  1.0000
  Fe  Fe64      1.0  0.07680  0.99080  0.43779  1.0000
  C   C694      1.0  0.02205  0.67353  0.33432  1.0000
  H   H554      1.0  0.12708  0.52130  0.53252  1.0000
  C   C695      1.0  0.01653  0.61373  0.59588  1.0000
  C   C696      1.0  0.20762  0.88250  0.33318  1.0000
  S   S123      1.0  0.09517  0.97414  0.39049  1.0000
  H   H555      1.0  0.03780  0.89738  0.48175  1.0000
  H   H556      1.0  0.00426  0.66464  0.37620  1.0000
  C   C697      1.0  0.15757  0.76031  0.37306  1.0000
  C   C698      1.0  0.16177  0.74151  0.36954  1.0000
  C   C699      1.0  0.14837  0.73078  0.36326  1.0000
  C   C700      1.0  0.13043  0.73867  0.36022  1.0000
  C   C701      1.0  0.12622  0.75745  0.36380  1.0000
  C   C702      1.0  0.13957  0.76814  0.37021  1.0000
  H   H557      1.0  0.17554  0.73515  0.37170  1.0000
  H   H558      1.0  0.15198  0.71644  0.36064  1.0000
  H   H559      1.0  0.11249  0.76384  0.36150  1.0000
  H   H560      1.0  0.13595  0.78250  0.37280  1.0000
  C   C703      1.0  0.15307  0.76244  0.61410  1.0000
  C   C704      1.0  0.13945  0.75235  0.60758  1.0000
  C   C705      1.0  0.13293  0.73629  0.61792  1.0000
  C   C706      1.0  0.13994  0.72999  0.63504  1.0000
  C   C707      1.0  0.15357  0.74006  0.64152  1.0000
  C   C708      1.0  0.16006  0.75611  0.63123  1.0000
  H   H561      1.0  0.13389  0.75697  0.59438  1.0000
  H   H562      1.0  0.12245  0.72884  0.61264  1.0000
  C   C709      1.0  0.13445  0.82836  0.51430  1.0000
  H   H563      1.0  0.17063  0.76344  0.63648  1.0000
  C   C710      1.0  0.20420  0.82690  0.51369  1.0000
  C   C711      1.0  0.18720  0.81901  0.51422  1.0000
  C   C712      1.0  0.17987  0.81522  0.49761  1.0000
  C   C713      1.0  0.18919  0.81947  0.48017  1.0000
  C   C714      1.0  0.20628  0.82727  0.47960  1.0000
  C   C715      1.0  0.00890  0.50758  0.45688  1.0000
  H   H564      1.0  0.17982  0.81556  0.52746  1.0000
  H   H565      1.0  0.16687  0.80884  0.49829  1.0000
  H   H566      1.0  0.07373  0.92482  0.41461  1.0000
  H   H567      1.0  0.10233  0.87807  0.38376  1.0000
  H   H568      1.0  0.03208  0.56350  0.48174  1.0000
  C   C716      1.0  0.99793  0.68570  0.51333  1.0000
  C   C717      1.0  0.12417  0.92769  0.60407  1.0000
  C   C718      1.0  0.12365  0.92641  0.58500  1.0000
  C   C719      1.0  0.13114  0.91025  0.57699  1.0000
  C   C720      1.0  0.13932  0.89518  0.58788  1.0000
  C   C721      1.0  0.13996  0.89646  0.60695  1.0000
  C   C722      1.0  0.13248  0.91270  0.61499  1.0000
  H   H569      1.0  0.11736  0.93783  0.57641  1.0000
  H   H570      1.0  0.13053  0.90947  0.56226  1.0000
  H   H571      1.0  0.14595  0.88486  0.61557  1.0000
  H   H572      1.0  0.13291  0.91355  0.62976  1.0000
  C   C723      1.0  0.14217  0.88717  0.39703  1.0000
  C   C724      1.0  0.13377  0.90317  0.38764  1.0000
  C   C725      1.0  0.12884  0.91939  0.39681  1.0000
  C   C726      1.0  0.13186  0.91964  0.41555  1.0000
  C   C727      1.0  0.14036  0.90368  0.42491  1.0000
  C   C728      1.0  0.14562  0.88756  0.41570  1.0000
  H   H573      1.0  0.13121  0.90305  0.37316  1.0000
  H   H574      1.0  0.12277  0.93176  0.38937  1.0000
  H   H575      1.0  0.14255  0.90369  0.43947  1.0000
  H   H576      1.0  0.15202  0.87534  0.42312  1.0000
  C   C729      1.0  0.15889  0.95900  0.62961  1.0000
  Fe  Fe65      1.0  0.06576  0.97486  0.40378  1.0000
  C   C730      1.0  0.01332  0.98094  0.41463  1.0000
  S   S124      1.0  0.23743  0.84422  0.38458  1.0000
  C   C731      1.0  0.18446  0.89399  0.61213  1.0000
  H   H577      1.0  0.09636  0.50955  0.54106  1.0000
  H   H578      1.0  0.19403  0.79623  0.63845  1.0000
  C   C732      1.0  0.99774  0.89304  0.55933  1.0000
  C   C733      1.0  0.06156  0.52136  0.64289  1.0000
  C   C734      1.0  0.03461  0.52923  0.53844  1.0000
  H   H579      1.0  0.99961  0.58892  0.38696  1.0000
  C   C735      1.0  0.05622  0.63551  0.38382  1.0000
  H   H580      1.0  0.22426  0.93210  0.59715  1.0000
  H   H581      1.0  0.09133  0.92470  0.44251  1.0000
  C   C736      1.0  0.02669  0.64144  0.40107  1.0000
  H   H582      1.0  0.17127  0.59579  0.49655  1.0000
  H   H583      1.0  0.01304  0.69969  0.62322  1.0000
  H   H584      1.0  0.03461  0.94251  0.57502  1.0000
  C   C737      1.0  0.15589  0.55778  0.47239  1.0000
  H   H585      1.0  0.20020  0.98598  0.61148  1.0000
  C   C738      1.0  0.09528  0.61941  0.43583  1.0000
  C   C739      1.0  0.10651  0.60579  0.42702  1.0000
  C   C740      1.0  0.11400  0.60964  0.40867  1.0000
  C   C741      1.0  0.11001  0.62702  0.39884  1.0000
  C   C742      1.0  0.09862  0.64060  0.40763  1.0000
  C   C743      1.0  0.09134  0.63681  0.42605  1.0000
  H   H586      1.0  0.10932  0.59231  0.43436  1.0000
  H   H587      1.0  0.12281  0.59908  0.40197  1.0000
  H   H588      1.0  0.09556  0.65405  0.40030  1.0000
  H   H589      1.0  0.08264  0.64744  0.43275  1.0000
  C   C744      1.0  0.10697  0.60450  0.55858  1.0000
  C   C745      1.0  0.11808  0.60792  0.57273  1.0000
  C   C746      1.0  0.11253  0.62198  0.58463  1.0000
  C   C747      1.0  0.09572  0.63262  0.58252  1.0000
  C   C748      1.0  0.08457  0.62910  0.56841  1.0000
  C   C749      1.0  0.09014  0.61510  0.55650  1.0000
  H   H590      1.0  0.13111  0.59976  0.57444  1.0000
  H   H591      1.0  0.12126  0.62465  0.59536  1.0000
  H   H592      1.0  0.07156  0.63726  0.56667  1.0000
  H   H593      1.0  0.08147  0.61261  0.54566  1.0000
  H   H594      1.0  0.07025  0.51228  0.48528  1.0000
  C   C750      1.0  0.00597  0.94739  0.53828  1.0000
  C   C751      1.0  0.01838  0.56185  0.48825  1.0000
  C   C752      1.0  0.01421  0.56580  0.50669  1.0000
  H   H595      1.0  0.09456  0.79557  0.64645  1.0000
  C   C753      1.0  0.08653  0.87844  0.42114  1.0000
  H   H596      1.0  0.03883  0.65284  0.64347  1.0000
  H   H597      1.0  0.13870  0.54457  0.55092  1.0000
  H   H598      1.0  0.20058  0.81222  0.33554  1.0000
  H   H599      1.0  0.05604  0.73235  0.37487  1.0000
  C   C754      1.0  0.12300  0.83907  0.63455  1.0000
  H   H600      1.0  0.20130  0.94574  0.53471  1.0000
  C   C755      1.0  0.02875  0.62274  0.37486  1.0000
  C   C756      1.0  0.14032  0.98845  0.62915  1.0000
  C   C757      1.0  0.04772  0.62511  0.37211  1.0000
  H   H601      1.0  0.16061  0.80038  0.63441  1.0000
  C   C758      1.0  0.21160  0.81969  0.32804  1.0000
  H   H602      1.0  0.05145  0.67057  0.51923  1.0000
  C   C759      1.0  0.09450  0.76628  0.65441  1.0000
  H   H603      1.0  0.99726  0.67072  0.55246  1.0000
  H   H604      1.0  0.02323  0.61855  0.55749  1.0000
  H   H605      1.0  0.00501  0.92422  0.41645  1.0000
  C   C760      1.0  0.09589  0.98536  0.47907  1.0000
  C   C761      1.0  0.22968  0.98166  0.61112  1.0000
  H   H606      1.0  0.04136  0.53963  0.54474  1.0000
  H   H607      1.0  0.22188  0.87618  0.52570  1.0000
  C   C762      1.0  0.12260  0.83744  0.60136  1.0000
  H   H608      1.0  0.03002  0.90900  0.52679  1.0000
  H   H609      1.0  0.15999  0.49526  0.58796  1.0000
  Fe  Fe66      1.0  0.10150  0.98702  0.55655  1.0000
  C   C763      1.0  0.18476  0.89417  0.36362  1.0000
  H   H610      1.0  0.12592  0.80986  0.59209  1.0000
  H   H611      1.0  0.05578  0.61937  0.36052  1.0000
  H   H612      1.0  0.00391  0.52036  0.44921  1.0000
  H   H613      1.0  0.01836  0.94585  0.54581  1.0000
  H   H614      1.0  0.16137  0.94496  0.63587  1.0000
  S   S125      1.0  0.04101  0.96349  0.39224  1.0000
  H   H615      1.0  0.00105  0.88858  0.58865  1.0000
  H   H616      1.0  0.00043  0.49966  0.54783  1.0000
  C   C764      1.0  0.02844  0.61176  0.47977  1.0000
  H   H617      1.0  0.05462  0.97750  0.52251  1.0000
  H   H618      1.0  0.22693  0.83691  0.49563  1.0000
  C   C765      1.0  0.15346  0.57135  0.45746  1.0000
  H   H619      1.0  0.04753  0.62023  0.45693  1.0000
  C   C766      1.0  0.19729  0.90475  0.63863  1.0000
  C   C767      1.0  0.10677  0.88532  0.54479  1.0000
  C   C768      1.0  0.10323  0.86703  0.55090  1.0000
  C   C769      1.0  0.08527  0.86275  0.55721  1.0000
  C   C770      1.0  0.07084  0.87681  0.55765  1.0000
  C   C771      1.0  0.07431  0.89527  0.55161  1.0000
  C   C772      1.0  0.09240  0.89944  0.54524  1.0000
  P   P25       1.0  0.05657  0.91394  0.55472  1.0000
  C   C773      1.0  0.05846  0.93078  0.53467  1.0000
  C   C774      1.0  0.03378  0.90515  0.55631  1.0000
  C   C775      1.0  0.02404  0.90457  0.54039  1.0000
  S   S126      1.0  0.11721  0.98272  0.52910  1.0000
  H   H620      1.0  0.01030  0.64127  0.63330  1.0000
  H   H621      1.0  0.01285  0.58623  0.60895  1.0000
  C   C776      1.0  0.02543  0.89906  0.57372  1.0000
  C   C777      1.0  0.05636  0.94998  0.53656  1.0000
  C   C778      1.0  0.05651  0.96271  0.52085  1.0000
  C   C779      1.0  0.05897  0.95646  0.50312  1.0000
  C   C780      1.0  0.06154  0.93744  0.50107  1.0000
  C   C781      1.0  0.06144  0.92464  0.51677  1.0000
  C   C782      1.0  0.05942  0.92365  0.57635  1.0000
  C   C783      1.0  0.07415  0.91699  0.58730  1.0000
  H   H622      1.0  0.12080  0.88860  0.54028  1.0000
  H   H623      1.0  0.11452  0.85627  0.55112  1.0000
  H   H624      1.0  0.08265  0.84856  0.56212  1.0000
  H   H625      1.0  0.05715  0.87329  0.56310  1.0000
  H   H626      1.0  0.09556  0.91369  0.54124  1.0000
  S   S127      1.0  0.08257  0.64349  0.65025  1.0000
  C   C784      1.0  0.02535  0.65870  0.64839  1.0000
  H   H627      1.0  0.01102  0.69011  0.51688  1.0000
  H   H628      1.0  0.05575  0.61480  0.62906  1.0000
  H   H629      1.0  0.03271  0.89903  0.58620  1.0000
  H   H630      1.0  0.05439  0.95536  0.55001  1.0000
  S   S128      1.0  0.03428  0.98519  0.57120  1.0000
  C   C785      1.0  0.01132  0.50694  0.53994  1.0000
  H   H631      1.0  0.06362  0.93273  0.48726  1.0000
  H   H632      1.0  0.06339  0.90992  0.51494  1.0000
  H   H633      1.0  0.08455  0.90644  0.58286  1.0000
  P   P26       1.0  0.15922  0.88524  0.50233  1.0000
  C   C786      1.0  0.17053  0.88678  0.47921  1.0000
  C   C787      1.0  0.14895  0.85392  0.52510  1.0000
  C   C788      1.0  0.14147  0.83665  0.52862  1.0000
  C   C789      1.0  0.16990  0.90361  0.46787  1.0000
  C   C790      1.0  0.17854  0.90440  0.44989  1.0000
  C   C791      1.0  0.18782  0.88844  0.44314  1.0000
  C   C792      1.0  0.18871  0.87175  0.45446  1.0000
  C   C793      1.0  0.14085  0.90365  0.50339  1.0000
  C   C794      1.0  0.14423  0.92106  0.50890  1.0000
  C   C795      1.0  0.12993  0.93517  0.50993  1.0000
  C   C796      1.0  0.11232  0.93229  0.50477  1.0000
  C   C797      1.0  0.10902  0.91525  0.49859  1.0000
  C   C798      1.0  0.12317  0.90093  0.49800  1.0000
  H   H634      1.0  0.15459  0.85992  0.53639  1.0000
  H   H635      1.0  0.14155  0.82947  0.54240  1.0000
  H   H636      1.0  0.16255  0.91608  0.47266  1.0000
  H   H637      1.0  0.17757  0.91728  0.44099  1.0000
  H   H638      1.0  0.19414  0.88893  0.42907  1.0000
  H   H639      1.0  0.15794  0.92381  0.51229  1.0000
  H   H640      1.0  0.13253  0.94848  0.51448  1.0000
  H   H641      1.0  0.10135  0.94340  0.50535  1.0000
  H   H642      1.0  0.09555  0.91315  0.49409  1.0000
  H   H643      1.0  0.12033  0.88787  0.49315  1.0000
  C   C799      1.0  0.09670  0.87855  0.43673  1.0000
  C   C800      1.0  0.09833  0.89523  0.44446  1.0000
  H   H644      1.0  0.10365  0.86576  0.44256  1.0000
  H   H645      1.0  0.10667  0.89548  0.45617  1.0000
  H   H646      1.0  0.11545  0.54426  0.61549  1.0000
  C   C801      1.0  0.03498  0.59860  0.62020  1.0000
  C   C802      1.0  0.04498  0.61431  0.61961  1.0000
  C   C803      1.0  0.04083  0.62972  0.60715  1.0000
  C   C804      1.0  0.02624  0.62977  0.59546  1.0000
  C   C805      1.0  0.00729  0.94835  0.51886  1.0000
  P   P27       1.0  0.02009  0.65024  0.58016  1.0000
  C   C806      1.0  0.03020  0.64711  0.55692  1.0000
  H   H647      1.0  0.23541  0.86635  0.65656  1.0000
  H   H648      1.0  0.13618  0.96535  0.64954  1.0000
  C   C807      1.0  0.06694  0.50261  0.64105  1.0000
  H   H649      1.0  0.17605  0.91487  0.59095  1.0000
  H   H650      1.0  0.12072  0.97327  0.49124  1.0000
  C   C808      1.0  0.18436  0.79833  0.65040  1.0000
  C   C809      1.0  0.02942  0.63002  0.54942  1.0000
  C   C810      1.0  0.03649  0.62759  0.53123  1.0000
  C   C811      1.0  0.04462  0.64211  0.52043  1.0000
  C   C812      1.0  0.04518  0.65928  0.52762  1.0000
  C   C813      1.0  0.03773  0.66189  0.54568  1.0000
  C   C814      1.0  0.02757  0.67008  0.59015  1.0000
  C   C815      1.0  0.04596  0.67490  0.58694  1.0000
  C   C816      1.0  0.05230  0.68877  0.59644  1.0000
  C   C817      1.0  0.04041  0.69783  0.60939  1.0000
  C   C818      1.0  0.99530  0.65401  0.57875  1.0000
  H   H651      1.0  0.22738  0.87745  0.59308  1.0000
  C   C819      1.0  0.19190  0.89023  0.62939  1.0000
  C   C820      1.0  0.07811  0.49901  0.48758  1.0000
  C   C821      1.0  0.00676  0.64420  0.46927  1.0000
  H   H652      1.0  0.04879  0.64169  0.60716  1.0000
  C   C822      1.0  0.19943  0.88071  0.36639  1.0000
  H   H653      1.0  0.19769  0.84643  0.33190  1.0000
  C   C823      1.0  0.00455  0.55618  0.47800  1.0000
  C   C824      1.0  0.01122  0.98461  0.58168  1.0000
  C   C825      1.0  0.12575  0.80917  0.62181  1.0000
  H   H654      1.0  0.15912  0.73541  0.65468  1.0000
  C   C826      1.0  0.06104  0.86683  0.36997  1.0000
  H   H655      1.0  0.03690  0.92458  0.40232  1.0000
  H   H656      1.0  0.05040  0.64003  0.50645  1.0000
  H   H657      1.0  0.04638  0.87116  0.37062  1.0000
  C   C827      1.0  0.01633  0.50341  0.52142  1.0000
  H   H658      1.0  0.05575  0.66727  0.57788  1.0000
  H   H659      1.0  0.06673  0.69183  0.59438  1.0000
  H   H660      1.0  0.04557  0.70797  0.61738  1.0000
  S   S129      1.0  0.13191  0.71015  0.64930  1.0000
  H   H661      1.0  0.12610  0.50332  0.58801  1.0000
  H   H662      1.0  0.12130  0.62379  0.51885  1.0000
  H   H663      1.0  0.99626  0.51579  0.48288  1.0000
  H   H664      1.0  0.01975  0.92314  0.61274  1.0000
  C   C828      1.0  0.03313  0.91067  0.47487  1.0000
  C   C829      1.0  0.22596  0.58647  0.46558  1.0000
  C   C830      1.0  0.06774  0.85223  0.35931  1.0000
  H   H665      1.0  0.08544  0.69064  0.40956  1.0000
  C   C831      1.0  0.07845  0.89514  0.41278  1.0000
  H   H666      1.0  0.12265  0.84755  0.64605  1.0000
  C   C832      1.0  0.11744  0.57080  0.62581  1.0000
  C   C833      1.0  0.04119  0.91647  0.45737  1.0000
  C   C834      1.0  0.00748  0.89308  0.57518  1.0000
  C   C835      1.0  0.05603  0.93861  0.35347  1.0000
  H   H667      1.0  0.14851  0.65073  0.41667  1.0000
  C   C836      1.0  0.04626  0.93727  0.58297  1.0000
  H   H668      1.0  0.12921  0.81472  0.51696  1.0000
  C   C837      1.0  0.07302  0.94661  0.35159  1.0000
  H   H669      1.0  0.00699  0.60638  0.50110  1.0000
  P   P28       1.0  0.18695  0.95040  0.60223  1.0000
  C   C838      1.0  0.09392  0.59495  0.61701  1.0000
  C   C839      1.0  0.08591  0.58268  0.60675  1.0000
  C   C840      1.0  0.09363  0.56428  0.60599  1.0000
  C   C841      1.0  0.10941  0.55843  0.61569  1.0000
  P   P29       1.0  0.08264  0.54752  0.59441  1.0000
  C   C842      1.0  0.07636  0.52968  0.61234  1.0000
  C   C843      1.0  0.06237  0.55834  0.58371  1.0000
  C   C844      1.0  0.04452  0.55280  0.58928  1.0000
  C   C845      1.0  0.02913  0.56124  0.58041  1.0000
  C   C846      1.0  0.03146  0.57524  0.56601  1.0000
  C   C847      1.0  0.04920  0.58067  0.56033  1.0000
  C   C848      1.0  0.06459  0.57217  0.56902  1.0000
  H   H670      1.0  0.07828  0.57635  0.56423  1.0000
  C   C849      1.0  0.09745  0.53834  0.57566  1.0000
  C   C850      1.0  0.11489  0.54504  0.57058  1.0000
  C   C851      1.0  0.12565  0.53867  0.55526  1.0000
  C   C852      1.0  0.11908  0.52565  0.54484  1.0000
  C   C853      1.0  0.10170  0.51898  0.54972  1.0000
  C   C854      1.0  0.09082  0.52543  0.56494  1.0000
  H   H671      1.0  0.00639  0.95243  0.38164  1.0000
  H   H672      1.0  0.07377  0.58776  0.59953  1.0000
  C   C855      1.0  0.08192  0.51083  0.61068  1.0000
  H   H673      1.0  0.04239  0.54189  0.60026  1.0000
  H   H674      1.0  0.01538  0.55690  0.58459  1.0000
  H   H675      1.0  0.01960  0.58160  0.55891  1.0000
  H   H676      1.0  0.05112  0.59116  0.54886  1.0000
  H   H677      1.0  0.09193  0.83552  0.34953  1.0000
  C   C856      1.0  0.06631  0.53486  0.62865  1.0000
  H   H678      1.0  0.07864  0.75497  0.37966  1.0000
  C   C857      1.0  0.06711  0.72836  0.38398  1.0000
  H   H679      1.0  0.12638  0.61269  0.46151  1.0000
  H   H680      1.0  0.19351  0.87602  0.63558  1.0000
  C   C858      1.0  0.20777  0.88205  0.52825  1.0000
  C   C859      1.0  0.08976  0.91177  0.43663  1.0000
  C   C860      1.0  0.14944  0.86302  0.50712  1.0000
  C   C861      1.0  0.07578  0.92408  0.60433  1.0000
  H   H681      1.0  0.08724  0.91902  0.61263  1.0000
  H   H682      1.0  0.20964  0.94569  0.56705  1.0000
  H   H683      1.0  0.11385  0.85222  0.36537  1.0000
  C   C862      1.0  0.01565  0.67941  0.60308  1.0000
  C   C863      1.0  0.07981  0.74113  0.38674  1.0000
  H   H684      1.0  0.05943  0.70029  0.39002  1.0000
  H   H685      1.0  0.17575  0.89840  0.37537  1.0000
  C   C864      1.0  0.20978  0.95840  0.60355  1.0000
  C   C865      1.0  0.07997  0.91180  0.42075  1.0000
  C   C866      1.0  0.00042  0.63216  0.48432  1.0000
  C   C867      1.0  0.06907  0.71029  0.39251  1.0000
  C   C868      1.0  0.13489  0.83732  0.49638  1.0000
  C   C869      1.0  0.14227  0.85460  0.49279  1.0000
  C   C870      1.0  0.18011  0.87093  0.47238  1.0000
  H   H686      1.0  0.00770  0.55341  0.46364  1.0000
  H   H687      1.0  0.13013  0.83057  0.48509  1.0000
  H   H688      1.0  0.14273  0.86117  0.47874  1.0000
  C   C871      1.0  0.03100  0.91135  0.40579  1.0000
  C   C872      1.0  0.09906  0.85617  0.36670  1.0000
  S   S130      1.0  0.04466  0.66409  0.33983  1.0000
  C   C873      1.0  0.12164  0.84792  0.61666  1.0000
  H   H689      1.0  0.01600  0.52314  0.56240  1.0000
  C   C874      1.0  0.09243  0.87078  0.37729  1.0000
  C   C875      1.0  0.18790  0.92693  0.61317  1.0000
  C   C876      1.0  0.09459  0.73581  0.39785  1.0000
  H   H690      1.0  0.01113  0.89422  0.63109  1.0000
  C   C877      1.0  0.00545  0.91976  0.61417  1.0000
  H   H691      1.0  0.12546  0.54862  0.43301  1.0000
  C   C878      1.0  0.03448  0.62365  0.46463  1.0000
  C   C879      1.0  0.04832  0.94471  0.59974  1.0000
  C   C880      1.0  0.18225  0.91229  0.60412  1.0000
  P   P30       1.0  0.16329  0.59342  0.45760  1.0000
  C   C881      1.0  0.08390  0.70487  0.40353  1.0000
  H   H692      1.0  0.11553  0.72250  0.45815  1.0000
  H   H693      1.0  0.12871  0.74882  0.47035  1.0000
  H   H694      1.0  0.10439  0.74590  0.39929  1.0000
  C   C882      1.0  0.13031  0.74711  0.45562  1.0000
  C   C883      1.0  0.00728  0.66190  0.33704  1.0000
  C   C884      1.0  0.06307  0.93814  0.61041  1.0000
  C   C885      1.0  0.21370  0.83095  0.49625  1.0000
  H   H695      1.0  0.20191  0.87455  0.38026  1.0000
  C   C886      1.0  0.04572  0.64367  0.39832  1.0000
  C   C887      1.0  0.09687  0.71758  0.40625  1.0000
  C   C888      1.0  0.12283  0.73220  0.44861  1.0000
  C   C889      1.0  0.21011  0.83913  0.32608  1.0000
  H   H696      1.0  0.03577  0.61436  0.52553  1.0000
  H   H697      1.0  0.10821  0.62583  0.48809  1.0000
  C   C890      1.0  0.07331  0.87588  0.37943  1.0000
  H   H698      1.0  0.04173  0.86462  0.40615  1.0000
  H   H699      1.0  0.15129  0.63295  0.44715  1.0000
  P   P31       1.0  0.06508  0.89506  0.39284  1.0000
  H   H700      1.0  0.14609  0.77119  0.44907  1.0000
  C   C891      1.0  0.18389  0.89630  0.54865  1.0000
  H   H701      1.0  0.06490  0.94416  0.62323  1.0000
  H   H702      1.0  0.09646  0.91700  0.38220  1.0000
  H   H703      1.0  0.03860  0.95581  0.60432  1.0000
  C   C892      1.0  0.12509  0.72984  0.42953  1.0000
  C   C893      1.0  0.14011  0.75973  0.44367  1.0000
  C   C894      1.0  0.15392  0.63633  0.41745  1.0000
  H   H704      1.0  0.15784  0.63576  0.38774  1.0000
  C   C895      1.0  0.16922  0.96539  0.61344  1.0000
  P   P32       1.0  0.11627  0.71024  0.42022  1.0000
  C   C896      1.0  0.12222  0.61982  0.48969  1.0000
  H   H705      1.0  0.13016  0.52467  0.45930  1.0000
  C   C897      1.0  0.03368  0.87769  0.40791  1.0000
  C   C898      1.0  0.08511  0.92308  0.37437  1.0000
  H   H706      1.0  0.19914  0.87377  0.50295  1.0000
  H   H707      1.0  0.13199  0.67353  0.43528  1.0000
  H   H708      1.0  0.11556  0.68340  0.39240  1.0000
  C   C899      1.0  0.15931  0.62795  0.40111  1.0000
  C   C900      1.0  0.15523  0.62607  0.43469  1.0000
  C   C901      1.0  0.13685  0.53758  0.45865  1.0000
  C   C902      1.0  0.13419  0.55108  0.44386  1.0000
  C   C903      1.0  0.13260  0.61245  0.47463  1.0000
  H   H709      1.0  0.24073  0.58495  0.46732  1.0000
  H   H710      1.0  0.04030  0.91687  0.36710  1.0000
  H   H711      1.0  0.00994  0.64750  0.34220  1.0000
  C   C904      1.0  0.06796  0.91534  0.37680  1.0000
  H   H712      1.0  0.10086  0.94482  0.36036  1.0000
  C   C905      1.0  0.07715  0.49736  0.62497  1.0000
  H   H713      1.0  0.00961  0.86444  0.42027  1.0000
  C   C906      1.0  0.14240  0.75746  0.42470  1.0000
  C   C907      1.0  0.13496  0.74260  0.41768  1.0000
  H   H714      1.0  0.13971  0.57830  0.43192  1.0000
  H   H715      1.0  0.99562  0.94459  0.59803  1.0000
  C   C908      1.0  0.04131  0.89463  0.40215  1.0000
  C   C909      1.0  0.08764  0.93869  0.36187  1.0000
  H   H716      1.0  0.11589  0.59871  0.63429  1.0000
  C   C910      1.0  0.11862  0.67651  0.44247  1.0000
  C   C911      1.0  0.13434  0.69874  0.40577  1.0000
  H   H717      1.0  0.15015  0.76713  0.41541  1.0000
  C   C912      1.0  0.17619  0.88737  0.51885  1.0000
  C   C913      1.0  0.14765  0.54094  0.47293  1.0000
  C   C914      1.0  0.14239  0.56793  0.44328  1.0000
  C   C915      1.0  0.12957  0.61866  0.50702  1.0000
  H   H718      1.0  0.14911  0.53067  0.48468  1.0000
  H   H719      1.0  0.07481  0.95903  0.34229  1.0000
  C   C916      1.0  0.15062  0.60425  0.47670  1.0000
  C   C917      1.0  0.01556  0.87754  0.41612  1.0000
  H   H720      1.0  0.03806  0.58681  0.63008  1.0000
  C   C918      1.0  0.10822  0.69345  0.43845  1.0000
  C   C919      1.0  0.12981  0.68603  0.39369  1.0000
  C   C920      1.0  0.15312  0.70138  0.40737  1.0000
  H   H721      1.0  0.13713  0.74089  0.40298  1.0000
  H   H722      1.0  0.15720  0.71067  0.41689  1.0000
  C   C921      1.0  0.16630  0.60938  0.40194  1.0000
  C   C922      1.0  0.16152  0.60715  0.43560  1.0000
  H   H723      1.0  0.05824  0.84520  0.35208  1.0000
  C   C923      1.0  0.11155  0.66302  0.45555  1.0000
  C   C924      1.0  0.00316  0.96155  0.39263  1.0000
  H   H724      1.0  0.17039  0.60293  0.38920  1.0000
  H   H725      1.0  0.11928  0.64971  0.45808  1.0000
  C   C925      1.0  0.19472  0.88060  0.51536  1.0000
  H   H726      1.0  0.15636  0.89864  0.53962  1.0000
  H   H727      1.0  0.18083  0.85786  0.48092  1.0000
  H   H728      1.0  0.16379  0.56039  0.48382  1.0000
  C   C926      1.0  0.16765  0.59908  0.41912  1.0000
  H   H729      1.0  0.00531  0.61330  0.58700  1.0000
  Fe  Fe67      1.0  0.06391  0.98752  0.57964  1.0000
  H   H730      1.0  0.23352  0.89272  0.62071  1.0000
  C   C927      1.0  0.19293  0.89616  0.33047  1.0000
  C   C928      1.0  0.21077  0.87488  0.35125  1.0000
  H   H731      1.0  0.01814  0.98362  0.61009  1.0000
  C   C929      1.0  0.99579  0.60124  0.44548  1.0000
  C   C930      1.0  0.09102  0.69697  0.44829  1.0000
  C   C931      1.0  0.14375  0.67638  0.38321  1.0000
  H   H732      1.0  0.14010  0.66641  0.37414  1.0000
  C   C932      1.0  0.17077  0.89461  0.53592  1.0000
  C   C933      1.0  0.14732  0.61013  0.50932  1.0000
  C   C934      1.0  0.18129  0.95036  0.57837  1.0000
  H   H733      1.0  0.24177  0.89334  0.33988  1.0000
  H   H734      1.0  0.17317  0.58470  0.41952  1.0000
  H   H735      1.0  0.04464  0.94486  0.34565  1.0000
  C   C935      1.0  0.15781  0.60289  0.49426  1.0000
  H   H736      1.0  0.15266  0.60867  0.52298  1.0000
  C   C936      1.0  0.21707  0.57160  0.46032  1.0000
  C   C937      1.0  0.01768  0.96916  0.40044  1.0000
  H   H737      1.0  0.00593  0.59773  0.45568  1.0000
  H   H738      1.0  0.07088  0.63753  0.38137  1.0000
  C   C938      1.0  0.02368  0.63988  0.45940  1.0000
  C   C939      1.0  0.19534  0.92305  0.63055  1.0000
  C   C940      1.0  0.09424  0.66642  0.46496  1.0000
  C   C941      1.0  0.16700  0.69200  0.39653  1.0000
  H   H739      1.0  0.08286  0.71000  0.44545  1.0000
  C   C942      1.0  0.01141  0.61590  0.48952  1.0000
  C   C943      1.0  0.00516  0.89429  0.41906  1.0000
  C   C944      1.0  0.14454  0.97055  0.63744  1.0000
  C   C945      1.0  0.10968  0.58906  0.62649  1.0000
  H   H740      1.0  0.22497  0.55857  0.45791  1.0000
  H   H741      1.0  0.12775  0.79414  0.62343  1.0000
  C   C946      1.0  0.18771  0.59040  0.46112  1.0000
  C   C947      1.0  0.08405  0.68347  0.46146  1.0000
  H   H742      1.0  0.19586  0.85930  0.44934  1.0000
  C   C948      1.0  0.16232  0.67952  0.38442  1.0000
  H   H743      1.0  0.08865  0.65571  0.47476  1.0000
  C   C949      1.0  0.12460  0.81807  0.60395  1.0000
  C   C950      1.0  0.16262  0.95257  0.57402  1.0000
  C   C951      1.0  0.00913  0.65219  0.64259  1.0000
  H   H744      1.0  0.05204  0.90768  0.45072  1.0000
  H   H745      1.0  0.21249  0.89094  0.55487  1.0000
  H   H746      1.0  0.00931  0.65823  0.50810  1.0000
  C   C952      1.0  0.01879  0.92181  0.48327  1.0000
  H   H747      1.0  0.18915  0.61863  0.46807  1.0000
  C   C953      1.0  0.02080  0.59829  0.60829  1.0000
  H   H748      1.0  0.19146  0.56200  0.45356  1.0000
  H   H749      1.0  0.18140  0.69451  0.39745  1.0000
  H   H750      1.0  0.15153  0.95414  0.58481  1.0000
  C   C954      1.0  0.01258  0.93896  0.47430  1.0000
  C   C955      1.0  0.03495  0.93342  0.44828  1.0000
  H   H751      1.0  0.05089  0.53280  0.51242  1.0000
  C   C956      1.0  0.19802  0.57356  0.45798  1.0000
  C   C957      1.0  0.12515  0.81956  0.63728  1.0000
  H   H752      1.0  0.05890  0.96636  0.49097  1.0000
  C   C958      1.0  0.00056  0.61146  0.42870  1.0000
  H   H753      1.0  0.04097  0.93788  0.43458  1.0000
  H   H754      1.0  0.03789  0.67543  0.55079  1.0000
  H   H755      1.0  0.01861  0.64819  0.41207  1.0000
  C   C959      1.0  0.02061  0.94456  0.45662  1.0000
  C   C960      1.0  0.19680  0.60539  0.46606  1.0000
  H   H756      1.0  0.07063  0.68610  0.46875  1.0000
  C   C961      1.0  0.00056  0.90347  0.62455  1.0000
  H   H757      1.0  0.02248  0.61511  0.36520  1.0000
  H   H758      1.0  0.22191  0.86425  0.35356  1.0000
  S   S131      1.0  0.22220  0.84763  0.62719  1.0000
  H   H759      1.0  0.01558  0.95735  0.44904  1.0000
  C   C962      1.0  0.20243  0.89019  0.54474  1.0000
  C   C963      1.0  0.21583  0.60337  0.46839  1.0000
  H   H760      1.0  0.07488  0.61448  0.33193  1.0000
  H   H761      1.0  0.06220  0.54938  0.63034  1.0000
  H   H762      1.0  0.18018  0.88271  0.60504  1.0000
  C   C964      1.0  0.02026  0.52003  0.54832  1.0000
  H   H763      1.0  0.03529  0.51002  0.49749  1.0000
  H   H764      1.0  0.16836  0.95075  0.52724  1.0000
  H   H765      1.0  0.99862  0.65695  0.46520  1.0000
  H   H766      1.0  0.12220  0.84436  0.58747  1.0000
  H   H767      1.0  0.22276  0.61497  0.47229  1.0000
  C   C965      1.0  0.19054  0.94778  0.54571  1.0000
  C   C966      1.0  0.17197  0.95046  0.54148  1.0000
  C   C967      1.0  0.01293  0.91119  0.41400  1.0000
  C   C968      1.0  0.22559  0.94609  0.60078  1.0000
  H   H768      1.0  0.12967  0.56628  0.63320  1.0000
  H   H769      1.0  0.21375  0.83049  0.46635  1.0000
  H   H770      1.0  0.17304  0.67230  0.37595  1.0000
  H   H771      1.0  0.17947  0.90165  0.56184  1.0000
  C   C969      1.0  0.02207  0.69321  0.61263  1.0000
  C   C970      1.0  0.19521  0.94776  0.56409  1.0000
  C   C971      1.0  0.15803  0.95277  0.55564  1.0000
  H   H772      1.0  0.00164  0.67548  0.60659  1.0000
  H   H773      1.0  0.05235  0.65193  0.40720  1.0000
  H   H774      1.0  0.08815  0.60923  0.61732  1.0000
  H   H775      1.0  0.14359  0.95477  0.55239  1.0000
  H   H776      1.0  0.03689  0.59922  0.48386  1.0000
  C   C972      1.0  0.21200  0.97626  0.60876  1.0000
  H   H777      1.0  0.12029  0.86296  0.61453  1.0000
  H   H778      1.0  0.02849  0.64911  0.44773  1.0000
  H   H779      1.0  0.17213  0.98832  0.59227  1.0000
  H   H780      1.0  0.08195  0.76478  0.64769  1.0000
  C   C973      1.0  0.03997  0.52543  0.52019  1.0000
  C   C974      1.0  0.00606  0.89868  0.54193  1.0000
  S   S132      1.0  0.09445  0.64816  0.33143  1.0000
  H   H781      1.0  0.02311  0.97686  0.47735  1.0000
  C   C975      1.0  0.10176  0.78365  0.65364  1.0000
  C   C976      1.0  0.00450  0.50493  0.47599  1.0000
  H   H782      1.0  0.99847  0.89870  0.52964  1.0000
  C   C977      1.0  0.16534  0.80088  0.64811  1.0000
  H   H783      1.0  0.09921  0.97913  0.46616  1.0000
  C   C978      1.0  0.01021  0.98495  0.47464  1.0000
  H   H784      1.0  0.17000  0.91223  0.34359  1.0000
  C   C979      1.0  0.10795  0.98184  0.49338  1.0000
  H   H785      1.0  0.99334  0.56619  0.52935  1.0000
  C   C980      1.0  0.99693  0.66767  0.50829  1.0000
  C   C981      1.0  0.18152  0.90192  0.34567  1.0000
  H   H786      1.0  0.02431  0.98690  0.42079  1.0000
  H   H787      1.0  0.99944  0.98597  0.55517  1.0000
  Fe  Fe68      1.0  0.07365  0.67244  0.65744  1.0000
  H   H788      1.0  0.19981  0.93415  0.63776  1.0000
  C   C982      1.0  0.99653  0.98469  0.57008  1.0000
  H   H789      1.0  0.02347  0.49606  0.43304  1.0000
  S   S133      1.0  0.10684  0.99137  0.42816  1.0000
  C   C983      1.0  0.24054  0.88336  0.59364  1.0000
  C   C984      1.0  0.99467  0.98507  0.42088  1.0000
  C   C985      1.0  0.99330  0.97659  0.47635  1.0000
  C   C986      1.0  0.01836  0.69207  0.32751  1.0000
  C   C987      1.0  0.99640  0.56358  0.51496  1.0000
  H   H790      1.0  0.20317  0.90174  0.65197  1.0000
  H   H791      1.0  0.02953  0.70120  0.32533  1.0000
  P   P33       1.0  0.99340  0.62822  0.39305  1.0000
  P   P34       1.0  0.99266  0.95225  0.48408  1.0000
  C   C988      1.0  0.01977  0.49387  0.44779  1.0000
  Fe  Fe69      1.0  0.01063  0.53471  0.91487  1.0000
  Fe  Fe70      1.0  0.01642  0.56822  0.88767  1.0000
  S   S134      1.0  0.03363  0.57499  0.86048  1.0000
  C   C989      1.0  0.23945  0.57100  0.90065  1.0000
  S   S135      1.0  0.02817  0.55868  0.91507  1.0000
  C   C990      1.0  0.09875  0.52661  0.88642  1.0000
  Fe  Fe71      1.0  0.18379  0.58414  0.81958  1.0000
  S   S136      1.0  0.18159  0.57356  0.79151  1.0000
  S   S137      1.0  0.21333  0.58781  0.82814  1.0000
  Fe  Fe72      1.0  0.14199  0.57874  0.82987  1.0000
  S   S138      1.0  0.13742  0.56715  0.80300  1.0000
  S   S139      1.0  0.12105  0.58201  0.85468  1.0000
  Fe  Fe73      1.0  0.16519  0.55087  0.80669  1.0000
  S   S140      1.0  0.17600  0.52019  0.80663  1.0000
  Fe  Fe74      1.0  0.15417  0.59063  0.78977  1.0000
  S   S141      1.0  0.14471  0.61316  0.76702  1.0000
  S   S142      1.0  0.16837  0.56097  0.83455  1.0000
  S   S143      1.0  0.15757  0.60289  0.81685  1.0000
  C   C991      1.0  0.10369  0.75070  0.66343  1.0000
  S   S144      1.0  0.09870  0.67453  0.67358  1.0000
  S   S145      1.0  0.12149  0.62171  0.68278  1.0000
  C   C992      1.0  0.10050  0.68585  0.73437  1.0000
  C   C993      1.0  0.01424  0.56283  0.97943  1.0000
  C   C994      1.0  0.16376  0.68241  0.73912  1.0000
  H   H792      1.0  0.24056  0.57863  0.79539  1.0000
  H   H793      1.0  0.23331  0.55013  0.81467  1.0000
  H   H794      1.0  0.13871  0.84085  0.67583  1.0000
  C   C995      1.0  0.12745  0.61955  0.70639  1.0000
  C   C996      1.0  0.12413  0.63416  0.71785  1.0000
  C   C997      1.0  0.12888  0.63162  0.73649  1.0000
  C   C998      1.0  0.13749  0.61470  0.74387  1.0000
  C   C999      1.0  0.14081  0.60008  0.73245  1.0000
  C   C1000     1.0  0.13571  0.60247  0.71390  1.0000
  H   H795      1.0  0.11772  0.64736  0.71240  1.0000
  H   H796      1.0  0.12589  0.64286  0.74530  1.0000
  H   H797      1.0  0.14759  0.58703  0.73780  1.0000
  H   H798      1.0  0.13837  0.59105  0.70522  1.0000
  H   H799      1.0  0.02859  0.53130  0.81578  1.0000
  H   H800      1.0  0.22792  0.57905  0.72113  1.0000
  H   H801      1.0  0.07817  0.82506  0.70742  1.0000
  H   H802      1.0  0.18188  0.66729  0.78783  1.0000
  H   H803      1.0  0.14456  0.51292  0.78618  1.0000
  C   C1001     1.0  0.22639  0.60146  0.84107  1.0000
  C   C1002     1.0  0.21819  0.61606  0.85100  1.0000
  C   C1003     1.0  0.22915  0.62631  0.86105  1.0000
  H   H804      1.0  0.20339  0.61942  0.85102  1.0000
  H   H805      1.0  0.22258  0.63754  0.86865  1.0000
  C   C1004     1.0  0.05806  0.57598  0.85919  1.0000
  C   C1005     1.0  0.06850  0.57343  0.84229  1.0000
  C   C1006     1.0  0.08785  0.57492  0.84068  1.0000
  C   C1007     1.0  0.09688  0.57927  0.85592  1.0000
  C   C1008     1.0  0.08644  0.58168  0.87279  1.0000
  C   C1009     1.0  0.06717  0.58000  0.87445  1.0000
  H   H806      1.0  0.06156  0.57030  0.83042  1.0000
  H   H807      1.0  0.09574  0.57286  0.82768  1.0000
  H   H808      1.0  0.09327  0.58509  0.88463  1.0000
  H   H809      1.0  0.05930  0.58221  0.88746  1.0000
  C   C1010     1.0  0.10974  0.50554  0.83282  1.0000
  C   C1011     1.0  0.21977  0.62703  0.79867  1.0000
  H   H810      1.0  0.12659  0.67584  0.74481  1.0000
  C   C1012     1.0  0.17688  0.67151  0.77425  1.0000
  C   C1013     1.0  0.09139  0.82846  0.70049  1.0000
  H   H811      1.0  0.03205  0.60280  0.82716  1.0000
  H   H812      1.0  0.21504  0.55885  0.74980  1.0000
  C   C1014     1.0  0.16307  0.66395  0.74687  1.0000
  C   C1015     1.0  0.17838  0.80131  0.68330  1.0000
  C   C1016     1.0  0.21942  0.55711  0.76378  1.0000
  C   C1017     1.0  0.03699  0.53005  0.84366  1.0000
  H   H813      1.0  0.99672  0.60635  0.98801  1.0000
  C   C1018     1.0  0.18600  0.61405  0.73203  1.0000
  C   C1019     1.0  0.15235  0.66514  0.68863  1.0000
  H   H814      1.0  0.14983  0.80571  0.69310  1.0000
  C   C1020     1.0  0.17777  0.68989  0.76661  1.0000
  H   H815      1.0  0.07756  0.54745  0.89475  1.0000
  C   C1021     1.0  0.12550  0.83724  0.68265  1.0000
  H   H816      1.0  0.09461  0.71210  0.69357  1.0000
  H   H817      1.0  0.02470  0.53814  0.84875  1.0000
  C   C1022     1.0  0.16347  0.67052  0.70187  1.0000
  C   C1023     1.0  0.19977  0.61039  0.74461  1.0000
  C   C1024     1.0  0.16621  0.49947  0.80220  1.0000
  C   C1025     1.0  0.16364  0.71077  0.70628  1.0000
  C   C1026     1.0  0.10948  0.52428  0.83652  1.0000
  H   H818      1.0  0.01727  0.55403  0.96815  1.0000
  C   C1027     1.0  0.13032  0.69166  0.71806  1.0000
  H   H819      1.0  0.19815  0.61727  0.75728  1.0000
  H   H820      1.0  0.09754  0.53389  0.83384  1.0000
  C   C1028     1.0  0.22633  0.56109  0.87369  1.0000
  H   H821      1.0  0.12481  0.54553  0.84557  1.0000
  H   H822      1.0  0.20335  0.58555  0.69918  1.0000
  C   C1029     1.0  0.00271  0.59227  0.99065  1.0000
  C   C1030     1.0  0.21562  0.54078  0.77481  1.0000
  C   C1031     1.0  0.10486  0.51766  0.78974  1.0000
  C   C1032     1.0  0.10167  0.70439  0.70486  1.0000
  H   H823      1.0  0.18337  0.69869  0.68585  1.0000
  C   C1033     1.0  0.16950  0.65855  0.76438  1.0000
  C   C1034     1.0  0.22069  0.53822  0.79311  1.0000
  H   H824      1.0  0.15023  0.64678  0.66733  1.0000
  C   C1035     1.0  0.21509  0.59778  0.74086  1.0000
  H   H825      1.0  0.10754  0.53674  0.87914  1.0000
  C   C1036     1.0  0.15268  0.80407  0.66330  1.0000
  H   H826      1.0  0.19044  0.66612  0.71315  1.0000
  C   C1037     1.0  0.16151  0.74457  0.70461  1.0000
  C   C1038     1.0  0.23961  0.55164  0.94740  1.0000
  C   C1039     1.0  0.22980  0.55186  0.80033  1.0000
  H   H827      1.0  0.18349  0.80152  0.69691  1.0000
  H   H828      1.0  0.17628  0.60772  0.70624  1.0000
  C   C1040     1.0  0.12584  0.49381  0.83582  1.0000
  H   H829      1.0  0.16866  0.64430  0.77032  1.0000
  C   C1041     1.0  0.06935  0.51006  0.83035  1.0000
  C   C1042     1.0  0.17515  0.74499  0.68990  1.0000
  C   C1043     1.0  0.09995  0.84377  0.70523  1.0000
  C   C1044     1.0  0.09433  0.50292  0.79702  1.0000
  C   C1045     1.0  0.20246  0.59260  0.71179  1.0000
  C   C1046     1.0  0.01490  0.49540  0.89023  1.0000
  H   H830      1.0  0.05718  0.52467  0.91145  1.0000
  H   H831      1.0  0.09251  0.67936  0.74608  1.0000
  C   C1047     1.0  0.12102  0.70194  0.70372  1.0000
  C   C1048     1.0  0.17733  0.71131  0.69148  1.0000
  C   C1049     1.0  0.01615  0.60761  0.80305  1.0000
  C   C1050     1.0  0.06683  0.51374  0.84910  1.0000
  H   H832      1.0  0.12363  0.86005  0.69995  1.0000
  S   S146      1.0  0.00119  0.59016  0.95301  1.0000
  C   C1051     1.0  0.23554  0.53639  0.95991  1.0000
  H   H833      1.0  0.00516  0.69105  0.67610  1.0000
  C   C1052     1.0  0.12740  0.76981  0.67102  1.0000
  C   C1053     1.0  0.21057  0.57317  0.87674  1.0000
  C   C1054     1.0  0.20912  0.58405  0.89177  1.0000
  C   C1055     1.0  0.22342  0.58290  0.90378  1.0000
  C   C1056     1.0  0.18724  0.60509  0.71572  1.0000
  H   H834      1.0  0.04904  0.52710  0.87002  1.0000
  C   C1057     1.0  0.09288  0.49460  0.89666  1.0000
  H   H835      1.0  0.01976  0.50859  0.88472  1.0000
  C   C1058     1.0  0.07037  0.51992  0.90467  1.0000
  C   C1059     1.0  0.24065  0.55986  0.88570  1.0000
  H   H836      1.0  0.15746  0.65372  0.73938  1.0000
  S   S147      1.0  0.04419  0.68128  0.66841  1.0000
  C   C1060     1.0  0.15932  0.80384  0.68104  1.0000
  H   H837      1.0  0.14495  0.72744  0.72396  1.0000
  C   C1061     1.0  0.17679  0.64247  0.67895  1.0000
  C   C1062     1.0  0.15899  0.65109  0.67733  1.0000
  C   C1063     1.0  0.15572  0.72755  0.71274  1.0000
  H   H838      1.0  0.19965  0.57439  0.86718  1.0000
  H   H839      1.0  0.19698  0.59359  0.89392  1.0000
  H   H840      1.0  0.22196  0.59141  0.91538  1.0000
  S   S148      1.0  0.02068  0.50552  0.92471  1.0000
  C   C1064     1.0  0.05076  0.52378  0.85568  1.0000
  C   C1065     1.0  0.11990  0.68374  0.73349  1.0000
  C   C1066     1.0  0.14087  0.51927  0.84604  1.0000
  C   C1067     1.0  0.21635  0.58898  0.72427  1.0000
  H   H841      1.0  0.17215  0.70962  0.74346  1.0000
  C   C1068     1.0  0.18148  0.66196  0.70327  1.0000
  C   C1069     1.0  0.21915  0.61339  0.78636  1.0000
  C   C1070     1.0  0.00637  0.58097  0.97581  1.0000
  H   H842      1.0  0.18179  0.63156  0.67015  1.0000
  H   H843      1.0  0.11777  0.53157  0.76524  1.0000
  C   C1071     1.0  0.10895  0.52067  0.77060  1.0000
  C   C1072     1.0  0.09138  0.49486  0.76562  1.0000
  C   C1073     1.0  0.10430  0.50758  0.88707  1.0000
  C   C1074     1.0  0.10818  0.64590  0.79194  1.0000
  C   C1075     1.0  0.11511  0.63360  0.80623  1.0000
  C   C1076     1.0  0.10929  0.61561  0.80912  1.0000
  C   C1077     1.0  0.09670  0.60982  0.79765  1.0000
  C   C1078     1.0  0.08938  0.62217  0.78349  1.0000
  C   C1079     1.0  0.09526  0.64027  0.78067  1.0000
  P   P35       1.0  0.07232  0.61479  0.76940  1.0000
  C   C1080     1.0  0.05031  0.61246  0.78276  1.0000
  C   C1081     1.0  0.06934  0.63128  0.74930  1.0000
  C   C1082     1.0  0.05708  0.64727  0.75056  1.0000
  C   C1083     1.0  0.05422  0.65963  0.73483  1.0000
  C   C1084     1.0  0.06373  0.65626  0.71781  1.0000
  C   C1085     1.0  0.07630  0.64067  0.71656  1.0000
  C   C1086     1.0  0.07915  0.62825  0.73222  1.0000
  C   C1087     1.0  0.03375  0.61395  0.77367  1.0000
  C   C1088     1.0  0.01676  0.61161  0.78380  1.0000
  H   H844      1.0  0.10590  0.51129  0.74376  1.0000
  C   C1089     1.0  0.03251  0.60603  0.81220  1.0000
  C   C1090     1.0  0.04950  0.60848  0.80216  1.0000
  C   C1091     1.0  0.08033  0.59264  0.76093  1.0000
  C   C1092     1.0  0.09936  0.58713  0.75925  1.0000
  C   C1093     1.0  0.10567  0.57089  0.75098  1.0000
  C   C1094     1.0  0.09306  0.56006  0.74428  1.0000
  C   C1095     1.0  0.07408  0.56527  0.74616  1.0000
  C   C1096     1.0  0.06772  0.58153  0.75440  1.0000
  H   H845      1.0  0.11288  0.65977  0.78961  1.0000
  H   H846      1.0  0.12508  0.63792  0.81501  1.0000
  H   H847      1.0  0.11460  0.60611  0.82026  1.0000
  H   H848      1.0  0.09260  0.59571  0.79992  1.0000
  H   H849      1.0  0.09006  0.65001  0.76975  1.0000
  H   H850      1.0  0.04957  0.65005  0.76363  1.0000
  H   H851      1.0  0.04442  0.67170  0.73572  1.0000
  H   H852      1.0  0.06129  0.66566  0.70552  1.0000
  H   H853      1.0  0.08380  0.63811  0.70338  1.0000
  H   H854      1.0  0.08902  0.61631  0.73084  1.0000
  H   H855      1.0  0.03392  0.61680  0.75873  1.0000
  H   H856      1.0  0.13854  0.67164  0.68695  1.0000
  H   H857      1.0  0.07745  0.50921  0.85856  1.0000
  H   H858      1.0  0.21713  0.52584  0.80181  1.0000
  H   H859      1.0  0.06181  0.60715  0.80976  1.0000
  H   H860      1.0  0.10941  0.59556  0.76389  1.0000
  H   H861      1.0  0.12042  0.56696  0.74950  1.0000
  H   H862      1.0  0.09801  0.54772  0.73749  1.0000
  H   H863      1.0  0.06428  0.55689  0.74095  1.0000
  H   H864      1.0  0.05302  0.58558  0.75526  1.0000
  P   P36       1.0  0.15539  0.68893  0.71638  1.0000
  C   C1097     1.0  0.11700  0.84816  0.69630  1.0000
  C   C1098     1.0  0.23370  0.56816  0.78935  1.0000
  H   H865      1.0  0.15308  0.52466  0.85061  1.0000
  C   C1099     1.0  0.11847  0.78547  0.66164  1.0000
  C   C1100     1.0  0.22826  0.57109  0.77107  1.0000
  C   C1101     1.0  0.12498  0.53104  0.84310  1.0000
  H   H866      1.0  0.07638  0.69766  0.72064  1.0000
  C   C1102     1.0  0.10233  0.50921  0.75855  1.0000
  H   H867      1.0  0.17412  0.62359  0.73514  1.0000
  H   H868      1.0  0.20193  0.64132  0.69309  1.0000
  H   H869      1.0  0.22514  0.53811  0.97131  1.0000
  H   H870      1.0  0.18354  0.69991  0.77429  1.0000
  C   C1103     1.0  0.17123  0.69536  0.74911  1.0000
  C   C1104     1.0  0.15087  0.49974  0.79167  1.0000
  H   H871      1.0  0.12873  0.70774  0.69143  1.0000
  C   C1105     1.0  0.03926  0.52624  0.82505  1.0000
  C   C1106     1.0  0.08182  0.53274  0.89520  1.0000
  C   C1107     1.0  0.09140  0.69619  0.72007  1.0000
  C   C1108     1.0  0.23463  0.63825  0.79718  1.0000
  C   C1109     1.0  0.05538  0.51627  0.81838  1.0000
  C   C1110     1.0  0.99738  0.51882  0.97877  1.0000
  Fe  Fe75      1.0  0.00225  0.57305  0.92800  1.0000
  H   H872      1.0  0.05694  0.51362  0.80389  1.0000
  H   H873      1.0  0.15528  0.75746  0.70958  1.0000
  P   P37       1.0  0.23287  0.59249  0.75717  1.0000
  H   H874      1.0  0.20820  0.53028  0.76944  1.0000
  C   C1111     1.0  0.18808  0.64796  0.69187  1.0000
  H   H875      1.0  0.20908  0.62831  0.80989  1.0000
  C   C1112     1.0  0.18310  0.72836  0.68340  1.0000
  H   H876      1.0  0.11738  0.50318  0.88003  1.0000
  H   H877      1.0  0.11048  0.52652  0.79876  1.0000
  S   S149      1.0  0.00041  0.54304  0.88676  1.0000
  H   H878      1.0  0.20788  0.60433  0.78826  1.0000
  C   C1113     1.0  0.09985  0.81752  0.68682  1.0000
  C   C1114     1.0  0.23330  0.61099  0.77226  1.0000
  C   C1115     1.0  0.19091  0.79871  0.66794  1.0000
  H   H879      1.0  0.09337  0.85224  0.71581  1.0000
  H   H880      1.0  0.09295  0.80574  0.68339  1.0000
  H   H881      1.0  0.12737  0.74032  0.67840  1.0000
  H   H882      1.0  0.23215  0.56503  0.94918  1.0000
  P   P38       1.0  0.12812  0.80781  0.66014  1.0000
  C   C1116     1.0  0.14128  0.50068  0.84243  1.0000
  C   C1117     1.0  0.00635  0.68022  0.66668  1.0000
  H   H883      1.0  0.17944  0.75816  0.68335  1.0000
  H   H884      1.0  0.14034  0.77073  0.67716  1.0000
  H   H885      1.0  0.00542  0.51805  0.96556  1.0000
  C   C1118     1.0  0.11999  0.75252  0.67191  1.0000
  C   C1119     1.0  0.07588  0.50096  0.90549  1.0000
  H   H886      1.0  0.20571  0.79706  0.66957  1.0000
  C   C1120     1.0  0.11699  0.82183  0.67780  1.0000
  P   P39       1.0  0.09053  0.49775  0.82181  1.0000
  H   H887      1.0  0.23540  0.64834  0.80719  1.0000
  H   H888      1.0  0.19343  0.72870  0.67176  1.0000
  H   H889      1.0  0.09847  0.73710  0.66343  1.0000
  Fe  Fe76      1.0  0.10867  0.64647  0.66448  1.0000
  C   C1121     1.0  0.02408  0.67275  0.66053  1.0000
  H   H890      1.0  0.22749  0.55301  0.86175  1.0000
  H   H891      1.0  0.00403  0.61282  0.77672  1.0000
  H   H892      1.0  0.24144  0.50710  0.96721  1.0000
  H   H893      1.0  0.00302  0.60568  0.81094  1.0000
  Fe  Fe77      1.0  0.39328  0.45959  0.07262  1.0000
  H   H894      1.0  0.27804  0.29042  0.16819  1.0000
  S   S150      1.0  0.37078  0.43995  0.06929  1.0000
  Fe  Fe78      1.0  0.43175  0.47260  0.07951  1.0000
  S   S151      1.0  0.46063  0.46024  0.08716  1.0000
  H   H895      1.0  0.41844  0.37898  0.01745  1.0000
  H   H896      1.0  0.33043  0.43911  0.12590  1.0000
  H   H897      1.0  0.44903  0.09176  0.08359  1.0000
  S   S152      1.0  0.40486  0.46954  0.09757  1.0000
  S   S153      1.0  0.42052  0.46048  0.05559  1.0000
  Fe  Fe79      1.0  0.41218  0.07924  0.01031  1.0000
  H   H898      1.0  0.34686  0.35816  0.00442  1.0000
  S   S154      1.0  0.40066  0.08441  0.03983  1.0000
  C   C1122     1.0  0.34749  0.23928  0.04431  1.0000
  H   H899      1.0  0.30402  0.28041  0.11445  1.0000
  C   C1123     1.0  0.25961  0.41040  0.13089  1.0000
  C   C1124     1.0  0.24295  0.34617  0.11141  1.0000
  C   C1125     1.0  0.29957  0.42622  0.02807  1.0000
  S   S155      1.0  0.43971  0.06314  0.00578  1.0000
  C   C1126     1.0  0.32543  0.40422  0.01991  1.0000
  Fe  Fe80      1.0  0.34127  0.33763  0.08681  1.0000
  S   S156      1.0  0.31383  0.34988  0.07761  1.0000
  S   S157      1.0  0.36419  0.35412  0.09526  1.0000
  Fe  Fe81      1.0  0.33115  0.29746  0.08520  1.0000
  S   S158      1.0  0.30262  0.30711  0.07556  1.0000
  S   S159      1.0  0.33914  0.26599  0.08927  1.0000
  Fe  Fe82      1.0  0.31754  0.32846  0.05652  1.0000
  S   S160      1.0  0.31275  0.34089  0.02689  1.0000
  Fe  Fe83      1.0  0.30081  0.32780  0.09725  1.0000
  S   S161      1.0  0.27853  0.33250  0.12131  1.0000
  S   S162      1.0  0.34598  0.31750  0.06475  1.0000
  S   S163      1.0  0.32847  0.31680  0.10785  1.0000
  Fe  Fe84      1.0  0.41980  0.15101  0.12115  1.0000
  S   S164      1.0  0.43724  0.17440  0.12548  1.0000
  S   S165      1.0  0.42649  0.14313  0.09132  1.0000
  Fe  Fe85      1.0  0.40107  0.15184  0.16086  1.0000
  S   S166      1.0  0.41702  0.17564  0.16682  1.0000
  S   S167      1.0  0.37862  0.14296  0.18340  1.0000
  Fe  Fe86      1.0  0.41096  0.18828  0.13812  1.0000
  S   S168      1.0  0.40474  0.21974  0.13199  1.0000
  Fe  Fe87      1.0  0.44184  0.15992  0.15353  1.0000
  S   S169      1.0  0.46881  0.15426  0.16827  1.0000
  S   S170      1.0  0.39328  0.16567  0.13275  1.0000
  S   S171      1.0  0.42619  0.13535  0.14867  1.0000
  H   H900      1.0  0.36590  0.22940  0.06537  1.0000
  S   S172      1.0  0.38608  0.05537  0.30016  1.0000
  C   C1127     1.0  0.30688  0.42408  0.12162  1.0000
  S   S173      1.0  0.34269  0.05443  0.29132  1.0000
  Fe  Fe88      1.0  0.36300  0.03662  0.30845  1.0000
  C   C1128     1.0  0.46324  0.43693  0.04135  1.0000
  Fe  Fe89      1.0  0.36527  0.07444  0.28452  1.0000
  S   S174      1.0  0.37875  0.08447  0.25569  1.0000
  C   C1129     1.0  0.46233  0.42558  0.01111  1.0000
  C   C1130     1.0  0.38005  0.12770  0.20420  1.0000
  C   C1131     1.0  0.39383  0.11309  0.20615  1.0000
  C   C1132     1.0  0.39318  0.10012  0.22198  1.0000
  C   C1133     1.0  0.37904  0.10177  0.23634  1.0000
  C   C1134     1.0  0.36568  0.11683  0.23472  1.0000
  C   C1135     1.0  0.36600  0.12945  0.21863  1.0000
  H   H901      1.0  0.40458  0.11135  0.19514  1.0000
  H   H902      1.0  0.40364  0.08860  0.22301  1.0000
  H   H903      1.0  0.35492  0.11863  0.24571  1.0000
  H   H904      1.0  0.35522  0.14064  0.21730  1.0000
  H   H905      1.0  0.33014  0.24580  0.02145  1.0000
  C   C1136     1.0  0.36995  0.38211  0.03248  1.0000
  H   H906      1.0  0.41890  0.19019  0.03421  1.0000
  C   C1137     1.0  0.25211  0.38328  0.06548  1.0000
  H   H907      1.0  0.27625  0.29054  0.13422  1.0000
  C   C1138     1.0  0.35770  0.25341  0.10095  1.0000
  C   C1139     1.0  0.37212  0.26221  0.10732  1.0000
  C   C1140     1.0  0.38657  0.25159  0.11633  1.0000
  C   C1141     1.0  0.38672  0.23211  0.11938  1.0000
  C   C1142     1.0  0.37245  0.22327  0.11276  1.0000
  C   C1143     1.0  0.35798  0.23389  0.10376  1.0000
  H   H908      1.0  0.37218  0.27719  0.10527  1.0000
  H   H909      1.0  0.39775  0.25849  0.12101  1.0000
  H   H910      1.0  0.37238  0.20830  0.11489  1.0000
  H   H911      1.0  0.34680  0.22698  0.09907  1.0000
  H   H912      1.0  0.33426  0.18337  0.10712  1.0000
  C   C1144     1.0  0.31316  0.33023  0.00567  1.0000
  C   C1145     1.0  0.48954  0.38984  0.05106  1.0000
  C   C1146     1.0  0.29515  0.03144  0.20005  1.0000
  H   H913      1.0  0.31290  0.30206  0.01797  1.0000
  H   H914      1.0  0.29245  0.43993  0.02617  1.0000
  C   C1147     1.0  0.38341  0.16193  0.03561  1.0000
  C   C1148     1.0  0.46933  0.16828  0.05493  1.0000
  C   C1149     1.0  0.40792  0.10081  0.05403  1.0000
  C   C1150     1.0  0.41934  0.11473  0.04682  1.0000
  C   C1151     1.0  0.42439  0.12782  0.05835  1.0000
  C   C1152     1.0  0.41858  0.12685  0.07737  1.0000
  C   C1153     1.0  0.40718  0.11290  0.08464  1.0000
  C   C1154     1.0  0.40177  0.10005  0.07297  1.0000
  H   H915      1.0  0.42404  0.11551  0.03230  1.0000
  H   H916      1.0  0.43302  0.13868  0.05251  1.0000
  H   H917      1.0  0.40262  0.11192  0.09922  1.0000
  H   H918      1.0  0.39287  0.08937  0.07867  1.0000
  H   H919      1.0  0.44285  0.16351  0.21385  1.0000
  C   C1155     1.0  0.46186  0.14068  0.99167  1.0000
  H   H920      1.0  0.36967  0.15993  0.04210  1.0000
  H   H921      1.0  0.40449  0.18737  0.08882  1.0000
  C   C1156     1.0  0.25515  0.34210  0.12552  1.0000
  C   C1157     1.0  0.30476  0.28025  0.12934  1.0000
  C   C1158     1.0  0.36842  0.41644  0.07781  1.0000
  C   C1159     1.0  0.38035  0.40689  0.09030  1.0000
  C   C1160     1.0  0.37843  0.38797  0.09598  1.0000
  C   C1161     1.0  0.36471  0.37837  0.08918  1.0000
  C   C1162     1.0  0.35234  0.38809  0.07723  1.0000
  C   C1163     1.0  0.35415  0.40704  0.07166  1.0000
  H   H922      1.0  0.39101  0.41410  0.09558  1.0000
  H   H923      1.0  0.38766  0.38064  0.10562  1.0000
  H   H924      1.0  0.34166  0.38092  0.07192  1.0000
  H   H925      1.0  0.34458  0.41435  0.06231  1.0000
  C   C1164     1.0  0.27311  0.37674  0.09004  1.0000
  H   H926      1.0  0.43286  0.16780  0.01253  1.0000
  H   H927      1.0  0.43221  0.44227  0.11440  1.0000
  H   H928      1.0  0.35035  0.30686  0.21900  1.0000
  C   C1165     1.0  0.30958  0.37664  0.11995  1.0000
  H   H929      1.0  0.33860  0.11518  0.19203  1.0000
  C   C1166     1.0  0.34566  0.21919  0.01977  1.0000
  H   H930      1.0  0.42776  0.46514  0.01834  1.0000
  C   C1167     1.0  0.37833  0.36700  0.04298  1.0000
  H   H931      1.0  0.38404  0.13757  0.02051  1.0000
  H   H932      1.0  0.38701  0.46337  0.99688  1.0000
  C   C1168     1.0  0.29017  0.28583  0.15965  1.0000
  H   H933      1.0  0.36182  0.33179  0.02279  1.0000
  C   C1169     1.0  0.34014  0.23573  0.02787  1.0000
  C   C1170     1.0  0.43531  0.11917  0.26260  1.0000
  C   C1171     1.0  0.42053  0.10766  0.26571  1.0000
  P   P40       1.0  0.44121  0.12963  0.23938  1.0000
  C   C1172     1.0  0.42378  0.14782  0.23250  1.0000
  C   C1173     1.0  0.46308  0.14012  0.23834  1.0000
  H   H934      1.0  0.41575  0.42707  0.14221  1.0000
  C   C1174     1.0  0.40516  0.14710  0.23933  1.0000
  C   C1175     1.0  0.39184  0.16113  0.23368  1.0000
  C   C1176     1.0  0.39693  0.17599  0.22118  1.0000
  C   C1177     1.0  0.44295  0.11252  0.22259  1.0000
  C   C1178     1.0  0.44485  0.09340  0.22823  1.0000
  C   C1179     1.0  0.44661  0.08035  0.21504  1.0000
  C   C1180     1.0  0.44699  0.08626  0.19612  1.0000
  C   C1181     1.0  0.44568  0.10524  0.19040  1.0000
  C   C1182     1.0  0.44354  0.11833  0.20354  1.0000
  H   H935      1.0  0.40386  0.09129  0.28581  1.0000
  H   H936      1.0  0.41287  0.10459  0.25429  1.0000
  H   H937      1.0  0.47847  0.11996  0.22153  1.0000
  H   H938      1.0  0.40067  0.13567  0.24873  1.0000
  H   H939      1.0  0.37747  0.16024  0.23871  1.0000
  H   H940      1.0  0.44502  0.08848  0.24277  1.0000
  H   H941      1.0  0.44769  0.06564  0.21951  1.0000
  H   H942      1.0  0.44839  0.07617  0.18590  1.0000
  H   H943      1.0  0.44633  0.10990  0.17575  1.0000
  H   H944      1.0  0.44260  0.13297  0.19874  1.0000
  H   H945      1.0  0.33345  0.35715  0.12280  1.0000
  H   H946      1.0  0.45351  0.19374  0.06125  1.0000
  C   C1183     1.0  0.34666  0.17744  0.09990  1.0000
  C   C1184     1.0  0.37567  0.34887  0.03934  1.0000
  H   H947      1.0  0.27132  0.37775  0.15047  1.0000
  C   C1185     1.0  0.42890  0.42793  0.11456  1.0000
  C   C1186     1.0  0.26018  0.42682  0.13964  1.0000
  C   C1187     1.0  0.35432  0.15978  0.10596  1.0000
  C   C1188     1.0  0.31617  0.42202  0.01762  1.0000
  H   H948      1.0  0.42898  0.30965  0.10044  1.0000
  C   C1189     1.0  0.46713  0.18072  0.08496  1.0000
  C   C1190     1.0  0.30320  0.06562  0.26421  1.0000
  C   C1191     1.0  0.42517  0.10351  0.29858  1.0000
  C   C1192     1.0  0.48347  0.08410  0.00507  1.0000
  H   H949      1.0  0.28660  0.07055  0.28959  1.0000
  C   C1193     1.0  0.30968  0.03647  0.20966  1.0000
  H   H950      1.0  0.34022  0.30735  0.14814  1.0000
  C   C1194     1.0  0.46412  0.15667  0.24675  1.0000
  H   H951      1.0  0.43222  0.44352  0.99370  1.0000
  S   S175      1.0  0.39783  0.06162  0.99242  1.0000
  C   C1195     1.0  0.30642  0.09104  0.28293  1.0000
  C   C1196     1.0  0.33946  0.28048  0.22797  1.0000
  C   C1197     1.0  0.33606  0.26049  0.20366  1.0000
  C   C1198     1.0  0.33300  0.09019  0.20950  1.0000
  H   H952      1.0  0.37162  0.39598  0.03609  1.0000
  C   C1199     1.0  0.35960  0.09305  0.18739  1.0000
  C   C1200     1.0  0.37039  0.15221  0.09669  1.0000
  C   C1201     1.0  0.27510  0.05659  0.21212  1.0000
  H   H953      1.0  0.36768  0.10149  0.17713  1.0000
  C   C1202     1.0  0.30686  0.05129  0.22098  1.0000
  H   H954      1.0  0.33806  0.28303  0.24252  1.0000
  C   C1203     1.0  0.28961  0.06164  0.22176  1.0000
  C   C1204     1.0  0.30125  0.39498  0.04318  1.0000
  C   C1205     1.0  0.26860  0.39452  0.09594  1.0000
  C   C1206     1.0  0.40747  0.41702  0.04130  1.0000
  C   C1207     1.0  0.40870  0.40567  0.02667  1.0000
  C   C1208     1.0  0.41787  0.38795  0.02867  1.0000
  C   C1209     1.0  0.42618  0.38176  0.04514  1.0000
  C   C1210     1.0  0.42555  0.39335  0.05974  1.0000
  C   C1211     1.0  0.41585  0.41094  0.05775  1.0000
  P   P41       1.0  0.43872  0.38620  0.07979  1.0000
  C   C1212     1.0  0.43593  0.36183  0.08596  1.0000
  C   C1213     1.0  0.44825  0.33105  0.09746  1.0000
  H   H955      1.0  0.26176  0.06452  0.21291  1.0000
  C   C1214     1.0  0.41983  0.41929  0.13030  1.0000
  C   C1215     1.0  0.36457  0.34582  0.02519  1.0000
  C   C1216     1.0  0.46294  0.38998  0.07370  1.0000
  H   H956      1.0  0.46375  0.37922  0.04673  1.0000
  C   C1217     1.0  0.48498  0.11269  0.05950  1.0000
  H   H957      1.0  0.42112  0.09757  0.31246  1.0000
  C   C1218     1.0  0.48481  0.15143  0.08053  1.0000
  C   C1219     1.0  0.41610  0.33610  0.09021  1.0000
  C   C1220     1.0  0.41858  0.35483  0.08502  1.0000
  C   C1221     1.0  0.43053  0.39926  0.09933  1.0000
  C   C1222     1.0  0.42175  0.39055  0.11540  1.0000
  C   C1223     1.0  0.41620  0.40062  0.13070  1.0000
  C   C1224     1.0  0.43396  0.41809  0.09904  1.0000
  H   H958      1.0  0.40003  0.43062  0.03991  1.0000
  Fe  Fe90      1.0  0.33499  0.06990  0.31715  1.0000
  H   H959      1.0  0.47575  0.13692  0.13529  1.0000
  H   H960      1.0  0.43328  0.36800  0.04638  1.0000
  H   H961      1.0  0.41471  0.42014  0.06873  1.0000
  H   H962      1.0  0.46417  0.35499  0.09346  1.0000
  C   C1225     1.0  0.32121  0.09676  0.27085  1.0000
  H   H963      1.0  0.34794  0.15202  0.11793  1.0000
  C   C1226     1.0  0.26506  0.37121  0.07475  1.0000
  C   C1227     1.0  0.46474  0.12548  0.02261  1.0000
  C   C1228     1.0  0.43094  0.32418  0.09639  1.0000
  H   H964      1.0  0.27906  0.41577  0.04863  1.0000
  H   H965      1.0  0.40256  0.33092  0.08956  1.0000
  H   H966      1.0  0.40686  0.36389  0.08049  1.0000
  H   H967      1.0  0.41909  0.37603  0.11625  1.0000
  H   H968      1.0  0.40921  0.39390  0.14294  1.0000
  C   C1229     1.0  0.47817  0.13745  0.02579  1.0000
  H   H969      1.0  0.29006  0.42129  0.07947  1.0000
  C   C1230     1.0  0.42131  0.21046  0.08712  1.0000
  C   C1231     1.0  0.42640  0.22684  0.07706  1.0000
  C   C1232     1.0  0.41875  0.23256  0.06018  1.0000
  C   C1233     1.0  0.40579  0.22205  0.05356  1.0000
  H   H970      1.0  0.42703  0.20624  0.10033  1.0000
  H   H971      1.0  0.43606  0.23519  0.08252  1.0000
  H   H972      1.0  0.42259  0.24534  0.05242  1.0000
  H   H973      1.0  0.39985  0.22678  0.04054  1.0000
  H   H974      1.0  0.28250  0.36692  0.09748  1.0000
  H   H975      1.0  0.32312  0.02881  0.20826  1.0000
  H   H976      1.0  0.33903  0.09098  0.24679  1.0000
  C   C1234     1.0  0.35038  0.21506  0.15332  1.0000
  C   C1235     1.0  0.36514  0.20743  0.16355  1.0000
  C   C1236     1.0  0.37379  0.21859  0.17441  1.0000
  C   C1237     1.0  0.36766  0.23735  0.17511  1.0000
  C   C1238     1.0  0.35294  0.24522  0.16473  1.0000
  C   C1239     1.0  0.34436  0.23389  0.15378  1.0000
  P   P42       1.0  0.34509  0.26951  0.16607  1.0000
  C   C1240     1.0  0.34311  0.27387  0.19028  1.0000
  C   C1241     1.0  0.36116  0.28469  0.15338  1.0000
  C   C1242     1.0  0.35475  0.30262  0.14632  1.0000
  C   C1243     1.0  0.36702  0.31459  0.13666  1.0000
  C   C1244     1.0  0.38584  0.30889  0.13416  1.0000
  C   C1245     1.0  0.39240  0.29121  0.14136  1.0000
  C   C1246     1.0  0.38013  0.27913  0.15091  1.0000
  H   H977      1.0  0.41537  0.14164  0.00543  1.0000
  C   C1247     1.0  0.32280  0.27492  0.15648  1.0000
  H   H978      1.0  0.47096  0.06386  0.07984  1.0000
  C   C1248     1.0  0.30693  0.28032  0.16767  1.0000
  H   H979      1.0  0.34392  0.20648  0.14462  1.0000
  H   H980      1.0  0.37009  0.19295  0.16281  1.0000
  H   H981      1.0  0.38550  0.21271  0.18199  1.0000
  H   H982      1.0  0.37454  0.24577  0.18364  1.0000
  H   H983      1.0  0.33310  0.23940  0.14548  1.0000
  P   P43       1.0  0.27877  0.40183  0.11574  1.0000
  H   H984      1.0  0.36192  0.32826  0.13090  1.0000
  H   H985      1.0  0.39525  0.31818  0.12655  1.0000
  H   H986      1.0  0.40697  0.28668  0.13930  1.0000
  H   H987      1.0  0.38552  0.26538  0.15598  1.0000
  H   H988      1.0  0.33186  0.24755  0.19957  1.0000
  H   H989      1.0  0.40227  0.41054  0.01392  1.0000
  C   C1249     1.0  0.33936  0.07181  0.21501  1.0000
  C   C1250     1.0  0.48225  0.47018  0.08097  1.0000
  C   C1251     1.0  0.47630  0.11168  0.12189  1.0000
  C   C1252     1.0  0.48434  0.12663  0.12797  1.0000
  H   H990      1.0  0.24569  0.37880  0.05382  1.0000
  H   H991      1.0  0.45971  0.32183  0.10239  1.0000
  H   H992      1.0  0.46149  0.11051  0.12440  1.0000
  C   C1253     1.0  0.45665  0.12715  0.00564  1.0000
  H   H993      1.0  0.31525  0.38322  0.10694  1.0000
  P   P44       1.0  0.48962  0.13486  0.04724  1.0000
  C   C1254     1.0  0.31294  0.31099  0.00516  1.0000
  H   H994      1.0  0.32885  0.25342  0.23270  1.0000
  C   C1255     1.0  0.48232  0.03294  0.99923  1.0000
  C   C1256     1.0  0.24368  0.40044  0.13385  1.0000
  S   S176      1.0  0.37118  0.00521  0.30934  1.0000
  H   H995      1.0  0.33256  0.00285  0.30047  1.0000
  C   C1257     1.0  0.49093  0.16151  0.15960  1.0000
  C   C1258     1.0  0.34819  0.29064  0.19592  1.0000
  C   C1259     1.0  0.48067  0.15291  0.06185  1.0000
  H   H996      1.0  0.35352  0.30125  0.18589  1.0000
  C   C1260     1.0  0.33428  0.26380  0.22244  1.0000
  C   C1261     1.0  0.42406  0.46990  0.00456  1.0000
  C   C1262     1.0  0.40917  0.15155  0.01486  1.0000
  H   H997      1.0  0.44764  0.11734  0.30733  1.0000
  H   H998      1.0  0.33993  0.21646  0.00702  1.0000
  C   C1263     1.0  0.24723  0.40092  0.07150  1.0000
  H   H999      1.0  0.46793  0.40065  0.09980  1.0000
  C   C1264     1.0  0.41900  0.16630  0.01887  1.0000
  H   H1000     1.0  0.26866  0.35739  0.07032  1.0000
  C   C1265     1.0  0.46788  0.11073  0.06961  1.0000
  C   C1266     1.0  0.46271  0.09316  0.07665  1.0000
  H   H1001     1.0  0.38170  0.33719  0.04789  1.0000
  H   H1002     1.0  0.30743  0.28071  0.18248  1.0000
  H   H1003     1.0  0.45712  0.48714  0.01973  1.0000
  H   H1004     1.0  0.28971  0.35162  0.16589  1.0000
  C   C1267     1.0  0.45735  0.42425  0.03013  1.0000
  C   C1268     1.0  0.29206  0.41266  0.04076  1.0000
  C   C1269     1.0  0.47507  0.15278  0.99476  1.0000
  C   C1270     1.0  0.28495  0.37368  0.14437  1.0000
  C   C1271     1.0  0.31288  0.35290  0.14551  1.0000
  S   S177      1.0  0.35631  0.09096  0.30914  1.0000
  H   H1005     1.0  0.32449  0.37683  0.03477  1.0000
  C   C1272     1.0  0.36000  0.41874  0.00305  1.0000
  H   H1006     1.0  0.44905  0.41331  0.03614  1.0000
  C   C1273     1.0  0.25547  0.40656  0.08665  1.0000
  C   C1274     1.0  0.47886  0.13257  0.22835  1.0000
  H   H1007     1.0  0.47834  0.46096  0.04240  1.0000
  C   C1275     1.0  0.36053  0.42982  0.01789  1.0000
  C   C1276     1.0  0.47505  0.07750  0.07455  1.0000
  H   H1008     1.0  0.45828  0.12274  0.07148  1.0000
  C   C1277     1.0  0.34639  0.29390  0.21471  1.0000
  P   P45       1.0  0.32596  0.05822  0.23254  1.0000
  C   C1278     1.0  0.41544  0.09996  0.28359  1.0000
  H   H1009     1.0  0.38650  0.18661  0.21653  1.0000
  C   C1279     1.0  0.29828  0.42550  0.08988  1.0000
  C   C1280     1.0  0.31781  0.07153  0.25180  1.0000
  C   C1281     1.0  0.40023  0.20580  0.06388  1.0000
  H   H1010     1.0  0.39150  0.15639  0.07470  1.0000
  H   H1011     1.0  0.44103  0.42511  0.08701  1.0000
  C   C1282     1.0  0.40833  0.19990  0.08060  1.0000
  H   H1012     1.0  0.34313  0.25205  0.05073  1.0000
  C   C1283     1.0  0.32157  0.27505  0.13726  1.0000
  H   H1013     1.0  0.30230  0.09828  0.29521  1.0000
  H   H1014     1.0  0.33373  0.27140  0.12834  1.0000
  C   C1284     1.0  0.44512  0.12256  0.27777  1.0000
  C   C1285     1.0  0.48063  0.16555  0.24513  1.0000
  C   C1286     1.0  0.42873  0.16279  0.21982  1.0000
  C   C1287     1.0  0.41540  0.17690  0.21440  1.0000
  H   H1015     1.0  0.45671  0.13114  0.27595  1.0000
  H   H1016     1.0  0.45204  0.16283  0.25434  1.0000
  H   H1017     1.0  0.32863  0.10841  0.27378  1.0000
  H   H1018     1.0  0.24753  0.34324  0.09738  1.0000
  H   H1019     1.0  0.38156  0.02693  0.26031  1.0000
  C   C1288     1.0  0.47290  0.43990  0.00318  1.0000
  C   C1289     1.0  0.44006  0.11472  0.29565  1.0000
  C   C1290     1.0  0.47373  0.45132  0.03346  1.0000
  H   H1020     1.0  0.29655  0.05319  0.26223  1.0000
  C   C1291     1.0  0.36777  0.02521  0.25628  1.0000
  C   C1292     1.0  0.36038  0.22635  0.05262  1.0000
  H   H1021     1.0  0.41936  0.18835  0.20461  1.0000
  C   C1293     1.0  0.39144  0.14931  0.02330  1.0000
  C   C1294     1.0  0.36001  0.00819  0.26049  1.0000
  C   C1295     1.0  0.32700  0.08694  0.25546  1.0000
  P   P46       1.0  0.38258  0.19304  0.05571  1.0000
  H   H1022     1.0  0.37060  0.45429  0.02720  1.0000
  C   C1296     1.0  0.31999  0.36185  0.12891  1.0000
  C   C1297     1.0  0.29196  0.38269  0.12762  1.0000
  C   C1298     1.0  0.29749  0.07542  0.27968  1.0000
  C   C1299     1.0  0.34317  0.10079  0.19583  1.0000
  C   C1300     1.0  0.39315  0.17683  0.03972  1.0000
  C   C1301     1.0  0.36596  0.20964  0.04464  1.0000
  C   C1302     1.0  0.37888  0.16234  0.08149  1.0000
  C   C1303     1.0  0.36580  0.07464  0.19247  1.0000
  H   H1023     1.0  0.46917  0.08306  0.00990  1.0000
  C   C1304     1.0  0.37028  0.44581  0.01566  1.0000
  H   H1024     1.0  0.29549  0.38435  0.05289  1.0000
  H   H1025     1.0  0.37651  0.13862  0.10146  1.0000
  C   C1305     1.0  0.35564  0.06397  0.20610  1.0000
  H   H1026     1.0  0.45968  0.43571  0.05619  1.0000
  C   C1306     1.0  0.29542  0.35886  0.15327  1.0000
  C   C1307     1.0  0.35752  0.04021  0.24747  1.0000
  H   H1027     1.0  0.37862  0.06873  0.18598  1.0000
  C   C1308     1.0  0.41102  0.17895  0.03122  1.0000
  C   C1309     1.0  0.27783  0.04144  0.20135  1.0000
  C   C1310     1.0  0.29524  0.41900  0.10865  1.0000
  C   C1311     1.0  0.33149  0.02134  0.24759  1.0000
  H   H1028     1.0  0.36058  0.04969  0.20966  1.0000
  C   C1312     1.0  0.37128  0.18006  0.07527  1.0000
  H   H1029     1.0  0.36359  0.05340  0.24465  1.0000
  C   C1313     1.0  0.45075  0.34984  0.09232  1.0000
  H   H1030     1.0  0.34882  0.20110  0.08012  1.0000
  H   H1031     1.0  0.26659  0.03755  0.19387  1.0000
  H   H1032     1.0  0.46071  0.11452  0.03291  1.0000
  C   C1314     1.0  0.33940  0.03834  0.24280  1.0000
  H   H1033     1.0  0.48128  0.16410  0.10645  1.0000
  C   C1315     1.0  0.35504  0.18752  0.08456  1.0000
  C   C1316     1.0  0.35851  0.20616  0.02812  1.0000
  H   H1034     1.0  0.32032  0.09643  0.21595  1.0000
  H   H1035     1.0  0.36253  0.19345  0.02162  1.0000
  H   H1036     1.0  0.25145  0.42019  0.09130  1.0000
  H   H1037     1.0  0.28736  0.07368  0.22968  1.0000
  C   C1317     1.0  0.47131  0.38559  0.05637  1.0000
  H   H1038     1.0  0.38633  0.36939  0.05440  1.0000
  H   H1039     1.0  0.48108  0.17943  0.13653  1.0000
  H   H1040     1.0  0.27216  0.43488  0.13751  1.0000
  C   C1318     1.0  0.35616  0.36090  0.01467  1.0000
  C   C1319     1.0  0.32122  0.43555  0.11593  1.0000
  C   C1320     1.0  0.28910  0.28583  0.14050  1.0000
  C   C1321     1.0  0.37965  0.45085  0.99863  1.0000
  H   H1041     1.0  0.48136  0.08596  0.10923  1.0000
  H   H1042     1.0  0.32074  0.34110  0.15214  1.0000
  H   H1043     1.0  0.46181  0.19139  0.09392  1.0000
  H   H1044     1.0  0.48128  0.17841  0.25149  1.0000
  C   C1322     1.0  0.31784  0.39074  0.03280  1.0000
  S   S178      1.0  0.38357  0.48851  0.06179  1.0000
  C   C1323     1.0  0.47817  0.16535  0.09200  1.0000
  C   C1324     1.0  0.46256  0.18209  0.06650  1.0000
  H   H1045     1.0  0.31723  0.01975  0.24508  1.0000
  C   C1325     1.0  0.31267  0.43693  0.08423  1.0000
  H   H1046     1.0  0.33565  0.45034  0.09274  1.0000
  C   C1326     1.0  0.47823  0.45317  0.01424  1.0000
  H   H1047     1.0  0.35334  0.42623  0.03121  1.0000
  H   H1048     1.0  0.29735  0.01985  0.19150  1.0000
  C   C1327     1.0  0.32416  0.44192  0.09723  1.0000
  H   H1049     1.0  0.31536  0.44149  0.06968  1.0000
  C   C1328     1.0  0.47357  0.39768  0.08605  1.0000
  C   C1329     1.0  0.35891  0.37919  0.01813  1.0000
  P   P47       1.0  0.34649  0.39863  0.00589  1.0000
  H   H1050     1.0  0.30526  0.41865  0.13604  1.0000
  H   H1051     1.0  0.25763  0.34206  0.15495  1.0000
  H   H1052     1.0  0.46800  0.03198  0.00447  1.0000
  H   H1053     1.0  0.46535  0.16954  0.04080  1.0000
  C   C1330     1.0  0.41689  0.48823  0.00050  1.0000
  H   H1054     1.0  0.24552  0.44564  0.15812  1.0000
  H   H1055     1.0  0.32169  0.43256  0.00761  1.0000
  H   H1056     1.0  0.36786  0.99666  0.26761  1.0000
  C   C1331     1.0  0.24509  0.43300  0.15134  1.0000
  H   H1057     1.0  0.44684  0.11741  0.00308  1.0000
  C   C1332     1.0  0.48324  0.15118  0.01175  1.0000
  H   H1058     1.0  0.33573  0.99317  0.25997  1.0000
  C   C1333     1.0  0.24851  0.34539  0.14382  1.0000
  C   C1334     1.0  0.48325  0.48795  0.07173  1.0000
  C   C1335     1.0  0.48745  0.09806  0.11300  1.0000
  C   C1336     1.0  0.49174  0.40202  0.08066  1.0000
  C   C1337     1.0  0.34187  0.00626  0.25617  1.0000
  Fe  Fe91      1.0  0.41151  0.49008  0.04684  1.0000
  H   H1059     1.0  0.45779  0.41567  0.00246  1.0000
  H   H1060     1.0  0.24291  0.38772  0.12726  1.0000
  H   H1061     1.0  0.24566  0.11583  0.31908  1.0000
  H   H1062     1.0  0.49227  0.03459  0.02613  1.0000
  H   H1063     1.0  0.27030  0.06597  0.35141  1.0000
  C   C1338     1.0  0.38922  0.04099  0.41978  1.0000
  S   S179      1.0  0.47853  0.05696  0.36279  1.0000
  C   C1339     1.0  0.48742  0.99621  0.40796  1.0000
  S   S180      1.0  0.30454  0.07261  0.32988  1.0000
  S   S181      1.0  0.46724  0.06387  0.62425  1.0000
  S   S182      1.0  0.39447  0.08123  0.34532  1.0000
  C   C1340     1.0  0.34876  0.02622  0.41832  1.0000
  S   S183      1.0  0.48062  0.05306  0.41851  1.0000
  C   C1341     1.0  0.25526  0.11800  0.62479  1.0000
  C   C1342     1.0  0.28546  0.11005  0.63816  1.0000
  C   C1343     1.0  0.27457  0.11949  0.62429  1.0000
  H   H1064     1.0  0.30027  0.11124  0.63738  1.0000
  H   H1065     1.0  0.28122  0.12784  0.61296  1.0000
  C   C1344     1.0  0.28730  0.08815  0.34080  1.0000
  C   C1345     1.0  0.28853  0.10742  0.33974  1.0000
  C   C1346     1.0  0.27407  0.11908  0.34787  1.0000
  C   C1347     1.0  0.24918  0.23606  0.45124  1.0000
  C   C1348     1.0  0.25725  0.09244  0.35891  1.0000
  C   C1349     1.0  0.27152  0.08082  0.35046  1.0000
  C   C1350     1.0  0.42368  0.01137  0.34943  1.0000
  S   S184      1.0  0.47925  0.05908  0.56856  1.0000
  H   H1066     1.0  0.38377  0.04971  0.62785  1.0000
  C   C1351     1.0  0.44304  0.06996  0.62708  1.0000
  C   C1352     1.0  0.43367  0.08153  0.61377  1.0000
  C   C1353     1.0  0.41481  0.08738  0.61735  1.0000
  C   C1354     1.0  0.40506  0.08158  0.63413  1.0000
  H   H1067     1.0  0.43547  0.04640  0.41173  1.0000
  C   C1355     1.0  0.37826  0.99962  0.38454  1.0000
  H   H1068     1.0  0.44104  0.08633  0.60090  1.0000
  H   H1069     1.0  0.40775  0.09658  0.60709  1.0000
  H   H1070     1.0  0.44618  0.00553  0.36732  1.0000
  C   C1356     1.0  0.45505  0.06375  0.35836  1.0000
  C   C1357     1.0  0.44366  0.07524  0.36968  1.0000
  C   C1358     1.0  0.42519  0.08049  0.36541  1.0000
  C   C1359     1.0  0.41781  0.07414  0.34999  1.0000
  C   C1360     1.0  0.42920  0.06265  0.33867  1.0000
  C   C1361     1.0  0.44773  0.05757  0.34280  1.0000
  H   H1071     1.0  0.44910  0.08020  0.38162  1.0000
  H   H1072     1.0  0.41653  0.08945  0.37422  1.0000
  C   C1362     1.0  0.26292  0.08274  0.59597  1.0000
  C   C1363     1.0  0.28016  0.08119  0.60357  1.0000
  C   C1364     1.0  0.39925  0.03784  0.38748  1.0000
  S   S185      1.0  0.38150  0.08989  0.63813  1.0000
  H   H1073     1.0  0.37430  0.06882  0.37966  1.0000
  H   H1074     1.0  0.44040  0.05501  0.65413  1.0000
  C   C1365     1.0  0.35407  0.99879  0.35653  1.0000
  C   C1366     1.0  0.24882  0.07192  0.60396  1.0000
  H   H1075     1.0  0.24524  0.08648  0.36614  1.0000
  H   H1076     1.0  0.28784  0.22023  0.42604  1.0000
  C   C1367     1.0  0.42143  0.04388  0.40905  1.0000
  H   H1077     1.0  0.25564  0.16065  0.38539  1.0000
  C   C1368     1.0  0.26896  0.05860  0.62766  1.0000
  H   H1078     1.0  0.42829  0.04060  0.38012  1.0000
  C   C1369     1.0  0.24839  0.16893  0.47849  1.0000
  C   C1370     1.0  0.48949  0.11077  0.47945  1.0000
  H   H1079     1.0  0.47573  0.05100  0.49654  1.0000
  H   H1080     1.0  0.37857  0.04122  0.43105  1.0000
  C   C1371     1.0  0.25828  0.11175  0.35751  1.0000
  H   H1081     1.0  0.34499  0.99871  0.34534  1.0000
  H   H1082     1.0  0.41050  0.04688  0.43713  1.0000
  C   C1372     1.0  0.41166  0.00391  0.33850  1.0000
  H   H1083     1.0  0.48024  0.99822  0.52849  1.0000
  H   H1084     1.0  0.40089  0.03322  0.60256  1.0000
  C   C1373     1.0  0.24410  0.16662  0.43115  1.0000
  C   C1374     1.0  0.38510  0.03760  0.40184  1.0000
  C   C1375     1.0  0.32967  0.03502  0.44564  1.0000
  H   H1085     1.0  0.39623  0.03594  0.37341  1.0000
  C   C1376     1.0  0.39910  0.00597  0.61716  1.0000
  C   C1377     1.0  0.32814  0.01627  0.45162  1.0000
  H   H1086     1.0  0.27932  0.99246  0.64263  1.0000
  C   C1378     1.0  0.40734  0.04415  0.42332  1.0000
  H   H1087     1.0  0.27510  0.13396  0.34658  1.0000
  C   C1379     1.0  0.33100  0.08458  0.36810  1.0000
  C   C1380     1.0  0.35007  0.08428  0.36980  1.0000
  C   C1381     1.0  0.47648  0.99700  0.49930  1.0000
  H   H1088     1.0  0.30653  0.06965  0.37398  1.0000
  H   H1089     1.0  0.34086  0.02401  0.36587  1.0000
  H   H1090     1.0  0.34106  0.05460  0.42467  1.0000
  C   C1382     1.0  0.47558  0.00761  0.48210  1.0000
  C   C1383     1.0  0.43326  0.06399  0.64379  1.0000
  C   C1384     1.0  0.33995  0.03999  0.42907  1.0000
  C   C1385     1.0  0.41434  0.06966  0.64729  1.0000
  H   H1091     1.0  0.32379  0.09636  0.36069  1.0000
  H   H1092     1.0  0.40100  0.01292  0.33175  1.0000
  P   P48       1.0  0.36196  0.03291  0.39695  1.0000
  C   C1386     1.0  0.36406  0.01391  0.38219  1.0000
  H   H1093     1.0  0.26143  0.16730  0.47026  1.0000
  H   H1094     1.0  0.35771  0.09587  0.36377  1.0000
  C   C1387     1.0  0.25783  0.09787  0.65359  1.0000
  C   C1388     1.0  0.35186  0.01326  0.36819  1.0000
  C   C1389     1.0  0.35950  0.06877  0.37875  1.0000
  S   S186      1.0  0.35451  0.05084  0.33439  1.0000
  C   C1390     1.0  0.38622  0.03468  0.62936  1.0000
  C   C1391     1.0  0.49161  0.11150  0.49839  1.0000
  C   C1392     1.0  0.32127  0.06948  0.37560  1.0000
  H   H1095     1.0  0.38787  0.99976  0.39522  1.0000
  C   C1393     1.0  0.33064  0.05396  0.38458  1.0000
  H   H1096     1.0  0.29604  0.06901  0.62614  1.0000
  H   H1097     1.0  0.26023  0.09307  0.58450  1.0000
  C   C1394     1.0  0.34990  0.05336  0.38595  1.0000
  C   C1395     1.0  0.34723  0.00741  0.42444  1.0000
  Fe  Fe92      1.0  0.37620  0.07072  0.32483  1.0000
  C   C1396     1.0  0.25820  0.13919  0.40776  1.0000
  H   H1098     1.0  0.32014  0.01245  0.46444  1.0000
  H   H1099     1.0  0.24568  0.14422  0.45314  1.0000
  C   C1397     1.0  0.28312  0.06924  0.61950  1.0000
  C   C1398     1.0  0.47816  0.00610  0.51528  1.0000
  H   H1100     1.0  0.32287  0.04574  0.45383  1.0000
  C   C1399     1.0  0.39587  0.02535  0.61513  1.0000
  H   H1101     1.0  0.32290  0.04228  0.39008  1.0000
  H   H1102     1.0  0.42251  0.02615  0.35090  1.0000
  C   C1400     1.0  0.41738  0.04062  0.39118  1.0000
  H   H1103     1.0  0.45942  0.10245  0.63821  1.0000
  H   H1104     1.0  0.26727  0.02094  0.62469  1.0000
  H   H1105     1.0  0.25798  0.12041  0.43259  1.0000
  C   C1401     1.0  0.33693  0.00248  0.44103  1.0000
  H   H1106     1.0  0.29084  0.09011  0.59783  1.0000
  H   H1107     1.0  0.26316  0.12849  0.39867  1.0000
  H   H1108     1.0  0.35390  0.99651  0.41647  1.0000
  Fe  Fe93      1.0  0.48601  0.06452  0.59729  1.0000
  C   C1402     1.0  0.24682  0.17104  0.41190  1.0000
  C   C1403     1.0  0.47770  0.02550  0.51430  1.0000
  H   H1109     1.0  0.37187  0.03182  0.65644  1.0000
  C   C1404     1.0  0.24649  0.20446  0.44364  1.0000
  C   C1405     1.0  0.26420  0.20446  0.43432  1.0000
  C   C1406     1.0  0.24696  0.10715  0.63964  1.0000
  H   H1110     1.0  0.48736  0.11776  0.64419  1.0000
  C   C1407     1.0  0.25193  0.05934  0.61953  1.0000
  C   C1408     1.0  0.47526  0.02701  0.48112  1.0000
  H   H1111     1.0  0.47551  0.00098  0.46934  1.0000
  C   C1409     1.0  0.25906  0.01534  0.63671  1.0000
  C   C1410     1.0  0.24780  0.16359  0.49756  1.0000
  H   H1112     1.0  0.27119  0.05035  0.64064  1.0000
  C   C1411     1.0  0.25396  0.15738  0.40028  1.0000
  H   H1113     1.0  0.26023  0.15764  0.50391  1.0000
  C   C1412     1.0  0.43704  0.99975  0.35860  1.0000
  C   C1413     1.0  0.27418  0.22028  0.43326  1.0000
  H   H1114     1.0  0.47467  0.03511  0.46779  1.0000
  H   H1115     1.0  0.45644  0.04877  0.33389  1.0000
  C   C1414     1.0  0.25537  0.13466  0.42686  1.0000
  C   C1415     1.0  0.24840  0.14830  0.43852  1.0000
  H   H1116     1.0  0.30046  0.11339  0.33237  1.0000
  H   H1117     1.0  0.42378  0.05780  0.32666  1.0000
  H   H1118     1.0  0.27444  0.24831  0.44087  1.0000
  C   C1416     1.0  0.47606  0.03596  0.49726  1.0000
  H   H1119     1.0  0.48832  0.12452  0.50456  1.0000
  H   H1120     1.0  0.27046  0.19226  0.42805  1.0000
  C   C1417     1.0  0.26666  0.23609  0.44166  1.0000
  H   H1121     1.0  0.40626  0.99901  0.60580  1.0000
  H   H1122     1.0  0.48454  0.12322  0.47129  1.0000
  C   C1418     1.0  0.26583  0.99902  0.64665  1.0000
  C   C1419     1.0  0.39315  0.99582  0.63373  1.0000
  C   C1420     1.0  0.37953  0.02461  0.64548  1.0000
  C   C1421     1.0  0.38271  0.00525  0.64756  1.0000
  C   C1422     1.0  0.46116  0.10639  0.65201  1.0000
  C   C1423     1.0  0.47688  0.11506  0.65539  1.0000
  S   S187      1.0  0.49101  0.09518  0.44665  1.0000
  H   H1123     1.0  0.47901  0.03240  0.52674  1.0000
  H   H1124     1.0  0.48742  0.01075  0.40304  1.0000
  C   C1424     1.0  0.27718  0.09904  0.65291  1.0000
  H   H1125     1.0  0.24302  0.18493  0.40584  1.0000
  H   H1126     1.0  0.24343  0.24824  0.45791  1.0000
  Fe  Fe94      1.0  0.40293  0.46339  0.89210  1.0000
  S   S188      1.0  0.39345  0.47449  0.91946  1.0000
  S   S189      1.0  0.38431  0.44741  0.87639  1.0000
  H   H1127     1.0  0.47827  0.44382  0.88089  1.0000
  C   C1425     1.0  0.43040  0.02458  0.93670  1.0000
  Fe  Fe95      1.0  0.42204  0.46452  0.92738  1.0000
  S   S190      1.0  0.42759  0.44891  0.95477  1.0000
  S   S191      1.0  0.43079  0.45157  0.90094  1.0000
  C   C1426     1.0  0.34791  0.44539  0.93477  1.0000
  S   S192      1.0  0.43307  0.06676  0.96140  1.0000
  S   S193      1.0  0.38766  0.09626  0.94645  1.0000
  Fe  Fe96      1.0  0.32934  0.31091  0.88112  1.0000
  S   S194      1.0  0.30101  0.30870  0.89608  1.0000
  S   S195      1.0  0.34497  0.29036  0.86140  1.0000
  Fe  Fe97      1.0  0.33362  0.34893  0.89673  1.0000
  S   S196      1.0  0.30554  0.34877  0.91229  1.0000
  S   S197      1.0  0.35416  0.36862  0.90504  1.0000
  Fe  Fe98      1.0  0.31344  0.31880  0.92068  1.0000
  S   S198      1.0  0.30998  0.30441  0.95015  1.0000
  Fe  Fe99      1.0  0.29509  0.33915  0.88633  1.0000
  S   S199      1.0  0.26598  0.35263  0.87902  1.0000
  S   S200      1.0  0.34194  0.31909  0.90626  1.0000
  S   S201      1.0  0.32302  0.34113  0.87016  1.0000
  Fe  Fe100     1.0  0.41043  0.14347  0.84514  1.0000
  S   S202      1.0  0.41882  0.17110  0.85208  1.0000
  S   S203      1.0  0.41699  0.11594  0.86237  1.0000
  Fe  Fe101     1.0  0.39848  0.15855  0.80635  1.0000
  S   S204      1.0  0.40591  0.18757  0.81081  1.0000
  S   S205      1.0  0.38870  0.15389  0.77750  1.0000
  Fe  Fe102     1.0  0.43184  0.17346  0.82287  1.0000
  S   S206      1.0  0.45981  0.18508  0.81386  1.0000
  Fe  Fe103     1.0  0.39229  0.18354  0.83979  1.0000
  S   S207      1.0  0.37238  0.20362  0.85669  1.0000
  S   S208      1.0  0.42530  0.14509  0.81654  1.0000
  S   S209      1.0  0.38302  0.15535  0.83468  1.0000
  Fe  Fe104     1.0  0.32117  0.08017  0.67629  1.0000
  S   S210      1.0  0.32836  0.06390  0.70352  1.0000
  C   C1427     1.0  0.26763  0.29374  0.93365  1.0000
  H   H1128     1.0  0.46287  0.30529  0.90469  1.0000
  S   S211      1.0  0.37171  0.06412  0.68826  1.0000
  C   C1428     1.0  0.47181  0.47754  0.97392  1.0000
  Fe  Fe105     1.0  0.34828  0.04606  0.68611  1.0000
  S   S212      1.0  0.35709  0.01501  0.69199  1.0000
  Fe  Fe106     1.0  0.35146  0.08299  0.70429  1.0000
  S   S213      1.0  0.36100  0.08973  0.73262  1.0000
  C   C1429     1.0  0.41537  0.04844  0.87870  1.0000
  S   S214      1.0  0.34279  0.10055  0.67843  1.0000
  C   C1430     1.0  0.48705  0.03290  0.98020  1.0000
  C   C1431     1.0  0.46762  0.06509  0.91411  1.0000
  H   H1129     1.0  0.31973  0.00945  0.68135  1.0000
  H   H1130     1.0  0.42773  0.02536  0.89529  1.0000
  C   C1432     1.0  0.38136  0.13572  0.76514  1.0000
  C   C1433     1.0  0.38208  0.11708  0.77235  1.0000
  C   C1434     1.0  0.37610  0.10330  0.76206  1.0000
  C   C1435     1.0  0.36947  0.10778  0.74428  1.0000
  C   C1436     1.0  0.36925  0.12634  0.73683  1.0000
  C   C1437     1.0  0.37507  0.14016  0.74721  1.0000
  H   H1131     1.0  0.38735  0.11322  0.78581  1.0000
  H   H1132     1.0  0.37648  0.08902  0.76798  1.0000
  H   H1133     1.0  0.36428  0.13010  0.72319  1.0000
  H   H1134     1.0  0.37460  0.15445  0.74131  1.0000
  C   C1438     1.0  0.36370  0.49083  0.85989  1.0000
  C   C1439     1.0  0.48128  0.17785  0.82351  1.0000
  C   C1440     1.0  0.27281  0.15515  0.83089  1.0000
  C   C1441     1.0  0.46194  0.42927  0.86449  1.0000
  H   H1135     1.0  0.47132  0.15485  0.84135  1.0000
  C   C1442     1.0  0.29129  0.15582  0.82390  1.0000
  C   C1443     1.0  0.45708  0.28232  0.92482  1.0000
  H   H1136     1.0  0.45498  0.48164  0.95061  1.0000
  H   H1137     1.0  0.36824  0.37971  0.97642  1.0000
  C   C1444     1.0  0.35204  0.26607  0.86026  1.0000
  C   C1445     1.0  0.36421  0.26052  0.84530  1.0000
  C   C1446     1.0  0.37039  0.24161  0.84379  1.0000
  C   C1447     1.0  0.36456  0.22781  0.85731  1.0000
  C   C1448     1.0  0.35219  0.23333  0.87215  1.0000
  C   C1449     1.0  0.34594  0.25223  0.87360  1.0000
  H   H1138     1.0  0.36903  0.27098  0.83482  1.0000
  H   H1139     1.0  0.37987  0.23775  0.83228  1.0000
  H   H1140     1.0  0.34751  0.22288  0.88271  1.0000
  H   H1141     1.0  0.33646  0.25610  0.88510  1.0000
  C   C1450     1.0  0.31192  0.31472  0.97121  1.0000
  C   C1451     1.0  0.31260  0.33392  0.97170  1.0000
  H   H1142     1.0  0.36354  0.12093  0.80873  1.0000
  H   H1143     1.0  0.31240  0.34288  0.95891  1.0000
  H   H1144     1.0  0.38633  0.10428  0.82920  1.0000
  C   C1452     1.0  0.26660  0.13861  0.83977  1.0000
  C   C1453     1.0  0.38583  0.30675  0.87014  1.0000
  C   C1454     1.0  0.46893  0.48084  0.95507  1.0000
  H   H1145     1.0  0.26673  0.34621  0.83910  1.0000
  C   C1455     1.0  0.39665  0.10210  0.92341  1.0000
  C   C1456     1.0  0.38857  0.11766  0.91307  1.0000
  C   C1457     1.0  0.39497  0.12237  0.89451  1.0000
  C   C1458     1.0  0.40918  0.11123  0.88596  1.0000
  C   C1459     1.0  0.41703  0.09546  0.89618  1.0000
  C   C1460     1.0  0.41096  0.09101  0.91487  1.0000
  H   H1146     1.0  0.37738  0.12620  0.91950  1.0000
  H   H1147     1.0  0.38870  0.13445  0.88675  1.0000
  H   H1148     1.0  0.42789  0.08669  0.88959  1.0000
  H   H1149     1.0  0.41707  0.07881  0.92255  1.0000
  C   C1461     1.0  0.33023  0.10632  0.77405  1.0000
  H   H1150     1.0  0.26455  0.31759  0.86061  1.0000
  C   C1462     1.0  0.37572  0.42568  0.88470  1.0000
  C   C1463     1.0  0.38161  0.41574  0.90093  1.0000
  C   C1464     1.0  0.37483  0.39833  0.90684  1.0000
  C   C1465     1.0  0.36198  0.39069  0.89674  1.0000
  C   C1466     1.0  0.35594  0.40068  0.88059  1.0000
  C   C1467     1.0  0.36284  0.41806  0.87459  1.0000
  H   H1151     1.0  0.39151  0.42141  0.90883  1.0000
  H   H1152     1.0  0.37961  0.39072  0.91934  1.0000
  H   H1153     1.0  0.34609  0.39498  0.87267  1.0000
  H   H1154     1.0  0.35823  0.42562  0.86200  1.0000
  C   C1468     1.0  0.42299  0.46396  0.97233  1.0000
  H   H1155     1.0  0.45591  0.14142  0.97834  1.0000
  H   H1156     1.0  0.39976  0.07150  0.86481  1.0000
  H   H1157     1.0  0.33459  0.10316  0.80308  1.0000
  H   H1158     1.0  0.39519  0.29095  0.93852  1.0000
  H   H1159     1.0  0.46600  0.08448  0.93505  1.0000
  H   H1160     1.0  0.42395  0.25470  0.84171  1.0000
  C   C1469     1.0  0.25176  0.29819  0.90507  1.0000
  H   H1161     1.0  0.41742  0.25989  0.92906  1.0000
  H   H1162     1.0  0.25286  0.33921  0.92433  1.0000
  H   H1163     1.0  0.42817  0.05115  0.87055  1.0000
  H   H1164     1.0  0.44870  0.41188  0.84787  1.0000
  H   H1165     1.0  0.47206  0.04328  0.89569  1.0000
  C   C1470     1.0  0.47796  0.13000  0.92971  1.0000
  H   H1166     1.0  0.35019  0.47129  0.87903  1.0000
  H   H1167     1.0  0.37947  0.10153  0.86331  1.0000
  C   C1471     1.0  0.24851  0.31719  0.90756  1.0000
  H   H1168     1.0  0.45097  0.11470  0.77505  1.0000
  C   C1472     1.0  0.34142  0.43149  0.92543  1.0000
  C   C1473     1.0  0.37295  0.10957  0.83508  1.0000
  H   H1169     1.0  0.44632  0.06917  0.68568  1.0000
  C   C1474     1.0  0.35237  0.11590  0.86201  1.0000
  C   C1475     1.0  0.33934  0.12515  0.85046  1.0000
  C   C1476     1.0  0.34290  0.12639  0.83108  1.0000
  C   C1477     1.0  0.35998  0.11889  0.82351  1.0000
  P   P49       1.0  0.32734  0.14050  0.81633  1.0000
  C   C1478     1.0  0.30373  0.13997  0.82598  1.0000
  C   C1479     1.0  0.33520  0.16357  0.81522  1.0000
  C   C1480     1.0  0.33102  0.17442  0.83027  1.0000
  C   C1481     1.0  0.33837  0.19167  0.83018  1.0000
  C   C1482     1.0  0.35023  0.19803  0.81526  1.0000
  C   C1483     1.0  0.35461  0.18721  0.80033  1.0000
  C   C1484     1.0  0.34716  0.17003  0.80032  1.0000
  C   C1485     1.0  0.29731  0.12332  0.83457  1.0000
  C   C1486     1.0  0.32711  0.13194  0.79375  1.0000
  C   C1487     1.0  0.33096  0.11292  0.79148  1.0000
  C   C1488     1.0  0.32545  0.11857  0.75884  1.0000
  C   C1489     1.0  0.32118  0.13742  0.76107  1.0000
  C   C1490     1.0  0.32179  0.14406  0.77850  1.0000
  C   C1491     1.0  0.44883  0.02241  0.94130  1.0000
  C   C1492     1.0  0.39441  0.30578  0.88691  1.0000
  H   H1170     1.0  0.32678  0.13182  0.85670  1.0000
  H   H1171     1.0  0.32254  0.16936  0.84232  1.0000
  H   H1172     1.0  0.33554  0.19983  0.84202  1.0000
  H   H1173     1.0  0.35647  0.21108  0.81560  1.0000
  H   H1174     1.0  0.36430  0.19180  0.78902  1.0000
  H   H1175     1.0  0.35126  0.16158  0.78895  1.0000
  H   H1176     1.0  0.29579  0.16863  0.81672  1.0000
  H   H1177     1.0  0.30656  0.11079  0.83574  1.0000
  H   H1178     1.0  0.32536  0.11344  0.74526  1.0000
  H   H1179     1.0  0.31757  0.14688  0.74921  1.0000
  H   H1180     1.0  0.31823  0.15868  0.78000  1.0000
  C   C1493     1.0  0.36534  0.27421  0.91129  1.0000
  C   C1494     1.0  0.34980  0.37746  0.95513  1.0000
  C   C1495     1.0  0.33180  0.38114  0.94948  1.0000
  C   C1496     1.0  0.31828  0.39041  0.96074  1.0000
  H   H1181     1.0  0.37613  0.11960  0.66681  1.0000
  C   C1497     1.0  0.39587  0.14984  0.69103  1.0000
  C   C1498     1.0  0.35427  0.38289  0.97215  1.0000
  C   C1499     1.0  0.42262  0.28359  0.90946  1.0000
  H   H1182     1.0  0.45723  0.07307  0.90606  1.0000
  H   H1183     1.0  0.39159  0.24455  0.90421  1.0000
  C   C1500     1.0  0.44969  0.10776  0.68432  1.0000
  C   C1501     1.0  0.48321  0.16257  0.83668  1.0000
  C   C1502     1.0  0.38540  0.12464  0.67591  1.0000
  C   C1503     1.0  0.47164  0.15095  0.75725  1.0000
  H   H1184     1.0  0.42267  0.03783  0.93813  1.0000
  C   C1504     1.0  0.29008  0.48611  0.90713  1.0000
  H   H1185     1.0  0.45154  0.12423  0.94387  1.0000
  C   C1505     1.0  0.38336  0.02276  0.94196  1.0000
  C   C1506     1.0  0.25308  0.35216  0.84336  1.0000
  H   H1186     1.0  0.37094  0.06377  0.96097  1.0000
  C   C1507     1.0  0.38295  0.28521  0.93454  1.0000
  H   H1187     1.0  0.38221  0.00258  0.89024  1.0000
  H   H1188     1.0  0.47675  0.44059  0.98843  1.0000
  H   H1189     1.0  0.37187  0.32445  0.84921  1.0000
  C   C1508     1.0  0.33258  0.46913  0.91400  1.0000
  H   H1190     1.0  0.47622  0.03166  0.97103  1.0000
  H   H1191     1.0  0.36019  0.37019  0.94630  1.0000
  H   H1192     1.0  0.32833  0.37665  0.93640  1.0000
  H   H1193     1.0  0.30429  0.39303  0.95636  1.0000
  C   C1509     1.0  0.41121  0.23506  0.86180  1.0000
  C   C1510     1.0  0.39858  0.03073  0.90378  1.0000
  H   H1194     1.0  0.38352  0.29424  0.86387  1.0000
  H   H1195     1.0  0.47919  0.16316  0.98385  1.0000
  C   C1511     1.0  0.42405  0.99678  0.98331  1.0000
  H   H1196     1.0  0.41822  0.28088  0.86153  1.0000
  C   C1512     1.0  0.46125  0.41387  0.85442  1.0000
  H   H1197     1.0  0.37072  0.48010  0.85184  1.0000
  S   S215      1.0  0.33999  0.06103  0.65901  1.0000
  C   C1513     1.0  0.27186  0.48942  0.90186  1.0000
  C   C1514     1.0  0.48934  0.03804  0.91882  1.0000
  C   C1515     1.0  0.37112  0.04916  0.95883  1.0000
  C   C1516     1.0  0.37955  0.43975  0.98389  1.0000
  H   H1198     1.0  0.48350  0.16196  0.88819  1.0000
  H   H1199     1.0  0.45489  0.03380  0.94661  1.0000
  C   C1517     1.0  0.41208  0.11910  0.69450  1.0000
  C   C1518     1.0  0.38235  0.04198  0.89999  1.0000
  H   H1200     1.0  0.27567  0.28487  0.94345  1.0000
  H   H1201     1.0  0.30492  0.25906  0.85853  1.0000
  C   C1519     1.0  0.38111  0.34026  0.87002  1.0000
  C   C1520     1.0  0.26712  0.28831  0.86968  1.0000
  C   C1521     1.0  0.34355  0.46413  0.92910  1.0000
  H   H1202     1.0  0.36948  0.03983  0.90823  1.0000
  S   S216      1.0  0.47069  0.09769  0.97175  1.0000
  C   C1522     1.0  0.47894  0.12040  0.67310  1.0000
  Fe  Fe107     1.0  0.44440  0.08396  0.98129  1.0000
  C   C1523     1.0  0.33066  0.43630  0.91031  1.0000
  C   C1524     1.0  0.45958  0.10265  0.74932  1.0000
  C   C1525     1.0  0.27883  0.12269  0.84156  1.0000
  C   C1526     1.0  0.43024  0.12023  0.75522  1.0000
  C   C1527     1.0  0.42529  0.11763  0.73743  1.0000
  C   C1528     1.0  0.43784  0.10823  0.72511  1.0000
  C   C1529     1.0  0.45477  0.10023  0.73143  1.0000
  P   P50       1.0  0.43143  0.10390  0.70237  1.0000
  C   C1530     1.0  0.38336  0.14318  0.68000  1.0000
  C   C1531     1.0  0.37917  0.32393  0.86176  1.0000
  S   S217      1.0  0.29013  0.08620  0.67067  1.0000
  C   C1532     1.0  0.47453  0.15238  0.77585  1.0000
  H   H1203     1.0  0.48364  0.13297  0.94237  1.0000
  C   C1533     1.0  0.34071  0.39208  0.98367  1.0000
  C   C1534     1.0  0.42470  0.08035  0.70487  1.0000
  C   C1535     1.0  0.40944  0.07598  0.71711  1.0000
  C   C1536     1.0  0.40365  0.05795  0.71921  1.0000
  C   C1537     1.0  0.41294  0.04417  0.70896  1.0000
  C   C1538     1.0  0.42835  0.04833  0.69695  1.0000
  C   C1539     1.0  0.43436  0.06632  0.69503  1.0000
  H   H1204     1.0  0.47261  0.09643  0.75416  1.0000
  C   C1540     1.0  0.35154  0.27674  0.94251  1.0000
  H   H1205     1.0  0.46682  0.12186  0.70086  1.0000
  H   H1206     1.0  0.41154  0.12270  0.73357  1.0000
  H   H1207     1.0  0.46413  0.09189  0.72257  1.0000
  H   H1208     1.0  0.39741  0.21872  0.88415  1.0000
  C   C1541     1.0  0.38193  0.28026  0.91639  1.0000
  H   H1209     1.0  0.25124  0.08962  0.66499  1.0000
  C   C1542     1.0  0.48081  0.12615  0.89674  1.0000
  H   H1210     1.0  0.40087  0.09829  0.67971  1.0000
  H   H1211     1.0  0.40174  0.08662  0.72477  1.0000
  H   H1212     1.0  0.39142  0.05493  0.72823  1.0000
  H   H1213     1.0  0.40791  0.03041  0.71007  1.0000
  H   H1214     1.0  0.43542  0.03769  0.68885  1.0000
  C   C1543     1.0  0.35939  0.01908  0.96720  1.0000
  H   H1215     1.0  0.48426  0.14492  0.73045  1.0000
  H   H1216     1.0  0.26328  0.16742  0.82927  1.0000
  S   S218      1.0  0.41782  0.10118  0.98700  1.0000
  C   C1544     1.0  0.48577  0.06127  0.94102  1.0000
  C   C1545     1.0  0.38318  0.04169  0.94497  1.0000
  C   C1546     1.0  0.44753  0.10294  0.66634  1.0000
  H   H1217     1.0  0.35672  0.44162  0.94614  1.0000
  H   H1218     1.0  0.47616  0.38922  0.84489  1.0000
  H   H1219     1.0  0.42062  0.12781  0.76455  1.0000
  C   C1547     1.0  0.44425  0.26954  0.93163  1.0000
  H   H1220     1.0  0.40184  0.32177  0.90863  1.0000
  H   H1221     1.0  0.39440  0.16428  0.69403  1.0000
  H   H1222     1.0  0.37036  0.06561  0.88348  1.0000
  C   C1548     1.0  0.27286  0.30457  0.85965  1.0000
  C   C1549     1.0  0.28959  0.30425  0.84872  1.0000
  C   C1550     1.0  0.30090  0.28772  0.84801  1.0000
  C   C1551     1.0  0.29567  0.27161  0.85854  1.0000
  P   P51       1.0  0.39853  0.01335  0.92343  1.0000
  H   H1223     1.0  0.26128  0.48053  0.90792  1.0000
  H   H1224     1.0  0.33735  0.26798  0.92022  1.0000
  H   H1225     1.0  0.43285  0.30616  0.89077  1.0000
  H   H1226     1.0  0.36975  0.41554  0.97435  1.0000
  C   C1552     1.0  0.47599  0.04833  0.90831  1.0000
  H   H1227     1.0  0.27533  0.25943  0.87792  1.0000
  H   H1228     1.0  0.42033  0.14350  0.70592  1.0000
  C   C1553     1.0  0.35026  0.27229  0.92435  1.0000
  C   C1554     1.0  0.45284  0.29555  0.91017  1.0000
  C   C1555     1.0  0.39610  0.32223  0.89525  1.0000
  H   H1229     1.0  0.39071  0.35205  0.89332  1.0000
  C   C1556     1.0  0.34521  0.99491  0.68967  1.0000
  C   C1557     1.0  0.35939  0.03785  0.97007  1.0000
  H   H1230     1.0  0.29402  0.31693  0.84119  1.0000
  H   H1231     1.0  0.31401  0.28755  0.83975  1.0000
  C   C1558     1.0  0.43572  0.29611  0.90240  1.0000
  H   H1232     1.0  0.31323  0.35648  0.98905  1.0000
  C   C1559     1.0  0.38277  0.05658  0.88593  1.0000
  H   H1233     1.0  0.41352  0.22363  0.85302  1.0000
  Fe  Fe108     1.0  0.40605  0.08251  0.96859  1.0000
  H   H1234     1.0  0.34978  0.11533  0.87697  1.0000
  H   H1235     1.0  0.45785  0.15406  0.75242  1.0000
  H   H1236     1.0  0.29330  0.47482  0.91752  1.0000
  Fe  Fe109     1.0  0.44096  0.47956  0.89118  1.0000
  C   C1560     1.0  0.26157  0.28653  0.91813  1.0000
  C   C1561     1.0  0.42208  0.00977  0.93041  1.0000
  H   H1237     1.0  0.34514  0.41696  0.92955  1.0000
  H   H1238     1.0  0.37705  0.99772  0.66005  1.0000
  C   C1562     1.0  0.48881  0.42916  0.93373  1.0000
  C   C1563     1.0  0.39930  0.05989  0.87539  1.0000
  C   C1564     1.0  0.24923  0.35673  0.86170  1.0000
  C   C1565     1.0  0.36913  0.10808  0.85432  1.0000
  H   H1239     1.0  0.33378  0.09176  0.77211  1.0000
  C   C1566     1.0  0.47801  0.43186  0.87305  1.0000
  C   C1567     1.0  0.41504  0.03387  0.89279  1.0000
  H   H1240     1.0  0.32621  0.42546  0.90270  1.0000
  C   C1568     1.0  0.32626  0.45502  0.90458  1.0000
  C   C1569     1.0  0.47672  0.40113  0.85276  1.0000
  H   H1241     1.0  0.34911  0.47460  0.93630  1.0000
  C   C1570     1.0  0.32702  0.99598  0.68428  1.0000
  C   C1571     1.0  0.44736  0.11279  0.76116  1.0000
  P   P52       1.0  0.24572  0.28926  0.88412  1.0000
  H   H1242     1.0  0.36393  0.27147  0.89708  1.0000
  H   H1243     1.0  0.44762  0.25911  0.94280  1.0000
  H   H1244     1.0  0.37543  0.35353  0.86388  1.0000
  C   C1572     1.0  0.37116  0.01160  0.95313  1.0000
  C   C1573     1.0  0.38973  0.33941  0.88668  1.0000
  H   H1245     1.0  0.33968  0.27567  0.95250  1.0000
  H   H1246     1.0  0.27396  0.10980  0.84821  1.0000
  C   C1574     1.0  0.47256  0.07155  0.93042  1.0000
  P   P53       1.0  0.40085  0.28362  0.89908  1.0000
  S   S219      1.0  0.46844  0.48164  0.87395  1.0000
  H   H1247     1.0  0.35033  0.01026  0.97597  1.0000
  H   H1248     1.0  0.48918  0.06649  0.95375  1.0000
  C   C1575     1.0  0.27888  0.27189  0.86945  1.0000
  C   C1576     1.0  0.36781  0.28334  0.94757  1.0000
  C   C1577     1.0  0.46532  0.11693  0.68749  1.0000
  H   H1249     1.0  0.36843  0.28748  0.96147  1.0000
  H   H1250     1.0  0.39209  0.05088  0.93650  1.0000
  C   C1578     1.0  0.42713  0.27008  0.92389  1.0000
  H   H1251     1.0  0.31837  0.45847  0.89249  1.0000
  C   C1579     1.0  0.26427  0.31266  0.93604  1.0000
  C   C1580     1.0  0.39854  0.24709  0.89058  1.0000
  H   H1252     1.0  0.46306  0.15674  0.78541  1.0000
  H   H1253     1.0  0.43756  0.11752  0.91546  1.0000
  H   H1254     1.0  0.26507  0.27202  0.91604  1.0000
  C   C1581     1.0  0.40210  0.23230  0.87940  1.0000
  C   C1582     1.0  0.40387  0.26488  0.88409  1.0000
  H   H1255     1.0  0.41252  0.48714  0.95425  1.0000
  C   C1583     1.0  0.31309  0.34160  0.98883  1.0000
  C   C1584     1.0  0.41348  0.26743  0.86658  1.0000
  C   C1585     1.0  0.41693  0.25261  0.85540  1.0000
  H   H1256     1.0  0.26966  0.31833  0.94768  1.0000
  H   H1257     1.0  0.47038  0.28184  0.93075  1.0000
  H   H1258     1.0  0.45626  0.11821  0.88534  1.0000
  C   C1586     1.0  0.46246  0.12129  0.89775  1.0000
  C   C1587     1.0  0.45187  0.12090  0.91469  1.0000
  C   C1588     1.0  0.45968  0.12499  0.93067  1.0000
  C   C1589     1.0  0.43276  0.99284  0.92840  1.0000
  H   H1259     1.0  0.45004  0.43932  0.86557  1.0000
  C   C1590     1.0  0.25475  0.32438  0.92297  1.0000
  S   S220      1.0  0.43665  0.01634  0.98576  1.0000
  H   H1260     1.0  0.38714  0.44358  0.97077  1.0000
  H   H1261     1.0  0.25226  0.13808  0.84510  1.0000
  H   H1262     1.0  0.48877  0.07032  0.66117  1.0000
  C   C1591     1.0  0.41582  0.48228  0.96824  1.0000
  C   C1592     1.0  0.48655  0.14577  0.74491  1.0000
  Fe  Fe110     1.0  0.36203  0.08027  0.66267  1.0000
  H   H1263     1.0  0.40701  0.06502  0.66023  1.0000
  H   H1264     1.0  0.47542  0.42663  0.94085  1.0000
  C   C1593     1.0  0.39956  0.11258  0.68324  1.0000
  H   H1265     1.0  0.45992  0.47619  0.98381  1.0000
  H   H1266     1.0  0.48434  0.19191  0.86976  1.0000
  C   C1594     1.0  0.35207  0.48586  0.87553  1.0000
  C   C1595     1.0  0.48853  0.13109  0.91261  1.0000
  C   C1596     1.0  0.32268  0.39592  0.97775  1.0000
  C   C1597     1.0  0.49258  0.42491  0.91532  1.0000
  C   C1598     1.0  0.41041  0.13795  0.69795  1.0000
  H   H1267     1.0  0.48210  0.41860  0.90874  1.0000
  C   C1599     1.0  0.45908  0.00536  0.93997  1.0000
  C   C1600     1.0  0.48810  0.09162  0.98708  1.0000
  H   H1268     1.0  0.37222  0.15240  0.67442  1.0000
  H   H1269     1.0  0.35034  0.04367  0.98103  1.0000
  H   H1270     1.0  0.47309  0.00354  0.94429  1.0000
  S   S221      1.0  0.41366  0.49072  0.87981  1.0000
  C   C1601     1.0  0.31219  0.30332  0.98804  1.0000
  C   C1602     1.0  0.40466  0.99772  0.98457  1.0000
  H   H1271     1.0  0.39686  0.01084  0.98666  1.0000
  H   H1272     1.0  0.48164  0.48569  0.92744  1.0000
  H   H1273     1.0  0.31185  0.40277  0.98633  1.0000
  C   C1603     1.0  0.48397  0.48310  0.94206  1.0000
  H   H1274     1.0  0.37062  0.99707  0.95130  1.0000
  H   H1275     1.0  0.48877  0.12677  0.88344  1.0000
  H   H1276     1.0  0.31161  0.28848  0.98785  1.0000
  Fe  Fe111     1.0  0.42601  0.04698  0.98634  1.0000
  C   C1604     1.0  0.36973  0.42377  0.98604  1.0000
  C   C1605     1.0  0.48983  0.47572  0.97994  1.0000
  C   C1606     1.0  0.49232  0.14876  0.78212  1.0000
  S   S222      1.0  0.43433  0.49152  0.91844  1.0000
  C   C1607     1.0  0.42689  0.45772  0.99052  1.0000
  H   H1277     1.0  0.49094  0.12752  0.67553  1.0000
  H   H1278     1.0  0.43520  0.09665  0.66329  1.0000
  C   C1608     1.0  0.48910  0.49049  0.87987  1.0000
  H   H1279     1.0  0.24316  0.25901  0.86080  1.0000
  H   H1280     1.0  0.48474  0.79559  0.28138  1.0000
  S   S223      1.0  0.37812  0.51932  0.10178  1.0000
  H   H1281     1.0  0.47064  0.49606  0.06813  1.0000
  C   C1609     1.0  0.34256  0.73281  0.07215  1.0000
  S   S224      1.0  0.41123  0.90207  0.01395  1.0000
  C   C1610     1.0  0.48763  0.83522  0.09495  1.0000
  C   C1611     1.0  0.45938  0.83363  0.02941  1.0000
  Fe  Fe112     1.0  0.39801  0.87677  0.00733  1.0000
  S   S225      1.0  0.38039  0.86013  0.02915  1.0000
  H   H1282     1.0  0.31482  0.76355  0.08448  1.0000
  Fe  Fe113     1.0  0.29538  0.63092  0.09144  1.0000
  S   S226      1.0  0.32189  0.63135  0.10597  1.0000
  S   S227      1.0  0.27038  0.61360  0.10184  1.0000
  Fe  Fe114     1.0  0.31248  0.65185  0.05540  1.0000
  S   S228      1.0  0.33956  0.65371  0.06796  1.0000
  S   S229      1.0  0.31034  0.66613  0.02593  1.0000
  Fe  Fe115     1.0  0.33661  0.62380  0.07877  1.0000
  S   S230      1.0  0.36198  0.60410  0.07230  1.0000
  Fe  Fe116     1.0  0.32285  0.66137  0.09390  1.0000
  S   S231      1.0  0.32698  0.68602  0.11107  1.0000
  S   S232      1.0  0.31046  0.62164  0.06483  1.0000
  S   S233      1.0  0.29545  0.66131  0.08078  1.0000
  Fe  Fe117     1.0  0.38983  0.80080  0.16360  1.0000
  S   S234      1.0  0.40219  0.77118  0.16837  1.0000
  S   S235      1.0  0.36864  0.81442  0.18471  1.0000
  Fe  Fe118     1.0  0.41054  0.80600  0.12500  1.0000
  S   S236      1.0  0.42450  0.77712  0.12761  1.0000
  S   S237      1.0  0.42084  0.82563  0.10072  1.0000
  Fe  Fe119     1.0  0.39637  0.76772  0.13865  1.0000
  S   S238      1.0  0.38875  0.74130  0.12578  1.0000
  Fe  Fe120     1.0  0.42912  0.78276  0.15670  1.0000
  S   S239      1.0  0.45579  0.77758  0.17180  1.0000
  S   S240      1.0  0.38224  0.79675  0.13443  1.0000
  S   S241      1.0  0.41695  0.81226  0.15355  1.0000
  S   S242      1.0  0.32732  0.88333  0.28209  1.0000
  S   S243      1.0  0.36712  0.89639  0.29291  1.0000
  H   H1283     1.0  0.33348  0.70519  0.07252  1.0000
  H   H1284     1.0  0.38058  0.73558  0.07372  1.0000
  Fe  Fe121     1.0  0.35734  0.87223  0.27948  1.0000
  S   S244      1.0  0.37527  0.86326  0.25353  1.0000
  C   C1612     1.0  0.36778  0.62170  0.02286  1.0000
  Fe  Fe122     1.0  0.36298  0.87919  0.32012  1.0000
  C   C1613     1.0  0.32972  0.97359  0.29825  1.0000
  C   C1614     1.0  0.33838  0.95542  0.29945  1.0000
  H   H1285     1.0  0.49157  0.77897  0.18610  1.0000
  H   H1286     1.0  0.31550  0.97580  0.29455  1.0000
  C   C1615     1.0  0.37096  0.82757  0.20410  1.0000
  C   C1616     1.0  0.38795  0.83351  0.20819  1.0000
  C   C1617     1.0  0.38894  0.84433  0.22330  1.0000
  C   C1618     1.0  0.37306  0.84921  0.23482  1.0000
  C   C1619     1.0  0.35613  0.84293  0.23102  1.0000
  C   C1620     1.0  0.35510  0.83234  0.21572  1.0000
  H   H1287     1.0  0.40037  0.82972  0.19973  1.0000
  H   H1288     1.0  0.40215  0.84893  0.22611  1.0000
  H   H1289     1.0  0.34376  0.84647  0.23968  1.0000
  H   H1290     1.0  0.34186  0.82782  0.21284  1.0000
  H   H1291     1.0  0.37173  0.61666  0.18764  1.0000
  H   H1292     1.0  0.36361  0.93892  0.30543  1.0000
  C   C1621     1.0  0.48073  0.78316  0.14113  1.0000
  H   H1293     1.0  0.37541  0.78742  0.04149  1.0000
  H   H1294     1.0  0.46903  0.78312  0.13275  1.0000
  C   C1622     1.0  0.34464  0.70088  0.11510  1.0000
  C   C1623     1.0  0.36260  0.69939  0.10645  1.0000
  C   C1624     1.0  0.37585  0.71171  0.11002  1.0000
  C   C1625     1.0  0.37146  0.72577  0.12224  1.0000
  C   C1626     1.0  0.35362  0.72697  0.13114  1.0000
  C   C1627     1.0  0.34035  0.71474  0.12751  1.0000
  H   H1295     1.0  0.36628  0.68879  0.09697  1.0000
  H   H1296     1.0  0.38962  0.71036  0.10320  1.0000
  H   H1297     1.0  0.35007  0.73722  0.14097  1.0000
  H   H1298     1.0  0.32662  0.71604  0.13445  1.0000
  H   H1299     1.0  0.33702  0.57961  0.02940  1.0000
  C   C1628     1.0  0.30967  0.65446  0.00547  1.0000
  C   C1629     1.0  0.30908  0.63517  0.00612  1.0000
  C   C1630     1.0  0.47697  0.83191  0.13311  1.0000
  H   H1300     1.0  0.30894  0.62696  0.01937  1.0000
  H   H1301     1.0  0.46966  0.87002  0.06108  1.0000
  C   C1631     1.0  0.46885  0.83769  0.10119  1.0000
  H   H1302     1.0  0.37693  0.52082  0.03688  1.0000
  C   C1632     1.0  0.39182  0.84959  0.04862  1.0000
  C   C1633     1.0  0.41072  0.85121  0.04994  1.0000
  C   C1634     1.0  0.41938  0.84360  0.06591  1.0000
  C   C1635     1.0  0.40936  0.83405  0.08061  1.0000
  C   C1636     1.0  0.39058  0.83199  0.07914  1.0000
  C   C1637     1.0  0.38182  0.83979  0.06321  1.0000
  H   H1303     1.0  0.41861  0.85875  0.03886  1.0000
  H   H1304     1.0  0.43388  0.84543  0.06698  1.0000
  H   H1305     1.0  0.38276  0.82475  0.09047  1.0000
  H   H1306     1.0  0.36721  0.83851  0.06234  1.0000
  C   C1638     1.0  0.31183  0.76677  0.11370  1.0000
  C   C1639     1.0  0.38788  0.78067  0.07881  1.0000
  H   H1307     1.0  0.38006  0.54059  0.00805  1.0000
  C   C1640     1.0  0.49149  0.98079  0.01283  1.0000
  C   C1641     1.0  0.48616  0.49246  0.01449  1.0000
  C   C1642     1.0  0.34950  0.77298  0.11047  1.0000
  C   C1643     1.0  0.38773  0.74769  0.07562  1.0000
  C   C1644     1.0  0.37274  0.54229  0.09203  1.0000
  C   C1645     1.0  0.35657  0.55242  0.09866  1.0000
  C   C1646     1.0  0.35249  0.57108  0.09190  1.0000
  C   C1647     1.0  0.36489  0.57995  0.07898  1.0000
  C   C1648     1.0  0.38079  0.56969  0.07202  1.0000
  C   C1649     1.0  0.38461  0.55088  0.07834  1.0000
  H   H1308     1.0  0.34727  0.54585  0.10916  1.0000
  H   H1309     1.0  0.34000  0.57873  0.09693  1.0000
  H   H1310     1.0  0.39040  0.57641  0.06193  1.0000
  H   H1311     1.0  0.39704  0.54322  0.07308  1.0000
  C   C1650     1.0  0.36077  0.70426  0.00281  1.0000
  H   H1312     1.0  0.41264  0.95546  0.27749  1.0000
  H   H1313     1.0  0.37507  0.72934  0.00031  1.0000
  H   H1314     1.0  0.46845  0.80783  0.07756  1.0000
  C   C1651     1.0  0.33037  0.81889  0.05085  1.0000
  C   C1652     1.0  0.41272  0.94652  0.29033  1.0000
  C   C1653     1.0  0.45028  0.76826  0.29646  1.0000
  C   C1654     1.0  0.26954  0.55495  0.11952  1.0000
  C   C1655     1.0  0.35813  0.56136  0.01600  1.0000
  C   C1656     1.0  0.35740  0.81152  0.28666  1.0000
  H   H1315     1.0  0.43044  0.75872  0.08535  1.0000
  H   H1316     1.0  0.37657  0.82624  0.26803  1.0000
  C   C1657     1.0  0.34380  0.55505  0.04718  1.0000
  H   H1317     1.0  0.43731  0.81558  0.02912  1.0000
  H   H1318     1.0  0.32127  0.56854  0.00407  1.0000
  H   H1319     1.0  0.45484  0.75389  0.29455  1.0000
  H   H1320     1.0  0.24365  0.58501  0.18287  1.0000
  H   H1321     1.0  0.37339  0.59222  0.02720  1.0000
  C   C1658     1.0  0.44181  0.54244  0.99482  1.0000
  H   H1322     1.0  0.36008  0.65058  0.01544  1.0000
  C   C1659     1.0  0.47346  0.83887  0.03947  1.0000
  C   C1660     1.0  0.40929  0.86220  0.28684  1.0000
  H   H1323     1.0  0.37244  0.62414  0.03622  1.0000
  C   C1661     1.0  0.36812  0.60355  0.01772  1.0000
  H   H1324     1.0  0.25218  0.87590  0.28441  1.0000
  C   C1662     1.0  0.24461  0.88349  0.31236  1.0000
  C   C1663     1.0  0.45895  0.89018  0.30610  1.0000
  C   C1664     1.0  0.46354  0.83578  0.12019  1.0000
  H   H1325     1.0  0.40234  0.87004  0.29771  1.0000
  C   C1665     1.0  0.28480  0.54192  0.12088  1.0000
  C   C1666     1.0  0.34391  0.82465  0.03724  1.0000
  H   H1326     1.0  0.34143  0.79441  0.30666  1.0000
  C   C1667     1.0  0.36109  0.60015  0.00094  1.0000
  C   C1668     1.0  0.48228  0.89414  0.00086  1.0000
  H   H1327     1.0  0.36340  0.70078  0.01729  1.0000
  H   H1328     1.0  0.44348  0.79892  0.05980  1.0000
  C   C1669     1.0  0.38827  0.78847  0.29752  1.0000
  Fe  Fe123     1.0  0.43672  0.88896  0.99948  1.0000
  C   C1670     1.0  0.24866  0.62317  0.13399  1.0000
  C   C1671     1.0  0.43832  0.80528  0.30151  1.0000
  H   H1329     1.0  0.28258  0.88923  0.28205  1.0000
  P   P54       1.0  0.36050  0.57660  0.99482  1.0000
  C   C1672     1.0  0.47554  0.52623  0.02981  1.0000
  H   H1330     1.0  0.44520  0.88693  0.31176  1.0000
  H   H1331     1.0  0.48162  0.85007  0.03347  1.0000
  C   C1673     1.0  0.47668  0.82991  0.05708  1.0000
  H   H1332     1.0  0.39895  0.83647  0.29846  1.0000
  C   C1674     1.0  0.25160  0.54934  0.12376  1.0000
  C   C1675     1.0  0.27899  0.89923  0.30919  1.0000
  C   C1676     1.0  0.25106  0.61228  0.11887  1.0000
  C   C1677     1.0  0.47966  0.91236  0.29108  1.0000
  H   H1333     1.0  0.37068  0.81793  0.02361  1.0000
  H   H1334     1.0  0.26236  0.50335  0.13588  1.0000
  C   C1678     1.0  0.34542  0.56652  0.03062  1.0000
  S   S245      1.0  0.46310  0.88572  0.01413  1.0000
  S   S246      1.0  0.42405  0.86287  0.99463  1.0000
  C   C1679     1.0  0.28211  0.52332  0.12670  1.0000
  Fe  Fe124     1.0  0.39657  0.49866  0.08546  1.0000
  C   C1680     1.0  0.35676  0.95278  0.30435  1.0000
  C   C1681     1.0  0.40570  0.91759  0.30787  1.0000
  C   C1682     1.0  0.32066  0.77019  0.12935  1.0000
  C   C1683     1.0  0.33947  0.77332  0.12772  1.0000
  H   H1335     1.0  0.41365  0.73159  0.07966  1.0000
  H   H1336     1.0  0.31304  0.77005  0.14281  1.0000
  H   H1337     1.0  0.34649  0.77545  0.13993  1.0000
  C   C1684     1.0  0.34324  0.83451  0.10145  1.0000
  C   C1685     1.0  0.33852  0.82328  0.11755  1.0000
  C   C1686     1.0  0.34311  0.82800  0.13477  1.0000
  C   C1687     1.0  0.35240  0.84396  0.13591  1.0000
  C   C1688     1.0  0.35743  0.85522  0.11974  1.0000
  C   C1689     1.0  0.35250  0.85049  0.10254  1.0000
  P   P55       1.0  0.36789  0.87679  0.12123  1.0000
  C   C1690     1.0  0.38480  0.88077  0.10180  1.0000
  C   C1691     1.0  0.34981  0.89549  0.12030  1.0000
  C   C1692     1.0  0.35415  0.91368  0.11412  1.0000
  C   C1693     1.0  0.34021  0.92823  0.11354  1.0000
  C   C1694     1.0  0.32189  0.92476  0.11929  1.0000
  C   C1695     1.0  0.31751  0.90675  0.12571  1.0000
  C   C1696     1.0  0.33141  0.89216  0.12627  1.0000
  C   C1697     1.0  0.40391  0.87733  0.10390  1.0000
  C   C1698     1.0  0.41677  0.88122  0.08893  1.0000
  C   C1699     1.0  0.41070  0.88843  0.07172  1.0000
  C   C1700     1.0  0.39174  0.89160  0.06939  1.0000
  C   C1701     1.0  0.37885  0.88787  0.08435  1.0000
  C   C1702     1.0  0.37861  0.87589  0.14304  1.0000
  C   C1703     1.0  0.39045  0.86040  0.14866  1.0000
  C   C1704     1.0  0.39812  0.85925  0.16586  1.0000
  C   C1705     1.0  0.39385  0.87337  0.17770  1.0000
  C   C1706     1.0  0.38210  0.88883  0.17224  1.0000
  C   C1707     1.0  0.37455  0.89016  0.15495  1.0000
  H   H1338     1.0  0.33981  0.83081  0.08807  1.0000
  H   H1339     1.0  0.33131  0.81095  0.11667  1.0000
  H   H1340     1.0  0.33965  0.81924  0.14732  1.0000
  H   H1341     1.0  0.35550  0.84740  0.14951  1.0000
  H   H1342     1.0  0.35587  0.85903  0.08990  1.0000
  H   H1343     1.0  0.36831  0.91663  0.10979  1.0000
  H   H1344     1.0  0.34362  0.94221  0.10862  1.0000
  H   H1345     1.0  0.31110  0.93605  0.11884  1.0000
  H   H1346     1.0  0.30334  0.90408  0.13030  1.0000
  H   H1347     1.0  0.32777  0.87833  0.13145  1.0000
  H   H1348     1.0  0.40906  0.87148  0.11691  1.0000
  H   H1349     1.0  0.43144  0.87809  0.09054  1.0000
  H   H1350     1.0  0.42064  0.89093  0.05997  1.0000
  H   H1351     1.0  0.38705  0.89655  0.05584  1.0000
  H   H1352     1.0  0.36423  0.89047  0.08222  1.0000
  H   H1353     1.0  0.39354  0.84907  0.13985  1.0000
  H   H1354     1.0  0.40707  0.84720  0.17022  1.0000
  H   H1355     1.0  0.39941  0.87217  0.19124  1.0000
  H   H1356     1.0  0.37862  0.89965  0.18156  1.0000
  H   H1357     1.0  0.36533  0.90218  0.15116  1.0000
  C   C1708     1.0  0.44861  0.81920  0.03668  1.0000
  H   H1358     1.0  0.34636  0.76347  0.03367  1.0000
  H   H1359     1.0  0.32252  0.79775  0.07193  1.0000
  C   C1709     1.0  0.26415  0.51769  0.13089  1.0000
  H   H1360     1.0  0.40038  0.90399  0.30877  1.0000
  C   C1710     1.0  0.41973  0.87122  0.27225  1.0000
  C   C1711     1.0  0.42821  0.86118  0.25793  1.0000
  C   C1712     1.0  0.42619  0.84212  0.25814  1.0000
  C   C1713     1.0  0.41551  0.83299  0.27263  1.0000
  C   C1714     1.0  0.40723  0.84316  0.28709  1.0000
  P   P56       1.0  0.41345  0.80821  0.27354  1.0000
  C   C1715     1.0  0.41661  0.80053  0.25033  1.0000
  C   C1716     1.0  0.40133  0.79775  0.24041  1.0000
  C   C1717     1.0  0.40403  0.79167  0.22257  1.0000
  C   C1718     1.0  0.42194  0.78850  0.21440  1.0000
  C   C1719     1.0  0.43722  0.79131  0.22407  1.0000
  C   C1720     1.0  0.43461  0.79727  0.24197  1.0000
  C   C1721     1.0  0.43100  0.79631  0.28766  1.0000
  H   H1361     1.0  0.45421  0.95623  0.00874  1.0000
  C   C1722     1.0  0.35514  0.79681  0.30030  1.0000
  H   H1362     1.0  0.47238  0.82600  0.26687  1.0000
  H   H1363     1.0  0.47150  0.53907  0.03612  1.0000
  C   C1723     1.0  0.43702  0.77769  0.28528  1.0000
  H   H1364     1.0  0.45820  0.84071  0.09144  1.0000
  H   H1365     1.0  0.42086  0.88606  0.27184  1.0000
  H   H1366     1.0  0.43597  0.86826  0.24643  1.0000
  H   H1367     1.0  0.43262  0.83473  0.24675  1.0000
  H   H1368     1.0  0.38727  0.80046  0.24616  1.0000
  H   H1369     1.0  0.39217  0.78979  0.21487  1.0000
  H   H1370     1.0  0.42400  0.78400  0.20048  1.0000
  H   H1371     1.0  0.25850  0.63329  0.13539  1.0000
  H   H1372     1.0  0.44663  0.79945  0.24921  1.0000
  C   C1724     1.0  0.36785  0.53338  0.03506  1.0000
  H   H1373     1.0  0.47124  0.86284  0.31360  1.0000
  H   H1374     1.0  0.43133  0.77039  0.27490  1.0000
  C   C1725     1.0  0.36003  0.81319  0.03390  1.0000
  S   S247      1.0  0.41331  0.50382  0.01775  1.0000
  C   C1726     1.0  0.36640  0.96815  0.30762  1.0000
  H   H1375     1.0  0.29400  0.51332  0.12808  1.0000
  C   C1727     1.0  0.35096  0.69252  0.99366  1.0000
  H   H1376     1.0  0.27158  0.56945  0.11522  1.0000
  C   C1728     1.0  0.36952  0.54477  0.01851  1.0000
  H   H1377     1.0  0.42558  0.96592  0.30490  1.0000
  C   C1729     1.0  0.38762  0.58951  0.11380  1.0000
  C   C1730     1.0  0.39373  0.57110  0.11893  1.0000
  C   C1731     1.0  0.38713  0.56235  0.13584  1.0000
  C   C1732     1.0  0.37468  0.57213  0.14781  1.0000
  C   C1733     1.0  0.36866  0.59075  0.14287  1.0000
  C   C1734     1.0  0.37487  0.59920  0.12552  1.0000
  P   P57       1.0  0.35192  0.60329  0.15782  1.0000
  C   C1735     1.0  0.35578  0.62778  0.15434  1.0000
  C   C1736     1.0  0.32870  0.59939  0.15256  1.0000
  C   C1737     1.0  0.32552  0.59253  0.13573  1.0000
  C   C1738     1.0  0.30747  0.58993  0.13154  1.0000
  C   C1739     1.0  0.29251  0.59398  0.14420  1.0000
  C   C1740     1.0  0.29555  0.60069  0.16107  1.0000
  C   C1741     1.0  0.31359  0.60339  0.16527  1.0000
  C   C1742     1.0  0.37397  0.63340  0.15269  1.0000
  C   C1743     1.0  0.37712  0.65227  0.14983  1.0000
  C   C1744     1.0  0.36218  0.66567  0.14861  1.0000
  C   C1745     1.0  0.34407  0.66021  0.15022  1.0000
  C   C1746     1.0  0.34084  0.64136  0.15295  1.0000
  C   C1747     1.0  0.35486  0.59484  0.18176  1.0000
  C   C1748     1.0  0.34671  0.57863  0.18931  1.0000
  C   C1749     1.0  0.34899  0.57184  0.20775  1.0000
  C   C1750     1.0  0.35940  0.58118  0.21881  1.0000
  C   C1751     1.0  0.36752  0.59733  0.21143  1.0000
  C   C1752     1.0  0.36528  0.60416  0.19299  1.0000
  H   H1378     1.0  0.39222  0.59608  0.10036  1.0000
  H   H1379     1.0  0.40313  0.56340  0.10953  1.0000
  H   H1380     1.0  0.39144  0.54786  0.13943  1.0000
  H   H1381     1.0  0.36967  0.56500  0.16074  1.0000
  H   H1382     1.0  0.36969  0.61318  0.12083  1.0000
  H   H1383     1.0  0.33689  0.58969  0.12562  1.0000
  H   H1384     1.0  0.30502  0.58535  0.11819  1.0000
  H   H1385     1.0  0.27853  0.59229  0.14074  1.0000
  H   H1386     1.0  0.28387  0.60413  0.17070  1.0000
  H   H1387     1.0  0.31573  0.60888  0.17825  1.0000
  H   H1388     1.0  0.38573  0.62318  0.15349  1.0000
  H   H1389     1.0  0.39116  0.65655  0.14835  1.0000
  H   H1390     1.0  0.36460  0.68030  0.14614  1.0000
  H   H1391     1.0  0.33252  0.67064  0.14887  1.0000
  H   H1392     1.0  0.32670  0.63757  0.15364  1.0000
  H   H1393     1.0  0.33871  0.57114  0.18089  1.0000
  H   H1394     1.0  0.34275  0.55927  0.21344  1.0000
  H   H1395     1.0  0.36122  0.57588  0.23308  1.0000
  H   H1396     1.0  0.37562  0.60456  0.21999  1.0000
  H   H1397     1.0  0.39980  0.92456  0.27929  1.0000
  S   S248      1.0  0.32592  0.93656  0.29433  1.0000
  H   H1398     1.0  0.45040  0.91863  0.29742  1.0000
  C   C1753     1.0  0.47380  0.87660  0.30721  1.0000
  C   C1754     1.0  0.40657  0.74537  0.07890  1.0000
  S   S249      1.0  0.35535  0.85427  0.30672  1.0000
  H   H1399     1.0  0.34578  0.68008  0.00108  1.0000
  C   C1755     1.0  0.40555  0.92910  0.29131  1.0000
  C   C1756     1.0  0.32181  0.76651  0.09641  1.0000
  C   C1757     1.0  0.45749  0.77729  0.31019  1.0000
  H   H1400     1.0  0.36418  0.77476  0.10974  1.0000
  C   C1758     1.0  0.45208  0.80984  0.05396  1.0000
  C   C1759     1.0  0.47806  0.78083  0.16047  1.0000
  C   C1760     1.0  0.27345  0.89030  0.29452  1.0000
  H   H1401     1.0  0.47754  0.93002  0.01560  1.0000
  H   H1402     1.0  0.44811  0.51648  0.03362  1.0000
  C   C1761     1.0  0.46828  0.95898  0.01105  1.0000
  C   C1762     1.0  0.41603  0.76065  0.08216  1.0000
  C   C1763     1.0  0.36089  0.63662  0.01111  1.0000
  C   C1764     1.0  0.35470  0.63344  0.99400  1.0000
  C   C1765     1.0  0.46761  0.49672  0.02074  1.0000
  H   H1403     1.0  0.45662  0.84109  0.01611  1.0000
  C   C1766     1.0  0.37823  0.76537  0.07562  1.0000
  C   C1767     1.0  0.35492  0.53841  0.04936  1.0000
  C   C1768     1.0  0.35785  0.98634  0.30612  1.0000
  C   C1769     1.0  0.41897  0.94144  0.32292  1.0000
  C   C1770     1.0  0.39065  0.80334  0.28387  1.0000
  C   C1771     1.0  0.34074  0.76966  0.09465  1.0000
  H   H1404     1.0  0.29733  0.76396  0.11502  1.0000
  C   C1772     1.0  0.33365  0.71950  0.04507  1.0000
  C   C1773     1.0  0.46240  0.51346  0.02853  1.0000
  C   C1774     1.0  0.37506  0.81478  0.27853  1.0000
  H   H1405     1.0  0.33431  0.55932  0.05856  1.0000
  S   S250      1.0  0.42417  0.50247  0.06963  1.0000
  H   H1406     1.0  0.44896  0.83690  0.12486  1.0000
  C   C1775     1.0  0.40671  0.77832  0.08200  1.0000
  H   H1407     1.0  0.44256  0.57170  0.99732  1.0000
  H   H1408     1.0  0.25391  0.81185  0.30535  1.0000
  H   H1409     1.0  0.41392  0.79014  0.08490  1.0000
  H   H1410     1.0  0.47545  0.90242  0.05063  1.0000
  Fe  Fe125     1.0  0.32561  0.86654  0.31007  1.0000
  C   C1776     1.0  0.34364  0.75085  0.04229  1.0000
  P   P58       1.0  0.35369  0.76863  0.07237  1.0000
  Fe  Fe126     1.0  0.33715  0.90609  0.29749  1.0000
  H   H1411     1.0  0.34548  0.82055  0.28245  1.0000
  C   C1777     1.0  0.34607  0.74945  0.06141  1.0000
  H   H1412     1.0  0.33516  0.73713  0.01951  1.0000
  H   H1413     1.0  0.35395  0.52966  0.06232  1.0000
  C   C1778     1.0  0.33735  0.73594  0.03419  1.0000
  C   C1779     1.0  0.41975  0.95255  0.30599  1.0000
  C   C1780     1.0  0.34937  0.79027  0.05821  1.0000
  C   C1781     1.0  0.33307  0.80178  0.06133  1.0000
  H   H1414     1.0  0.38075  0.79435  0.07926  1.0000
  C   C1782     1.0  0.46187  0.90805  0.29802  1.0000
  C   C1783     1.0  0.33635  0.71792  0.06402  1.0000
  H   H1415     1.0  0.32859  0.70796  0.03888  1.0000
  H   H1416     1.0  0.34447  0.73139  0.08690  1.0000
  H   H1417     1.0  0.24988  0.55802  0.20588  1.0000
  C   C1784     1.0  0.25629  0.88261  0.29601  1.0000
  C   C1785     1.0  0.36271  0.79601  0.04421  1.0000
  H   H1418     1.0  0.31789  0.82784  0.05342  1.0000
  H   H1419     1.0  0.43380  0.81952  0.30386  1.0000
  C   C1786     1.0  0.24871  0.53058  0.12890  1.0000
  H   H1420     1.0  0.34214  0.83815  0.02948  1.0000
  H   H1421     1.0  0.26240  0.63894  0.25440  1.0000
  H   H1422     1.0  0.36878  0.77383  0.31626  1.0000
  C   C1787     1.0  0.46614  0.81508  0.06408  1.0000
  C   C1788     1.0  0.47338  0.97728  0.00974  1.0000
  C   C1789     1.0  0.36723  0.72040  0.99326  1.0000
  H   H1423     1.0  0.46326  0.98874  0.00628  1.0000
  C   C1790     1.0  0.48894  0.84197  0.28193  1.0000
  C   C1791     1.0  0.48141  0.94421  0.01505  1.0000
  H   H1424     1.0  0.48193  0.92628  0.28498  1.0000
  H   H1425     1.0  0.47281  0.82980  0.14779  1.0000
  H   H1426     1.0  0.45704  0.80278  0.32341  1.0000
  C   C1792     1.0  0.37056  0.78526  0.30570  1.0000
  C   C1793     1.0  0.45151  0.79578  0.31271  1.0000
  H   H1427     1.0  0.29233  0.90515  0.30802  1.0000
  C   C1794     1.0  0.24904  0.64396  0.24939  1.0000
  C   C1795     1.0  0.48373  0.87418  0.06030  1.0000
  S   S251      1.0  0.30221  0.84706  0.31856  1.0000
  H   H1428     1.0  0.43242  0.54016  0.00707  1.0000
  H   H1429     1.0  0.39998  0.77938  0.30194  1.0000
  H   H1430     1.0  0.29871  0.54628  0.11761  1.0000
  H   H1431     1.0  0.45107  0.78888  0.21752  1.0000
  C   C1796     1.0  0.33935  0.98896  0.30165  1.0000
  C   C1797     1.0  0.48694  0.89267  0.05457  1.0000
  H   H1432     1.0  0.46767  0.76993  0.31894  1.0000
  H   H1433     1.0  0.48368  0.85511  0.27517  1.0000
  C   C1798     1.0  0.41245  0.92367  0.32355  1.0000
  H   H1434     1.0  0.25174  0.84593  0.30219  1.0000
  C   C1799     1.0  0.48258  0.82549  0.27710  1.0000
  H   H1435     1.0  0.38064  0.96591  0.31114  1.0000
  H   H1436     1.0  0.25174  0.67235  0.25472  1.0000
  C   C1800     1.0  0.48952  0.80836  0.28529  1.0000
  C   C1801     1.0  0.49175  0.88076  0.30020  1.0000
  H   H1437     1.0  0.24352  0.49749  0.10940  1.0000
  C   C1802     1.0  0.24305  0.66279  0.24957  1.0000
  H   H1438     1.0  0.24269  0.61706  0.24287  1.0000
  S   S252      1.0  0.47908  0.90851  0.57875  1.0000
  H   H1439     1.0  0.42628  0.90689  0.64729  1.0000
  S   S253      1.0  0.45204  0.86610  0.59944  1.0000
  S   S254      1.0  0.46140  0.90012  0.41027  1.0000
  C   C1803     1.0  0.39732  0.93751  0.36433  1.0000
  Fe  Fe127     1.0  0.47570  0.88086  0.39025  1.0000
  S   S255      1.0  0.46247  0.86581  0.36886  1.0000
  C   C1804     1.0  0.47392  0.82749  0.51241  1.0000
  C   C1805     1.0  0.36239  0.95824  0.64255  1.0000
  C   C1806     1.0  0.47294  0.84790  0.64539  1.0000
  C   C1807     1.0  0.43858  0.98065  0.35658  1.0000
  C   C1808     1.0  0.44908  0.96758  0.60882  1.0000
  C   C1809     1.0  0.35034  0.89138  0.42349  1.0000
  H   H1440     1.0  0.27774  0.84998  0.39755  1.0000
  C   C1810     1.0  0.45225  0.97233  0.47373  1.0000
  C   C1811     1.0  0.45160  0.94816  0.45286  1.0000
  C   C1812     1.0  0.45413  0.97088  0.53317  1.0000
  C   C1813     1.0  0.26137  0.84493  0.62271  1.0000
  C   C1814     1.0  0.41783  0.86603  0.61906  1.0000
  H   H1441     1.0  0.44879  0.97177  0.36407  1.0000
  C   C1815     1.0  0.48355  0.88975  0.51382  1.0000
  H   H1442     1.0  0.28219  0.88675  0.56925  1.0000
  C   C1816     1.0  0.28416  0.84676  0.33690  1.0000
  H   H1443     1.0  0.45126  0.98571  0.53053  1.0000
  C   C1817     1.0  0.25805  0.83103  0.35341  1.0000
  C   C1818     1.0  0.26634  0.85997  0.36315  1.0000
  C   C1819     1.0  0.28094  0.86077  0.34905  1.0000
  H   H1444     1.0  0.26008  0.83726  0.61084  1.0000
  C   C1820     1.0  0.48074  0.98365  0.39698  1.0000
  C   C1821     1.0  0.48886  0.92274  0.33484  1.0000
  S   S256      1.0  0.47372  0.88139  0.46075  1.0000
  C   C1822     1.0  0.29592  0.82833  0.44417  1.0000
  Fe  Fe128     1.0  0.48295  0.91945  0.39923  1.0000
  H   H1445     1.0  0.47717  0.88637  0.52755  1.0000
  C   C1823     1.0  0.43951  0.87099  0.36201  1.0000
  C   C1824     1.0  0.42637  0.88179  0.37230  1.0000
  C   C1825     1.0  0.40804  0.88485  0.36694  1.0000
  C   C1826     1.0  0.40271  0.87762  0.35100  1.0000
  C   C1827     1.0  0.41593  0.86708  0.34049  1.0000
  C   C1828     1.0  0.43420  0.86364  0.34609  1.0000
  H   H1446     1.0  0.43019  0.88740  0.38465  1.0000
  H   H1447     1.0  0.39785  0.89275  0.37530  1.0000
  H   H1448     1.0  0.46136  0.91725  0.54234  1.0000
  H   H1449     1.0  0.27520  0.82074  0.33026  1.0000
  H   H1450     1.0  0.48491  0.84473  0.63600  1.0000
  H   H1451     1.0  0.29645  0.94716  0.59608  1.0000
  C   C1829     1.0  0.41658  0.93873  0.36380  1.0000
  C   C1830     1.0  0.43465  0.87459  0.61580  1.0000
  C   C1831     1.0  0.43749  0.88946  0.62592  1.0000
  C   C1832     1.0  0.42387  0.89547  0.63942  1.0000
  C   C1833     1.0  0.40725  0.88670  0.64299  1.0000
  C   C1834     1.0  0.25481  0.84506  0.36555  1.0000
  H   H1452     1.0  0.45030  0.89618  0.62342  1.0000
  C   C1835     1.0  0.44530  0.96180  0.54889  1.0000
  H   H1453     1.0  0.44074  0.93442  0.37983  1.0000
  H   H1454     1.0  0.39145  0.86515  0.63526  1.0000
  C   C1836     1.0  0.38764  0.93074  0.38065  1.0000
  C   C1837     1.0  0.42010  0.94450  0.61780  1.0000
  H   H1455     1.0  0.46264  0.94498  0.59442  1.0000
  H   H1456     1.0  0.40332  0.97937  0.32831  1.0000
  S   S257      1.0  0.33317  0.89005  0.32530  1.0000
  H   H1457     1.0  0.37019  0.97390  0.34941  1.0000
  H   H1458     1.0  0.34288  0.92599  0.54638  1.0000
  C   C1838     1.0  0.43334  0.97385  0.61952  1.0000
  H   H1459     1.0  0.42360  0.92245  0.40851  1.0000
  H   H1460     1.0  0.33574  0.98795  0.44566  1.0000
  H   H1461     1.0  0.27599  0.92665  0.36880  1.0000
  H   H1462     1.0  0.33238  0.90530  0.61579  1.0000
  C   C1839     1.0  0.29593  0.92228  0.61520  1.0000
  P   P59       1.0  0.39779  0.97084  0.63685  1.0000
  C   C1840     1.0  0.34469  0.87741  0.61607  1.0000
  C   C1841     1.0  0.33838  0.82779  0.34910  1.0000
  H   H1463     1.0  0.46043  0.97641  0.60550  1.0000
  H   H1464     1.0  0.28967  0.87226  0.34750  1.0000
  H   H1465     1.0  0.32219  0.88593  0.36522  1.0000
  C   C1842     1.0  0.43593  0.93823  0.60721  1.0000
  H   H1466     1.0  0.27656  0.92848  0.56945  1.0000
  P   P60       1.0  0.29762  0.90609  0.59753  1.0000
  C   C1843     1.0  0.34695  0.95022  0.63733  1.0000
  H   H1467     1.0  0.41552  0.85450  0.61128  1.0000
  C   C1844     1.0  0.27919  0.84811  0.62799  1.0000
  C   C1845     1.0  0.37746  0.96151  0.62965  1.0000
  C   C1846     1.0  0.26131  0.89870  0.61068  1.0000
  C   C1847     1.0  0.28304  0.84404  0.41049  1.0000
  C   C1848     1.0  0.42594  0.93339  0.37987  1.0000
  C   C1849     1.0  0.24532  0.85135  0.63297  1.0000
  H   H1468     1.0  0.29531  0.96862  0.62066  1.0000
  C   C1850     1.0  0.31503  0.88757  0.60342  1.0000
  C   C1851     1.0  0.40417  0.87204  0.63261  1.0000
  C   C1852     1.0  0.29631  0.93701  0.54736  1.0000
  C   C1853     1.0  0.34297  0.85937  0.61151  1.0000
  C   C1854     1.0  0.29106  0.92778  0.56454  1.0000
  H   H1469     1.0  0.32123  0.84085  0.43552  1.0000
  S   S258      1.0  0.47414  0.94881  0.38886  1.0000
  C   C1855     1.0  0.27528  0.89702  0.59624  1.0000
  H   H1470     1.0  0.26397  0.87102  0.37230  1.0000
  C   C1856     1.0  0.29521  0.91553  0.63399  1.0000
  H   H1471     1.0  0.26371  0.90470  0.62327  1.0000
  H   H1472     1.0  0.29557  0.90071  0.63801  1.0000
  Fe  Fe129     1.0  0.48277  0.88853  0.43023  1.0000
  C   C1857     1.0  0.41836  0.96267  0.62339  1.0000
  H   H1473     1.0  0.36188  0.84433  0.34782  1.0000
  C   C1858     1.0  0.27158  0.83343  0.42288  1.0000
  P   P61       1.0  0.42886  0.94836  0.34302  1.0000
  C   C1859     1.0  0.30744  0.83894  0.43175  1.0000
  C   C1860     1.0  0.26541  0.86473  0.65350  1.0000
  H   H1474     1.0  0.35028  0.90540  0.42753  1.0000
  H   H1475     1.0  0.46540  0.81965  0.50487  1.0000
  C   C1861     1.0  0.41622  0.92667  0.39619  1.0000
  C   C1862     1.0  0.45626  0.84019  0.64347  1.0000
  C   C1863     1.0  0.32750  0.85542  0.60267  1.0000
  C   C1864     1.0  0.36583  0.87885  0.42615  1.0000
  C   C1865     1.0  0.45031  0.94985  0.60253  1.0000
  H   H1476     1.0  0.28141  0.88207  0.41175  1.0000
  H   H1477     1.0  0.45137  0.83635  0.53154  1.0000
  C   C1866     1.0  0.32321  0.91727  0.56863  1.0000
  C   C1867     1.0  0.24758  0.86127  0.64842  1.0000
  H   H1478     1.0  0.30165  0.86596  0.59202  1.0000
  H   H1479     1.0  0.37285  0.92948  0.38082  1.0000
  C   C1868     1.0  0.47515  0.94602  0.47500  1.0000
  H   H1480     1.0  0.30509  0.91439  0.35234  1.0000
  C   C1869     1.0  0.47578  0.88440  0.49809  1.0000
  C   C1870     1.0  0.33083  0.89147  0.61200  1.0000
  C   C1871     1.0  0.26737  0.90040  0.32539  1.0000
  C   C1872     1.0  0.46842  0.94129  0.52437  1.0000
  C   C1873     1.0  0.48370  0.88897  0.48009  1.0000
  C   C1874     1.0  0.46390  0.90822  0.65729  1.0000
  H   H1481     1.0  0.26425  0.91034  0.39848  1.0000
  Fe  Fe130     1.0  0.47915  0.88005  0.59391  1.0000
  C   C1875     1.0  0.37640  0.95765  0.61116  1.0000
  H   H1482     1.0  0.38965  0.91983  0.40916  1.0000
  H   H1483     1.0  0.35090  0.84117  0.40885  1.0000
  H   H1484     1.0  0.30087  0.82220  0.45725  1.0000
  H   H1485     1.0  0.33387  0.90974  0.57662  1.0000
  H   H1486     1.0  0.43715  0.92426  0.60279  1.0000
  C   C1876     1.0  0.30107  0.84692  0.41477  1.0000
  H   H1487     1.0  0.32602  0.84134  0.59947  1.0000
  H   H1488     1.0  0.30087  0.83119  0.37982  1.0000
  H   H1489     1.0  0.37781  0.88315  0.43220  1.0000
  H   H1490     1.0  0.46966  0.89702  0.64926  1.0000
  C   C1877     1.0  0.30448  0.91775  0.57525  1.0000
  C   C1878     1.0  0.27799  0.82558  0.43974  1.0000
  C   C1879     1.0  0.34184  0.85121  0.37003  1.0000
  C   C1880     1.0  0.32840  0.92652  0.55146  1.0000
  H   H1491     1.0  0.35658  0.88041  0.62315  1.0000
  C   C1881     1.0  0.28148  0.85807  0.64339  1.0000
  C   C1882     1.0  0.31362  0.86947  0.59853  1.0000
  C   C1883     1.0  0.46685  0.93851  0.46093  1.0000
  H   H1492     1.0  0.32319  0.89584  0.41337  1.0000
  H   H1493     1.0  0.25891  0.97343  0.61051  1.0000
  H   H1494     1.0  0.29135  0.84257  0.62016  1.0000
  C   C1884     1.0  0.27159  0.88844  0.58046  1.0000
  H   H1495     1.0  0.47727  0.93307  0.51502  1.0000
  C   C1885     1.0  0.31497  0.93636  0.54081  1.0000
  H   H1496     1.0  0.40926  0.93514  0.62164  1.0000
  H   H1497     1.0  0.38975  0.94175  0.35213  1.0000
  H   H1498     1.0  0.34985  0.86203  0.37389  1.0000
  H   H1499     1.0  0.35347  0.84838  0.61514  1.0000
  H   H1500     1.0  0.37798  0.85109  0.42287  1.0000
  H   H1501     1.0  0.43240  0.97247  0.45308  1.0000
  C   C1886     1.0  0.29985  0.90722  0.36525  1.0000
  C   C1887     1.0  0.28350  0.91413  0.37453  1.0000
  C   C1888     1.0  0.27691  0.90495  0.39125  1.0000
  C   C1889     1.0  0.28660  0.88878  0.39863  1.0000
  C   C1890     1.0  0.30272  0.88139  0.38906  1.0000
  C   C1891     1.0  0.30948  0.89098  0.37254  1.0000
  P   P62       1.0  0.31575  0.86083  0.39861  1.0000
  C   C1892     1.0  0.32468  0.84753  0.37948  1.0000
  C   C1893     1.0  0.33504  0.86778  0.40999  1.0000
  C   C1894     1.0  0.35056  0.85520  0.41296  1.0000
  C   C1895     1.0  0.36591  0.86076  0.42093  1.0000
  C   C1896     1.0  0.33498  0.88588  0.41545  1.0000
  C   C1897     1.0  0.31440  0.83396  0.37339  1.0000
  H   H1502     1.0  0.33442  0.93935  0.61517  1.0000
  C   C1898     1.0  0.41318  0.98484  0.33641  1.0000
  C   C1899     1.0  0.34871  0.84124  0.35506  1.0000
  H   H1503     1.0  0.46357  0.87663  0.49989  1.0000
  C   C1900     1.0  0.29567  0.94155  0.61044  1.0000
  H   H1504     1.0  0.31903  0.94346  0.52748  1.0000
  C   C1901     1.0  0.39709  0.92529  0.39658  1.0000
  H   H1505     1.0  0.24947  0.81939  0.35505  1.0000
  H   H1506     1.0  0.44552  0.94252  0.44162  1.0000
  C   C1902     1.0  0.44796  0.94250  0.55228  1.0000
  H   H1507     1.0  0.46635  0.92848  0.63384  1.0000
  C   C1903     1.0  0.34627  0.94579  0.61908  1.0000
  C   C1904     1.0  0.45257  0.93873  0.34101  1.0000
  C   C1905     1.0  0.24324  0.95152  0.60318  1.0000
  C   C1906     1.0  0.46627  0.96073  0.52108  1.0000
  C   C1907     1.0  0.27269  0.83183  0.33933  1.0000
  C   C1908     1.0  0.42700  0.97312  0.34504  1.0000
  S   S259      1.0  0.37924  0.88185  0.34541  1.0000
  H   H1508     1.0  0.44117  0.93544  0.56445  1.0000
  C   C1909     1.0  0.46601  0.83690  0.52740  1.0000
  H   H1509     1.0  0.28590  0.94462  0.53908  1.0000
  C   C1910     1.0  0.24528  0.96930  0.60837  1.0000
  C   C1911     1.0  0.29490  0.95382  0.62434  1.0000
  H   H1510     1.0  0.25529  0.94180  0.60137  1.0000
  H   H1511     1.0  0.44549  0.91050  0.34890  1.0000
  H   H1512     1.0  0.38761  0.96062  0.60085  1.0000
  C   C1912     1.0  0.36089  0.94967  0.60594  1.0000
  H   H1513     1.0  0.44421  0.85506  0.33819  1.0000
  H   H1514     1.0  0.41249  0.91444  0.33619  1.0000
  C   C1913     1.0  0.45643  0.91946  0.34415  1.0000
  H   H1515     1.0  0.33563  0.94727  0.64758  1.0000
  C   C1914     1.0  0.29410  0.94696  0.64302  1.0000
  H   H1516     1.0  0.36031  0.94635  0.59176  1.0000
  H   H1517     1.0  0.43292  0.98744  0.62468  1.0000
  C   C1915     1.0  0.32125  0.82416  0.35827  1.0000
  H   H1518     1.0  0.39163  0.97448  0.37455  1.0000
  H   H1519     1.0  0.45529  0.83120  0.63250  1.0000
  C   C1916     1.0  0.29413  0.92784  0.64781  1.0000
  C   C1917     1.0  0.46701  0.94993  0.33444  1.0000
  C   C1918     1.0  0.46812  0.96316  0.48129  1.0000
  C   C1919     1.0  0.47446  0.91151  0.34091  1.0000
  H   H1520     1.0  0.47231  0.92524  0.45619  1.0000
  S   S260      1.0  0.30461  0.86162  0.64926  1.0000
  H   H1521     1.0  0.26905  0.81736  0.44932  1.0000
  H   H1522     1.0  0.45374  0.95496  0.65137  1.0000
  P   P63       1.0  0.47798  0.97185  0.50058  1.0000
  H   H1523     1.0  0.47726  0.89660  0.34336  1.0000
  H   H1524     1.0  0.34337  0.82057  0.33705  1.0000
  H   H1525     1.0  0.25769  0.83128  0.41932  1.0000
  H   H1526     1.0  0.41196  0.86108  0.32846  1.0000
  C   C1920     1.0  0.45935  0.93224  0.53989  1.0000
  C   C1921     1.0  0.25432  0.88155  0.57923  1.0000
  C   C1922     1.0  0.47695  0.84715  0.53702  1.0000
  H   H1527     1.0  0.47082  0.85453  0.54862  1.0000
  H   H1528     1.0  0.48684  0.94421  0.42562  1.0000
  C   C1923     1.0  0.44428  0.96505  0.45928  1.0000
  H   H1529     1.0  0.31290  0.81425  0.35320  1.0000
  H   H1530     1.0  0.48696  0.93834  0.48107  1.0000
  C   C1924     1.0  0.48099  0.96476  0.40316  1.0000
  H   H1531     1.0  0.29386  0.95635  0.65386  1.0000
  C   C1925     1.0  0.38037  0.98515  0.37290  1.0000
  H   H1532     1.0  0.44608  0.98513  0.47891  1.0000
  H   H1533     1.0  0.27175  0.90715  0.33681  1.0000
  C   C1926     1.0  0.46214  0.92617  0.64844  1.0000
  C   C1927     1.0  0.36833  0.98479  0.35882  1.0000
  H   H1534     1.0  0.25173  0.87436  0.56733  1.0000
  H   H1535     1.0  0.43638  0.96976  0.55845  1.0000
  C   C1928     1.0  0.48718  0.95861  0.42057  1.0000
  H   H1536     1.0  0.42758  0.83910  0.65332  1.0000
  C   C1929     1.0  0.48514  0.94196  0.33163  1.0000
  C   C1930     1.0  0.24400  0.89204  0.60926  1.0000
  C   C1931     1.0  0.44064  0.84472  0.65515  1.0000
  H   H1537     1.0  0.46431  0.96476  0.33137  1.0000
  H   H1538     1.0  0.47581  0.98850  0.38355  1.0000
  C   C1932     1.0  0.25032  0.89247  0.32706  1.0000
  H   H1539     1.0  0.36264  0.96166  0.65672  1.0000
  H   H1540     1.0  0.39393  0.93448  0.65703  1.0000
  H   H1541     1.0  0.49171  0.86390  0.33845  1.0000
  H   H1542     1.0  0.35680  0.79506  0.91564  1.0000
  C   C1933     1.0  0.30108  0.57254  0.87670  1.0000
  S   S261      1.0  0.39331  0.52836  0.91782  1.0000
  Fe  Fe131     1.0  0.41599  0.87791  0.96758  1.0000
  S   S262      1.0  0.42383  0.86449  0.94059  1.0000
  C   C1934     1.0  0.34923  0.52378  0.94278  1.0000
  S   S263      1.0  0.43127  0.90302  0.97131  1.0000
  Fe  Fe132     1.0  0.29113  0.63543  0.88443  1.0000
  S   S264      1.0  0.31718  0.64150  0.86662  1.0000
  S   S265      1.0  0.26153  0.63593  0.87430  1.0000
  Fe  Fe133     1.0  0.31187  0.63387  0.92074  1.0000
  S   S266      1.0  0.33926  0.63944  0.90524  1.0000
  S   S267      1.0  0.30919  0.62472  0.95188  1.0000
  Fe  Fe134     1.0  0.32304  0.66127  0.88736  1.0000
  S   S268      1.0  0.32912  0.69202  0.88014  1.0000
  Fe  Fe135     1.0  0.33162  0.61932  0.88576  1.0000
  S   S269      1.0  0.35187  0.59744  0.87298  1.0000
  S   S270      1.0  0.29589  0.65675  0.90422  1.0000
  S   S271      1.0  0.30528  0.61216  0.90227  1.0000
  Fe  Fe136     1.0  0.40276  0.80835  0.82238  1.0000
  S   S272      1.0  0.42327  0.78323  0.82730  1.0000
  S   S273      1.0  0.40135  0.82228  0.79238  1.0000
  Fe  Fe137     1.0  0.39366  0.80976  0.86437  1.0000
  S   S274      1.0  0.41310  0.78504  0.87173  1.0000
  S   S275      1.0  0.37706  0.82398  0.88773  1.0000
  Fe  Fe138     1.0  0.43318  0.79808  0.85013  1.0000
  S   S276      1.0  0.46172  0.80081  0.86055  1.0000
  Fe  Fe139     1.0  0.40155  0.77197  0.84865  1.0000
  S   S277      1.0  0.39801  0.74047  0.85240  1.0000
  S   S278      1.0  0.41422  0.82376  0.84414  1.0000
  S   S279      1.0  0.38056  0.79609  0.84235  1.0000
  H   H1543     1.0  0.33530  0.53792  0.96533  1.0000
  S   S280      1.0  0.35449  0.89987  0.69893  1.0000
  C   C1935     1.0  0.40806  0.88584  0.71461  1.0000
  H   H1544     1.0  0.27177  0.52980  0.91836  1.0000
  S   S281      1.0  0.31267  0.88676  0.69655  1.0000
  C   C1936     1.0  0.29309  0.70861  0.95083  1.0000
  Fe  Fe140     1.0  0.32847  0.91175  0.68610  1.0000
  S   S282      1.0  0.31539  0.94167  0.68569  1.0000
  Fe  Fe141     1.0  0.33990  0.87384  0.70743  1.0000
  S   S283      1.0  0.34002  0.85916  0.73730  1.0000
  H   H1545     1.0  0.47985  0.84723  0.70142  1.0000
  S   S284      1.0  0.34869  0.86072  0.68067  1.0000
  C   C1937     1.0  0.25669  0.60763  0.85144  1.0000
  C   C1938     1.0  0.32736  0.96191  0.68702  1.0000
  C   C1939     1.0  0.31813  0.97956  0.68307  1.0000
  C   C1940     1.0  0.35444  0.97726  0.69351  1.0000
  C   C1941     1.0  0.34563  0.96085  0.69215  1.0000
  C   C1942     1.0  0.34098  0.57559  0.98097  1.0000
  H   H1546     1.0  0.35291  0.94741  0.69527  1.0000
  C   C1943     1.0  0.38395  0.83254  0.77743  1.0000
  C   C1944     1.0  0.36519  0.83516  0.78347  1.0000
  C   C1945     1.0  0.35203  0.84323  0.77103  1.0000
  C   C1946     1.0  0.35736  0.84897  0.75237  1.0000
  C   C1947     1.0  0.37612  0.84625  0.74633  1.0000
  C   C1948     1.0  0.38926  0.83814  0.75876  1.0000
  H   H1547     1.0  0.36085  0.83097  0.79772  1.0000
  H   H1548     1.0  0.33758  0.84512  0.77591  1.0000
  H   H1549     1.0  0.38048  0.85029  0.73203  1.0000
  H   H1550     1.0  0.40366  0.83608  0.75379  1.0000
  C   C1949     1.0  0.48388  0.80012  0.84838  1.0000
  C   C1950     1.0  0.41119  0.57564  0.96551  1.0000
  C   C1951     1.0  0.34861  0.70510  0.87249  1.0000
  C   C1952     1.0  0.34643  0.72469  0.87183  1.0000
  C   C1953     1.0  0.36134  0.73568  0.86585  1.0000
  C   C1954     1.0  0.37870  0.72728  0.86032  1.0000
  C   C1955     1.0  0.38089  0.70773  0.86094  1.0000
  C   C1956     1.0  0.36599  0.69671  0.86696  1.0000
  H   H1551     1.0  0.33307  0.73143  0.87590  1.0000
  H   H1552     1.0  0.35944  0.75065  0.86552  1.0000
  H   H1553     1.0  0.39421  0.70102  0.85666  1.0000
  H   H1554     1.0  0.36794  0.68173  0.86722  1.0000
  C   C1957     1.0  0.29570  0.55854  0.91378  1.0000
  H   H1555     1.0  0.27197  0.58071  0.87834  1.0000
  C   C1958     1.0  0.48094  0.81843  0.91792  1.0000
  H   H1556     1.0  0.27152  0.60445  0.85125  1.0000
  C   C1959     1.0  0.28801  0.70696  0.93289  1.0000
  C   C1960     1.0  0.30928  0.63678  0.97215  1.0000
  C   C1961     1.0  0.30985  0.65611  0.97146  1.0000
  C   C1962     1.0  0.31105  0.71294  0.95361  1.0000
  H   H1557     1.0  0.31010  0.66428  0.95818  1.0000
  H   H1558     1.0  0.36436  0.86805  0.82358  1.0000
  C   C1963     1.0  0.41023  0.85239  0.92715  1.0000
  C   C1964     1.0  0.41918  0.84348  0.91219  1.0000
  C   C1965     1.0  0.40921  0.83439  0.90040  1.0000
  C   C1966     1.0  0.38996  0.83424  0.90331  1.0000
  C   C1967     1.0  0.38090  0.84285  0.91850  1.0000
  C   C1968     1.0  0.39102  0.85177  0.93050  1.0000
  H   H1559     1.0  0.43401  0.84350  0.90976  1.0000
  H   H1560     1.0  0.41643  0.82775  0.88885  1.0000
  H   H1561     1.0  0.36600  0.84277  0.92089  1.0000
  H   H1562     1.0  0.38394  0.85850  0.94205  1.0000
  H   H1563     1.0  0.40443  0.94399  0.71255  1.0000
  H   H1564     1.0  0.40728  0.50856  0.97913  1.0000
  Fe  Fe142     1.0  0.40631  0.50086  0.90806  1.0000
  H   H1565     1.0  0.26503  0.63631  0.94905  1.0000
  C   C1969     1.0  0.38334  0.99057  0.90025  1.0000
  C   C1970     1.0  0.38266  0.70904  0.92499  1.0000
  C   C1971     1.0  0.32422  0.71517  0.93844  1.0000
  C   C1972     1.0  0.36388  0.57876  0.88575  1.0000
  C   C1973     1.0  0.37516  0.56558  0.87611  1.0000
  C   C1974     1.0  0.38417  0.54997  0.88569  1.0000
  C   C1975     1.0  0.38214  0.54757  0.90505  1.0000
  C   C1976     1.0  0.37127  0.56103  0.91474  1.0000
  C   C1977     1.0  0.36208  0.57649  0.90514  1.0000
  H   H1566     1.0  0.37681  0.56737  0.86111  1.0000
  H   H1567     1.0  0.39271  0.53986  0.87810  1.0000
  H   H1568     1.0  0.36993  0.55952  0.92974  1.0000
  H   H1569     1.0  0.35375  0.58677  0.91266  1.0000
  C   C1978     1.0  0.35872  0.68852  0.92138  1.0000
  C   C1979     1.0  0.39786  0.94378  0.66666  1.0000
  C   C1980     1.0  0.31423  0.51354  0.93612  1.0000
  H   H1570     1.0  0.26084  0.97896  0.67002  1.0000
  C   C1981     1.0  0.36644  0.50950  0.85477  1.0000
  C   C1982     1.0  0.46345  0.74910  0.85490  1.0000
  C   C1983     1.0  0.45685  0.73178  0.85343  1.0000
  H   H1571     1.0  0.29377  0.92248  0.66231  1.0000
  C   C1984     1.0  0.45094  0.92001  0.68606  1.0000
  H   H1572     1.0  0.45723  0.86542  0.72666  1.0000
  C   C1985     1.0  0.36039  0.76659  0.90893  1.0000
  C   C1986     1.0  0.27679  0.59879  0.71874  1.0000
  H   H1573     1.0  0.46349  0.70221  0.85486  1.0000
  H   H1574     1.0  0.45435  0.76167  0.85285  1.0000
  H   H1575     1.0  0.44257  0.73094  0.85025  1.0000
  H   H1576     1.0  0.25933  0.62095  0.76012  1.0000
  C   C1987     1.0  0.48802  0.58478  0.92139  1.0000
  C   C1988     1.0  0.29015  0.58522  0.72524  1.0000
  C   C1989     1.0  0.31350  0.55762  0.90484  1.0000
  H   H1577     1.0  0.26036  0.64467  0.78211  1.0000
  C   C1990     1.0  0.31620  0.52446  0.95068  1.0000
  C   C1991     1.0  0.34646  0.51826  0.88137  1.0000
  H   H1578     1.0  0.48658  0.51354  0.85905  1.0000
  C   C1992     1.0  0.40524  0.96426  0.98120  1.0000
  H   H1579     1.0  0.37329  0.94512  0.90550  1.0000
  C   C1993     1.0  0.28611  0.57375  0.74139  1.0000
  H   H1580     1.0  0.48169  0.57973  0.90999  1.0000
  H   H1581     1.0  0.36284  0.52758  0.94542  1.0000
  C   C1994     1.0  0.40663  0.97385  0.67338  1.0000
  H   H1582     1.0  0.27422  0.70326  0.93074  1.0000
  C   C1995     1.0  0.39913  0.93721  0.68528  1.0000
  H   H1583     1.0  0.39952  0.87651  0.74279  1.0000
  C   C1996     1.0  0.26264  0.62356  0.94318  1.0000
  H   H1584     1.0  0.44128  0.96128  0.83825  1.0000
  C   C1997     1.0  0.44155  0.85720  0.66857  1.0000
  C   C1998     1.0  0.36413  0.70460  0.92821  1.0000
  H   H1585     1.0  0.46920  0.84030  0.76657  1.0000
  H   H1586     1.0  0.30556  0.70880  0.84995  1.0000
  C   C1999     1.0  0.45321  0.85052  0.85909  1.0000
  C   C2000     1.0  0.46435  0.84908  0.87407  1.0000
  C   C2001     1.0  0.46054  0.86110  0.88810  1.0000
  C   C2002     1.0  0.44529  0.87428  0.88739  1.0000
  C   C2003     1.0  0.43374  0.87555  0.87256  1.0000
  C   C2004     1.0  0.43811  0.86380  0.85820  1.0000
  P   P64       1.0  0.41454  0.89316  0.87090  1.0000
  C   C2005     1.0  0.39790  0.88571  0.85631  1.0000
  C   C2006     1.0  0.40370  0.89716  0.89369  1.0000
  C   C2007     1.0  0.38621  0.89088  0.89954  1.0000
  C   C2008     1.0  0.37767  0.89490  0.91682  1.0000
  C   C2009     1.0  0.38657  0.90500  0.92850  1.0000
  C   C2010     1.0  0.40399  0.91123  0.92288  1.0000
  C   C2011     1.0  0.41245  0.90749  0.90549  1.0000
  C   C2012     1.0  0.39132  0.89746  0.84131  1.0000
  C   C2013     1.0  0.37920  0.89112  0.82961  1.0000
  C   C2014     1.0  0.37350  0.87307  0.83282  1.0000
  C   C2015     1.0  0.37979  0.86140  0.84784  1.0000
  C   C2016     1.0  0.39201  0.86765  0.85945  1.0000
  C   C2017     1.0  0.42322  0.91470  0.86069  1.0000
  C   C2018     1.0  0.41324  0.93171  0.86391  1.0000
  C   C2019     1.0  0.41980  0.94845  0.85590  1.0000
  C   C2020     1.0  0.46649  0.80944  0.91186  1.0000
  H   H1587     1.0  0.40968  0.98803  0.66903  1.0000
  C   C2021     1.0  0.43968  0.91467  0.84916  1.0000
  H   H1588     1.0  0.45612  0.84109  0.84828  1.0000
  H   H1589     1.0  0.47576  0.83845  0.87486  1.0000
  H   H1590     1.0  0.46900  0.85980  0.89988  1.0000
  H   H1591     1.0  0.44231  0.88294  0.89876  1.0000
  H   H1592     1.0  0.42981  0.86469  0.84633  1.0000
  H   H1593     1.0  0.37912  0.88272  0.89100  1.0000
  H   H1594     1.0  0.36435  0.88970  0.92139  1.0000
  C   C2022     1.0  0.25311  0.54957  0.93264  1.0000
  H   H1595     1.0  0.48895  0.90570  0.69439  1.0000
  H   H1596     1.0  0.42588  0.91259  0.90132  1.0000
  H   H1597     1.0  0.39566  0.91141  0.83840  1.0000
  H   H1598     1.0  0.37544  0.84737  0.85037  1.0000
  H   H1599     1.0  0.39704  0.85829  0.87077  1.0000
  H   H1600     1.0  0.40035  0.93202  0.87252  1.0000
  H   H1601     1.0  0.41205  0.96152  0.85845  1.0000
  C   C2023     1.0  0.34643  0.77623  0.93823  1.0000
  H   H1602     1.0  0.44748  0.90173  0.84625  1.0000
  Fe  Fe143     1.0  0.32220  0.87516  0.66930  1.0000
  H   H1603     1.0  0.32851  0.71657  0.90860  1.0000
  C   C2024     1.0  0.43626  0.94831  0.84453  1.0000
  H   H1604     1.0  0.26595  0.56689  0.76362  1.0000
  H   H1605     1.0  0.37139  0.97296  0.88272  1.0000
  H   H1606     1.0  0.49093  0.74872  0.89787  1.0000
  H   H1607     1.0  0.30368  0.58366  0.71784  1.0000
  H   H1608     1.0  0.48970  0.80442  0.96749  1.0000
  H   H1609     1.0  0.26465  0.50304  0.94064  1.0000
  C   C2025     1.0  0.44952  0.93802  0.67720  1.0000
  H   H1610     1.0  0.35954  0.50854  0.91964  1.0000
  H   H1611     1.0  0.34182  0.78723  0.94706  1.0000
  C   C2026     1.0  0.48841  0.85858  0.70259  1.0000
  P   P65       1.0  0.34795  0.71928  0.94163  1.0000
  C   C2027     1.0  0.25510  0.58918  0.74441  1.0000
  H   H1612     1.0  0.38598  0.94723  0.93605  1.0000
  H   H1613     1.0  0.48591  0.86571  0.74901  1.0000
  H   H1614     1.0  0.37548  0.51330  0.84265  1.0000
  H   H1615     1.0  0.30334  0.57868  0.86257  1.0000
  H   H1616     1.0  0.39732  0.97642  0.94350  1.0000
  C   C2028     1.0  0.34311  0.57971  0.96161  1.0000
  C   C2029     1.0  0.32801  0.57971  0.95079  1.0000
  C   C2030     1.0  0.31067  0.57576  0.95913  1.0000
  C   C2031     1.0  0.24572  0.59736  0.84140  1.0000
  P   P66       1.0  0.25782  0.56921  0.91630  1.0000
  C   C2032     1.0  0.35475  0.78068  0.92049  1.0000
  H   H1617     1.0  0.36702  0.66575  0.90472  1.0000
  H   H1618     1.0  0.26908  0.60624  0.96787  1.0000
  H   H1619     1.0  0.34467  0.68443  0.92396  1.0000
  C   C2033     1.0  0.31615  0.56450  0.88625  1.0000
  C   C2034     1.0  0.44230  0.54023  0.89696  1.0000
  C   C2035     1.0  0.45496  0.94107  0.65834  1.0000
  H   H1620     1.0  0.25230  0.58620  0.83374  1.0000
  C   C2036     1.0  0.34762  0.69688  0.97497  1.0000
  H   H1621     1.0  0.48662  0.76380  0.86024  1.0000
  C   C2037     1.0  0.47467  0.87073  0.93718  1.0000
  C   C2038     1.0  0.28038  0.56613  0.90413  1.0000
  H   H1622     1.0  0.35627  0.58350  0.95487  1.0000
  H   H1623     1.0  0.32949  0.58369  0.93601  1.0000
  H   H1624     1.0  0.29897  0.57668  0.95070  1.0000
  Fe  Fe144     1.0  0.36199  0.88752  0.67163  1.0000
  S   S285      1.0  0.33665  0.90092  0.65839  1.0000
  C   C2039     1.0  0.45093  0.55944  0.91996  1.0000
  C   C2040     1.0  0.48654  0.79578  0.82993  1.0000
  H   H1625     1.0  0.31453  0.71435  0.96760  1.0000
  H   H1626     1.0  0.45888  0.93131  0.83223  1.0000
  H   H1627     1.0  0.39922  0.67448  0.89803  1.0000
  H   H1628     1.0  0.36222  0.73740  0.90581  1.0000
  C   C2041     1.0  0.45988  0.53038  0.96850  1.0000
  P   P67       1.0  0.48069  0.55120  0.94192  1.0000
  C   C2042     1.0  0.35802  0.74803  0.91518  1.0000
  H   H1629     1.0  0.27999  0.60779  0.70631  1.0000
  C   C2043     1.0  0.46658  0.54716  0.92344  1.0000
  C   C2044     1.0  0.48201  0.87697  0.69714  1.0000
  H   H1630     1.0  0.39525  0.59431  0.98302  1.0000
  C   C2045     1.0  0.39174  0.97587  0.93013  1.0000
  H   H1631     1.0  0.46324  0.57701  0.96896  1.0000
  H   H1632     1.0  0.43274  0.53732  0.88702  1.0000
  S   S286      1.0  0.39288  0.94445  0.97902  1.0000
  H   H1633     1.0  0.40934  0.70216  0.91105  1.0000
  C   C2046     1.0  0.30989  0.66488  0.98806  1.0000
  C   C2047     1.0  0.26269  0.58996  0.94600  1.0000
  C   C2048     1.0  0.45938  0.56308  0.97326  1.0000
  H   H1634     1.0  0.39829  0.53394  0.95525  1.0000
  H   H1635     1.0  0.42643  0.56509  0.90459  1.0000
  C   C2049     1.0  0.43879  0.55591  0.90687  1.0000
  C   C2050     1.0  0.39527  0.69825  0.91411  1.0000
  H   H1636     1.0  0.43244  0.95027  0.97760  1.0000
  C   C2051     1.0  0.38961  0.68264  0.90682  1.0000
  C   C2052     1.0  0.38191  0.55269  0.97251  1.0000
  C   C2053     1.0  0.41105  0.87748  0.73238  1.0000
  H   H1637     1.0  0.48698  0.86625  0.66001  1.0000
  C   C2054     1.0  0.25601  0.60754  0.91692  1.0000
  H   H1638     1.0  0.42905  0.86085  0.67697  1.0000
  H   H1639     1.0  0.32536  0.55213  0.91241  1.0000
  C   C2055     1.0  0.46983  0.53125  0.91362  1.0000
  C   C2056     1.0  0.33622  0.79967  0.86654  1.0000
  C   C2057     1.0  0.33733  0.81855  0.86090  1.0000
  C   C2058     1.0  0.33631  0.82488  0.84218  1.0000
  C   C2059     1.0  0.33417  0.81235  0.82910  1.0000
  C   C2060     1.0  0.33277  0.79340  0.83468  1.0000
  C   C2061     1.0  0.33410  0.78710  0.85348  1.0000
  P   P68       1.0  0.33188  0.77721  0.81735  1.0000
  C   C2062     1.0  0.32354  0.75543  0.82744  1.0000
  C   C2063     1.0  0.31567  0.78614  0.80043  1.0000
  C   C2064     1.0  0.30113  0.79939  0.80486  1.0000
  C   C2065     1.0  0.28908  0.80673  0.79139  1.0000
  C   C2066     1.0  0.29130  0.80068  0.77355  1.0000
  C   C2067     1.0  0.30535  0.78705  0.76925  1.0000
  C   C2068     1.0  0.31739  0.77966  0.78268  1.0000
  C   C2069     1.0  0.33169  0.73836  0.82188  1.0000
  C   C2070     1.0  0.32523  0.72164  0.83004  1.0000
  C   C2071     1.0  0.31029  0.72182  0.84341  1.0000
  C   C2072     1.0  0.30170  0.73873  0.84855  1.0000
  C   C2073     1.0  0.30819  0.75549  0.84050  1.0000
  C   C2074     1.0  0.35514  0.77471  0.80658  1.0000
  C   C2075     1.0  0.36867  0.76230  0.81481  1.0000
  C   C2076     1.0  0.38680  0.76078  0.80670  1.0000
  C   C2077     1.0  0.39168  0.77196  0.79062  1.0000
  C   C2078     1.0  0.37842  0.78462  0.78258  1.0000
  C   C2079     1.0  0.36028  0.78618  0.79062  1.0000
  H   H1640     1.0  0.33757  0.79474  0.88098  1.0000
  H   H1641     1.0  0.33950  0.82817  0.87099  1.0000
  H   H1642     1.0  0.33761  0.83944  0.83774  1.0000
  H   H1643     1.0  0.33394  0.81738  0.81456  1.0000
  H   H1644     1.0  0.33398  0.77247  0.85805  1.0000
  H   H1645     1.0  0.29914  0.80420  0.81861  1.0000
  H   H1646     1.0  0.27813  0.81724  0.79473  1.0000
  C   C2080     1.0  0.26731  0.50407  0.88865  1.0000
  H   H1647     1.0  0.30706  0.78236  0.75541  1.0000
  H   H1648     1.0  0.32826  0.76913  0.77912  1.0000
  H   H1649     1.0  0.34306  0.73783  0.81133  1.0000
  H   H1650     1.0  0.33197  0.70847  0.82625  1.0000
  H   H1651     1.0  0.42025  0.89349  0.68736  1.0000
  H   H1652     1.0  0.29013  0.73879  0.85893  1.0000
  H   H1653     1.0  0.30136  0.76849  0.84461  1.0000
  H   H1654     1.0  0.36536  0.75399  0.82765  1.0000
  H   H1655     1.0  0.39718  0.75120  0.81314  1.0000
  H   H1656     1.0  0.40585  0.77118  0.78465  1.0000
  H   H1657     1.0  0.38237  0.79370  0.77043  1.0000
  H   H1658     1.0  0.35048  0.79664  0.78452  1.0000
  C   C2081     1.0  0.44618  0.93143  0.84114  1.0000
  C   C2082     1.0  0.44987  0.80816  0.92280  1.0000
  C   C2083     1.0  0.44760  0.81604  0.93978  1.0000
  C   C2084     1.0  0.46203  0.82498  0.94593  1.0000
  C   C2085     1.0  0.38544  0.95919  0.92586  1.0000
  H   H1659     1.0  0.34016  0.52908  0.88963  1.0000
  H   H1660     1.0  0.46042  0.51584  0.89258  1.0000
  C   C2086     1.0  0.34412  0.75765  0.94457  1.0000
  H   H1661     1.0  0.28216  0.80659  0.76303  1.0000
  C   C2087     1.0  0.48176  0.75028  0.85911  1.0000
  C   C2088     1.0  0.48006  0.90671  0.98519  1.0000
  H   H1662     1.0  0.36845  0.97627  0.69776  1.0000
  C   C2089     1.0  0.26869  0.57577  0.75102  1.0000
  C   C2090     1.0  0.25936  0.60085  0.72833  1.0000
  H   H1663     1.0  0.42713  0.98129  0.92300  1.0000
  C   C2091     1.0  0.39573  0.58110  0.97709  1.0000
  C   C2092     1.0  0.44806  0.52756  0.98445  1.0000
  H   H1664     1.0  0.37434  0.90011  0.81790  1.0000
  C   C2093     1.0  0.28095  0.51550  0.88080  1.0000
  C   C2094     1.0  0.39534  0.98155  0.98345  1.0000
  H   H1665     1.0  0.43850  0.80168  0.91779  1.0000
  H   H1666     1.0  0.43439  0.81584  0.94785  1.0000
  H   H1667     1.0  0.45979  0.83145  0.95889  1.0000
  C   C2095     1.0  0.40390  0.94899  0.69804  1.0000
  H   H1668     1.0  0.32997  0.56423  0.87939  1.0000
  C   C2096     1.0  0.25781  0.51666  0.94262  1.0000
  H   H1669     1.0  0.47477  0.79312  0.82257  1.0000
  C   C2097     1.0  0.42462  0.96338  0.97967  1.0000
  H   H1670     1.0  0.34916  0.64499  0.98496  1.0000
  H   H1671     1.0  0.41136  0.97647  0.70195  1.0000
  H   H1672     1.0  0.45700  0.89589  0.93322  1.0000
  H   H1673     1.0  0.46305  0.86220  0.93877  1.0000
  H   H1674     1.0  0.48128  0.52109  0.91638  1.0000
  C   C2098     1.0  0.42880  0.87012  0.73661  1.0000
  C   C2099     1.0  0.43392  0.97958  0.98054  1.0000
  C   C2100     1.0  0.46576  0.54811  0.96287  1.0000
  H   H1675     1.0  0.25311  0.60812  0.90246  1.0000
  H   H1676     1.0  0.25273  0.55041  0.88317  1.0000
  C   C2101     1.0  0.32978  0.50781  0.92467  1.0000
  H   H1677     1.0  0.44889  0.97879  0.97900  1.0000
  H   H1678     1.0  0.26507  0.57691  0.95428  1.0000
  H   H1679     1.0  0.34032  0.68741  0.96798  1.0000
  C   C2102     1.0  0.36356  0.72500  0.97464  1.0000
  C   C2103     1.0  0.26490  0.60653  0.95381  1.0000
  C   C2104     1.0  0.48927  0.57401  0.93845  1.0000
  H   H1680     1.0  0.26673  0.87233  0.66542  1.0000
  H   H1681     1.0  0.46440  0.51875  0.96048  1.0000
  C   C2105     1.0  0.37824  0.95808  0.90872  1.0000
  C   C2106     1.0  0.35763  0.52321  0.86538  1.0000
  H   H1682     1.0  0.29395  0.55373  0.92833  1.0000
  C   C2107     1.0  0.39753  0.54712  0.96132  1.0000
  C   C2108     1.0  0.33370  0.52957  0.95401  1.0000
  C   C2109     1.0  0.40781  0.96726  0.69206  1.0000
  H   H1683     1.0  0.48311  0.91639  0.93010  1.0000
  H   H1684     1.0  0.44655  0.91791  0.70066  1.0000
  H   H1685     1.0  0.33750  0.75442  0.95826  1.0000
  C   C2110     1.0  0.41214  0.55857  0.95779  1.0000
  C   C2111     1.0  0.44077  0.87980  0.70525  1.0000
  C   C2112     1.0  0.31872  0.71436  0.92047  1.0000
  H   H1686     1.0  0.29653  0.56334  0.74653  1.0000
  C   C2113     1.0  0.45824  0.86510  0.67056  1.0000
  C   C2114     1.0  0.44756  0.56018  0.98930  1.0000
  H   H1687     1.0  0.38724  0.72116  0.93046  1.0000
  H   H1688     1.0  0.42413  0.55409  0.94907  1.0000
  H   H1689     1.0  0.36888  0.73741  0.96741  1.0000
  H   H1690     1.0  0.44788  0.57155  0.92768  1.0000
  C   C2115     1.0  0.29917  0.51220  0.88599  1.0000
  H   H1691     1.0  0.36671  0.77004  0.89510  1.0000
  C   C2116     1.0  0.28330  0.57357  0.88566  1.0000
  H   H1692     1.0  0.30419  0.52888  0.95947  1.0000
  C   C2117     1.0  0.37142  0.67770  0.91060  1.0000
  C   C2118     1.0  0.37720  0.97376  0.89592  1.0000
  H   H1693     1.0  0.38009  0.90777  0.94204  1.0000
  H   H1694     1.0  0.48644  0.81591  0.78617  1.0000
  C   C2119     1.0  0.25825  0.59038  0.92745  1.0000
  C   C2120     1.0  0.35041  0.74335  0.93329  1.0000
  C   C2121     1.0  0.24470  0.51892  0.95757  1.0000
  H   H1695     1.0  0.42245  0.58460  0.96258  1.0000
  C   C2122     1.0  0.44365  0.87127  0.72311  1.0000
  H   H1696     1.0  0.41102  0.91872  0.93215  1.0000
  C   C2123     1.0  0.30078  0.71005  0.91770  1.0000
  H   H1697     1.0  0.39420  0.89112  0.71118  1.0000
  H   H1698     1.0  0.29696  0.70869  0.90375  1.0000
  H   H1699     1.0  0.35959  0.53768  0.86125  1.0000
  C   C2124     1.0  0.47118  0.88996  0.93395  1.0000
  C   C2125     1.0  0.38101  0.56959  0.98071  1.0000
  H   H1700     1.0  0.28316  0.70631  0.96262  1.0000
  H   H1701     1.0  0.37060  0.54372  0.97494  1.0000
  H   H1702     1.0  0.43093  0.86335  0.75033  1.0000
  H   H1703     1.0  0.39602  0.92305  0.68978  1.0000
  H   H1704     1.0  0.44411  0.94961  0.68490  1.0000
  C   C2126     1.0  0.48403  0.84072  0.76740  1.0000
  S   S287      1.0  0.39129  0.89441  0.66095  1.0000
  C   C2127     1.0  0.42285  0.88708  0.70113  1.0000
  S   S288      1.0  0.38873  0.89015  0.97978  1.0000
  P   P69       1.0  0.45965  0.88162  0.68753  1.0000
  H   H1705     1.0  0.46802  0.80371  0.89850  1.0000
  C   C2128     1.0  0.46864  0.71562  0.85609  1.0000
  C   C2129     1.0  0.45796  0.90491  0.67609  1.0000
  H   H1706     1.0  0.31008  0.67982  0.98744  1.0000
  C   C2130     1.0  0.26191  0.53189  0.93010  1.0000
  C   C2131     1.0  0.45790  0.52806  0.90019  1.0000
  C   C2132     1.0  0.48586  0.90146  0.93218  1.0000
  C   C2133     1.0  0.35326  0.71352  0.96552  1.0000
  C   C2134     1.0  0.47894  0.82604  0.93517  1.0000
  C   C2135     1.0  0.34730  0.51299  0.92813  1.0000
  C   C2136     1.0  0.45109  0.99060  0.93343  1.0000
  H   H1707     1.0  0.30397  0.98057  0.67921  1.0000
  H   H1708     1.0  0.25669  0.63723  0.91637  1.0000
  C   C2137     1.0  0.25807  0.62407  0.92479  1.0000
  H   H1709     1.0  0.25322  0.50653  0.88446  1.0000
  H   H1710     1.0  0.30941  0.52133  0.87975  1.0000
  H   H1711     1.0  0.27749  0.52686  0.87053  1.0000
  H   H1712     1.0  0.45900  0.97733  0.93251  1.0000
  C   C2138     1.0  0.24848  0.62219  0.86143  1.0000
  H   H1713     1.0  0.30063  0.50952  0.93391  1.0000
  H   H1714     1.0  0.34934  0.61318  0.97583  1.0000
  H   H1715     1.0  0.46636  0.91158  0.98124  1.0000
  Fe  Fe145     1.0  0.40466  0.91444  0.98534  1.0000
  H   H1716     1.0  0.24924  0.61162  0.72329  1.0000
  C   C2139     1.0  0.41280  0.49440  0.98232  1.0000
  C   C2140     1.0  0.48700  0.71677  0.86036  1.0000
  P   P70       1.0  0.32744  0.49336  0.90612  1.0000
  C   C2141     1.0  0.34331  0.49954  0.88643  1.0000
  C   C2142     1.0  0.39071  0.99173  0.91741  1.0000
  H   H1717     1.0  0.38035  0.98238  0.98460  1.0000
  C   C2143     1.0  0.30400  0.49723  0.89892  1.0000
  C   C2144     1.0  0.30839  0.57153  0.97832  1.0000
  C   C2145     1.0  0.40105  0.96230  0.66067  1.0000
  C   C2146     1.0  0.25543  0.99145  0.66213  1.0000
  C   C2147     1.0  0.30875  0.62643  0.98957  1.0000
  H   H1718     1.0  0.30833  0.61151  0.99028  1.0000
  H   H1719     1.0  0.29480  0.56894  0.98484  1.0000
  C   C2148     1.0  0.35476  0.61528  0.98891  1.0000
  H   H1720     1.0  0.49126  0.77347  0.91896  1.0000
  C   C2149     1.0  0.32349  0.57142  0.98923  1.0000
  C   C2150     1.0  0.47399  0.86019  0.65896  1.0000
  C   C2151     1.0  0.24807  0.62255  0.77065  1.0000
  H   H1721     1.0  0.44370  0.51381  0.98881  1.0000
  C   C2152     1.0  0.24872  0.63609  0.78310  1.0000
  Fe  Fe146     1.0  0.59704  0.45633  0.08889  1.0000
  H   H1722     1.0  0.63964  0.12704  0.27180  1.0000
  S   S289      1.0  0.59958  0.43088  0.10933  1.0000
  H   H1723     1.0  0.67659  0.15118  0.30943  1.0000
  H   H1724     1.0  0.64776  0.28217  0.07361  1.0000
  S   S290      1.0  0.58151  0.45712  0.06318  1.0000
  C   C2153     1.0  0.70554  0.40542  0.00319  1.0000
  C   C2154     1.0  0.60560  0.13744  0.30492  1.0000
  Fe  Fe147     1.0  0.60115  0.07280  0.02204  1.0000
  C   C2155     1.0  0.70657  0.26718  0.20138  1.0000
  S   S291      1.0  0.61588  0.07468  0.04845  1.0000
  C   C2156     1.0  0.62589  0.03463  0.20819  1.0000
  C   C2157     1.0  0.63340  0.06215  0.22170  1.0000
  S   S292      1.0  0.58320  0.04872  0.02298  1.0000
  H   H1725     1.0  0.51367  0.40191  0.05890  1.0000
  Fe  Fe148     1.0  0.61401  0.15378  0.12341  1.0000
  S   S293      1.0  0.59896  0.18211  0.12058  1.0000
  S   S294      1.0  0.62220  0.14404  0.09459  1.0000
  Fe  Fe149     1.0  0.61134  0.15295  0.16586  1.0000
  S   S295      1.0  0.59580  0.18140  0.16516  1.0000
  S   S296      1.0  0.61306  0.13757  0.19512  1.0000
  Fe  Fe150     1.0  0.57905  0.17152  0.14367  1.0000
  S   S297      1.0  0.54873  0.17979  0.13757  1.0000
  Fe  Fe151     1.0  0.61683  0.19006  0.14193  1.0000
  S   S298      1.0  0.62594  0.22000  0.14072  1.0000
  S   S299      1.0  0.59321  0.14267  0.14537  1.0000
  S   S300      1.0  0.63340  0.16215  0.14382  1.0000
  C   C2158     1.0  0.56080  0.03850  0.19094  1.0000
  S   S301      1.0  0.64142  0.06024  0.29024  1.0000
  C   C2159     1.0  0.49620  0.15804  0.23501  1.0000
  S   S302      1.0  0.68607  0.06064  0.29623  1.0000
  C   C2160     1.0  0.71793  0.28591  0.22343  1.0000
  Fe  Fe152     1.0  0.66413  0.07900  0.28069  1.0000
  S   S303      1.0  0.66879  0.09106  0.25028  1.0000
  Fe  Fe153     1.0  0.66235  0.04341  0.30753  1.0000
  H   H1726     1.0  0.61336  0.99498  0.30241  1.0000
  S   S304      1.0  0.65791  0.09776  0.30379  1.0000
  Fe  Fe154     1.0  0.69006  0.30144  0.08889  1.0000
  S   S305      1.0  0.71569  0.31105  0.07191  1.0000
  S   S306      1.0  0.68565  0.27012  0.09409  1.0000
  Fe  Fe155     1.0  0.67502  0.34132  0.09343  1.0000
  S   S307      1.0  0.69897  0.35383  0.07698  1.0000
  S   S308      1.0  0.65019  0.35516  0.10907  1.0000
  Fe  Fe156     1.0  0.69613  0.33212  0.05712  1.0000
  S   S309      1.0  0.69836  0.34293  0.02639  1.0000
  Fe  Fe157     1.0  0.71729  0.33218  0.09285  1.0000
  H   H1727     1.0  0.73866  0.44207  0.16567  1.0000
  S   S310      1.0  0.67055  0.32130  0.07260  1.0000
  S   S311      1.0  0.69330  0.32088  0.11071  1.0000
  C   C2161     1.0  0.69223  0.31179  0.00854  1.0000
  C   C2162     1.0  0.69696  0.33022  0.00677  1.0000
  S   S312      1.0  0.62148  0.46983  0.07491  1.0000
  H   H1728     1.0  0.68999  0.30468  0.02221  1.0000
  C   C2163     1.0  0.62302  0.05390  0.20961  1.0000
  Fe  Fe158     1.0  0.56173  0.07023  0.01247  1.0000
  H   H1729     1.0  0.51960  0.15220  0.06331  1.0000
  H   H1730     1.0  0.52516  0.03590  0.01413  1.0000
  H   H1731     1.0  0.63137  0.07693  0.22309  1.0000
  C   C2164     1.0  0.64527  0.32558  0.15446  1.0000
  H   H1732     1.0  0.67075  0.23340  0.29071  1.0000
  H   H1733     1.0  0.63325  0.25258  0.07951  1.0000
  C   C2165     1.0  0.64242  0.23366  0.12712  1.0000
  C   C2166     1.0  0.64010  0.25321  0.12677  1.0000
  C   C2167     1.0  0.65298  0.26460  0.11665  1.0000
  C   C2168     1.0  0.66860  0.25660  0.10692  1.0000
  C   C2169     1.0  0.67090  0.23708  0.10727  1.0000
  C   C2170     1.0  0.65789  0.22568  0.11717  1.0000
  H   H1734     1.0  0.62823  0.25961  0.13439  1.0000
  H   H1735     1.0  0.65078  0.27956  0.11637  1.0000
  H   H1736     1.0  0.68293  0.23071  0.09987  1.0000
  H   H1737     1.0  0.66001  0.21073  0.11736  1.0000
  C   C2171     1.0  0.65322  0.10444  0.23533  1.0000
  C   C2172     1.0  0.65981  0.11101  0.21731  1.0000
  C   C2173     1.0  0.64788  0.12122  0.20485  1.0000
  C   C2174     1.0  0.62908  0.12499  0.21021  1.0000
  C   C2175     1.0  0.62258  0.11862  0.22832  1.0000
  C   C2176     1.0  0.63446  0.10834  0.24073  1.0000
  H   H1738     1.0  0.67428  0.10813  0.21293  1.0000
  H   H1739     1.0  0.65322  0.12617  0.19111  1.0000
  H   H1740     1.0  0.60822  0.12169  0.23284  1.0000
  H   H1741     1.0  0.62903  0.10322  0.25439  1.0000
  H   H1742     1.0  0.64052  0.22671  0.28002  1.0000
  C   C2177     1.0  0.52675  0.17228  0.14645  1.0000
  C   C2178     1.0  0.52456  0.15994  0.16236  1.0000
  H   H1743     1.0  0.70333  0.31317  0.18590  1.0000
  H   H1744     1.0  0.53654  0.15476  0.16980  1.0000
  C   C2179     1.0  0.61473  0.09399  0.06212  1.0000
  C   C2180     1.0  0.60815  0.11191  0.05550  1.0000
  C   C2181     1.0  0.60928  0.12707  0.06618  1.0000
  C   C2182     1.0  0.61642  0.12442  0.08383  1.0000
  C   C2183     1.0  0.62213  0.10636  0.09079  1.0000
  C   C2184     1.0  0.62143  0.09130  0.07994  1.0000
  H   H1745     1.0  0.60304  0.11421  0.04179  1.0000
  H   H1746     1.0  0.60528  0.14101  0.06043  1.0000
  H   H1747     1.0  0.62833  0.10415  0.10396  1.0000
  H   H1748     1.0  0.62671  0.07755  0.08513  1.0000
  H   H1749     1.0  0.60721  0.35571  0.09749  1.0000
  C   C2185     1.0  0.72863  0.41638  0.13107  1.0000
  H   H1750     1.0  0.66684  0.00537  0.27860  1.0000
  C   C2186     1.0  0.65126  0.32284  0.17243  1.0000
  H   H1751     1.0  0.66888  0.28812  0.04564  1.0000
  H   H1752     1.0  0.69592  0.20819  0.29400  1.0000
  S   S313      1.0  0.60619  0.08746  0.32156  1.0000
  P   P71       1.0  0.70897  0.40846  0.12102  1.0000
  H   H1753     1.0  0.53366  0.03514  0.05974  1.0000
  C   C2187     1.0  0.69045  0.30252  0.99257  1.0000
  C   C2188     1.0  0.61568  0.41118  0.10848  1.0000
  C   C2189     1.0  0.62920  0.40839  0.09379  1.0000
  C   C2190     1.0  0.64082  0.39162  0.09392  1.0000
  C   C2191     1.0  0.63869  0.37770  0.10862  1.0000
  C   C2192     1.0  0.62563  0.38097  0.12339  1.0000
  C   C2193     1.0  0.61432  0.39753  0.12335  1.0000
  H   H1754     1.0  0.63039  0.41891  0.08226  1.0000
  H   H1755     1.0  0.65084  0.38919  0.08243  1.0000
  H   H1756     1.0  0.62387  0.37039  0.13479  1.0000
  H   H1757     1.0  0.60406  0.39960  0.13478  1.0000
  H   H1758     1.0  0.58082  0.47461  0.02203  1.0000
  C   C2194     1.0  0.51629  0.46737  0.08108  1.0000
  H   H1759     1.0  0.52892  0.45933  0.08476  1.0000
  C   C2195     1.0  0.58643  0.47080  0.00854  1.0000
  C   C2196     1.0  0.58714  0.03627  0.29746  1.0000
  C   C2197     1.0  0.70818  0.38383  0.15316  1.0000
  C   C2198     1.0  0.49891  0.45993  0.08552  1.0000
  H   H1760     1.0  0.54425  0.45863  0.04568  1.0000
  C   C2199     1.0  0.70325  0.36774  0.16395  1.0000
  S   S314      1.0  0.53293  0.07070  0.02617  1.0000
  Fe  Fe159     1.0  0.63629  0.07797  0.31415  1.0000
  H   H1761     1.0  0.61152  0.11450  0.28797  1.0000
  H   H1762     1.0  0.56270  0.43707  0.02537  1.0000
  H   H1763     1.0  0.58278  0.38069  0.10424  1.0000
  C   C2200     1.0  0.63896  0.02390  0.21868  1.0000
  H   H1764     1.0  0.63442  0.33629  0.15102  1.0000
  H   H1765     1.0  0.70266  0.10538  0.26575  1.0000
  C   C2201     1.0  0.74085  0.43276  0.15471  1.0000
  H   H1766     1.0  0.56827  0.05681  0.21018  1.0000
  C   C2202     1.0  0.70352  0.11487  0.29292  1.0000
  C   C2203     1.0  0.57266  0.05019  0.19764  1.0000
  H   H1767     1.0  0.64189  0.08433  0.19034  1.0000
  C   C2204     1.0  0.57807  0.08883  0.24278  1.0000
  C   C2205     1.0  0.57166  0.10672  0.23602  1.0000
  C   C2206     1.0  0.57579  0.11294  0.21747  1.0000
  C   C2207     1.0  0.58639  0.10134  0.20567  1.0000
  C   C2208     1.0  0.59291  0.08336  0.21231  1.0000
  C   C2209     1.0  0.58860  0.07714  0.23097  1.0000
  P   P72       1.0  0.60562  0.06792  0.19682  1.0000
  C   C2210     1.0  0.61636  0.08171  0.17740  1.0000
  C   C2211     1.0  0.63413  0.08781  0.17820  1.0000
  C   C2212     1.0  0.64199  0.09897  0.16335  1.0000
  C   C2213     1.0  0.63222  0.10413  0.14758  1.0000
  C   C2214     1.0  0.61455  0.09812  0.14664  1.0000
  C   C2215     1.0  0.60658  0.08712  0.16153  1.0000
  C   C2216     1.0  0.58997  0.05312  0.18821  1.0000
  C   C2217     1.0  0.59524  0.04411  0.17207  1.0000
  C   C2218     1.0  0.58332  0.03251  0.16537  1.0000
  C   C2219     1.0  0.56610  0.02969  0.17480  1.0000
  H   H1768     1.0  0.57499  0.08411  0.25722  1.0000
  H   H1769     1.0  0.56378  0.11589  0.24523  1.0000
  H   H1770     1.0  0.57140  0.12703  0.21231  1.0000
  H   H1771     1.0  0.59340  0.06329  0.23640  1.0000
  H   H1772     1.0  0.65558  0.10386  0.16419  1.0000
  H   H1773     1.0  0.63823  0.11298  0.13617  1.0000
  H   H1774     1.0  0.60691  0.10234  0.13449  1.0000
  H   H1775     1.0  0.59268  0.08309  0.16067  1.0000
  H   H1776     1.0  0.60865  0.04599  0.16472  1.0000
  H   H1777     1.0  0.58750  0.02561  0.15290  1.0000
  H   H1778     1.0  0.59837  0.00247  0.01559  1.0000
  S   S315      1.0  0.66145  0.01255  0.31792  1.0000
  C   C2220     1.0  0.66004  0.45354  0.11716  1.0000
  H   H1779     1.0  0.59349  0.13162  0.31220  1.0000
  H   H1780     1.0  0.62922  0.00873  0.27385  1.0000
  C   C2221     1.0  0.61130  0.39611  0.01618  1.0000
  H   H1781     1.0  0.54242  0.00205  0.99770  1.0000
  P   P73       1.0  0.62420  0.38356  0.03424  1.0000
  C   C2222     1.0  0.61028  0.38193  0.05597  1.0000
  C   C2223     1.0  0.63202  0.36160  0.02531  1.0000
  C   C2224     1.0  0.62347  0.34523  0.03150  1.0000
  C   C2225     1.0  0.62947  0.32852  0.02386  1.0000
  C   C2226     1.0  0.65633  0.16247  0.24993  1.0000
  H   H1782     1.0  0.65949  0.02401  0.23865  1.0000
  C   C2227     1.0  0.64584  0.36121  0.01067  1.0000
  C   C2228     1.0  0.61417  0.36745  0.06970  1.0000
  C   C2229     1.0  0.60380  0.36666  0.08679  1.0000
  C   C2230     1.0  0.59007  0.38076  0.09062  1.0000
  C   C2231     1.0  0.58670  0.39567  0.07736  1.0000
  C   C2232     1.0  0.59676  0.39629  0.06010  1.0000
  C   C2233     1.0  0.64331  0.39635  0.03894  1.0000
  C   C2234     1.0  0.64051  0.41561  0.04029  1.0000
  C   C2235     1.0  0.65484  0.42554  0.04512  1.0000
  C   C2236     1.0  0.67200  0.41629  0.04888  1.0000
  C   C2237     1.0  0.67488  0.39709  0.04767  1.0000
  C   C2238     1.0  0.66057  0.38711  0.04278  1.0000
  C   C2239     1.0  0.70237  0.38772  0.13504  1.0000
  H   H1783     1.0  0.64854  0.46407  0.11586  1.0000
  C   C2240     1.0  0.67132  0.42116  0.12235  1.0000
  H   H1784     1.0  0.58559  0.38386  0.02533  1.0000
  C   C2241     1.0  0.63749  0.15180  0.28650  1.0000
  H   H1785     1.0  0.61213  0.34527  0.04208  1.0000
  H   H1786     1.0  0.62321  0.31581  0.02900  1.0000
  H   H1787     1.0  0.50522  0.14511  0.18122  1.0000
  C   C2242     1.0  0.68260  0.14163  0.29958  1.0000
  C   C2243     1.0  0.63886  0.16337  0.24264  1.0000
  H   H1788     1.0  0.62566  0.35715  0.06757  1.0000
  H   H1789     1.0  0.57689  0.40718  0.08082  1.0000
  H   H1790     1.0  0.59446  0.40835  0.05032  1.0000
  H   H1791     1.0  0.62716  0.42299  0.03790  1.0000
  H   H1792     1.0  0.68291  0.42398  0.05301  1.0000
  H   H1793     1.0  0.68807  0.38982  0.05090  1.0000
  H   H1794     1.0  0.66292  0.37216  0.04246  1.0000
  C   C2244     1.0  0.72433  0.27979  0.11757  1.0000
  H   H1795     1.0  0.66816  0.40678  0.12494  1.0000
  C   C2245     1.0  0.69148  0.37525  0.12799  1.0000
  H   H1796     1.0  0.49358  0.07125  0.03045  1.0000
  C   C2246     1.0  0.71136  0.28495  0.14883  1.0000
  C   C2247     1.0  0.71100  0.27643  0.13223  1.0000
  P   P74       1.0  0.69328  0.28146  0.16727  1.0000
  C   C2248     1.0  0.70251  0.28321  0.18949  1.0000
  C   C2249     1.0  0.67432  0.29868  0.16268  1.0000
  C   C2250     1.0  0.65324  0.31443  0.14082  1.0000
  C   C2251     1.0  0.66760  0.30096  0.14495  1.0000
  C   C2252     1.0  0.68481  0.25875  0.16662  1.0000
  C   C2253     1.0  0.69714  0.24340  0.16260  1.0000
  C   C2254     1.0  0.69043  0.22608  0.16112  1.0000
  C   C2255     1.0  0.67143  0.22390  0.16393  1.0000
  C   C2256     1.0  0.65916  0.23896  0.16843  1.0000
  C   C2257     1.0  0.66577  0.25633  0.16976  1.0000
  H   H1797     1.0  0.63205  0.17397  0.30481  1.0000
  H   H1798     1.0  0.63525  0.19491  0.27304  1.0000
  C   C2258     1.0  0.60820  0.00855  0.29650  1.0000
  C   C2259     1.0  0.50676  0.15460  0.16888  1.0000
  H   H1799     1.0  0.70023  0.26744  0.13036  1.0000
  H   H1800     1.0  0.64850  0.31644  0.12690  1.0000
  H   H1801     1.0  0.67358  0.29242  0.13418  1.0000
  H   H1802     1.0  0.61809  0.02777  0.19912  1.0000
  H   H1803     1.0  0.71188  0.24493  0.16019  1.0000
  H   H1804     1.0  0.69991  0.21444  0.15742  1.0000
  H   H1805     1.0  0.66609  0.21067  0.16223  1.0000
  H   H1806     1.0  0.64439  0.23729  0.17024  1.0000
  H   H1807     1.0  0.65591  0.26787  0.17284  1.0000
  S   S316      1.0  0.57889  0.09424  0.01330  1.0000
  H   H1808     1.0  0.65459  0.05794  0.24124  1.0000
  P   P75       1.0  0.53930  0.11674  0.11188  1.0000
  C   C2260     1.0  0.54697  0.10916  0.13454  1.0000
  C   C2261     1.0  0.54984  0.10193  0.09473  1.0000
  C   C2262     1.0  0.56620  0.09068  0.09793  1.0000
  C   C2263     1.0  0.57480  0.08021  0.08397  1.0000
  C   C2264     1.0  0.56750  0.08137  0.06661  1.0000
  C   C2265     1.0  0.55152  0.09291  0.06321  1.0000
  C   C2266     1.0  0.54265  0.10307  0.07724  1.0000
  C   C2267     1.0  0.55227  0.12197  0.14607  1.0000
  C   C2268     1.0  0.55644  0.11616  0.16433  1.0000
  C   C2269     1.0  0.55509  0.09761  0.17120  1.0000
  C   C2270     1.0  0.54987  0.08477  0.15974  1.0000
  C   C2271     1.0  0.54571  0.09054  0.14151  1.0000
  C   C2272     1.0  0.54641  0.13953  0.10351  1.0000
  C   C2273     1.0  0.53346  0.15454  0.09916  1.0000
  C   C2274     1.0  0.53945  0.17182  0.09209  1.0000
  C   C2275     1.0  0.55838  0.17417  0.08897  1.0000
  C   C2276     1.0  0.57132  0.15920  0.09275  1.0000
  C   C2277     1.0  0.56541  0.14199  0.10011  1.0000
  C   C2278     1.0  0.68259  0.20520  0.28966  1.0000
  H   H1809     1.0  0.57267  0.09033  0.11092  1.0000
  H   H1810     1.0  0.58755  0.07168  0.08628  1.0000
  H   H1811     1.0  0.57452  0.07368  0.05564  1.0000
  H   H1812     1.0  0.54625  0.09424  0.04957  1.0000
  H   H1813     1.0  0.53038  0.11208  0.07436  1.0000
  H   H1814     1.0  0.55281  0.13652  0.14113  1.0000
  H   H1815     1.0  0.56047  0.12617  0.17318  1.0000
  H   H1816     1.0  0.55790  0.09321  0.18544  1.0000
  H   H1817     1.0  0.54872  0.07043  0.16508  1.0000
  H   H1818     1.0  0.54115  0.08058  0.13292  1.0000
  H   H1819     1.0  0.51878  0.15316  0.10123  1.0000
  H   H1820     1.0  0.52943  0.18351  0.08947  1.0000
  H   H1821     1.0  0.56308  0.18764  0.08397  1.0000
  H   H1822     1.0  0.58598  0.16103  0.09027  1.0000
  H   H1823     1.0  0.57573  0.13062  0.10308  1.0000
  H   H1824     1.0  0.63492  0.40940  0.00233  1.0000
  H   H1825     1.0  0.50961  0.13922  0.13068  1.0000
  C   C2279     1.0  0.63167  0.18067  0.02173  1.0000
  C   C2280     1.0  0.63465  0.18886  0.03786  1.0000
  C   C2281     1.0  0.63326  0.20832  0.03802  1.0000
  C   C2282     1.0  0.62829  0.21938  0.02194  1.0000
  P   P76       1.0  0.63592  0.21892  0.05919  1.0000
  C   C2283     1.0  0.61354  0.22182  0.07185  1.0000
  C   C2284     1.0  0.65168  0.20394  0.07310  1.0000
  C   C2285     1.0  0.64516  0.18889  0.08469  1.0000
  C   C2286     1.0  0.65742  0.17700  0.09507  1.0000
  C   C2287     1.0  0.67624  0.18003  0.09402  1.0000
  C   C2288     1.0  0.68285  0.19497  0.08254  1.0000
  C   C2289     1.0  0.67065  0.20687  0.07208  1.0000
  C   C2290     1.0  0.61245  0.22353  0.09101  1.0000
  C   C2291     1.0  0.59526  0.22605  0.10090  1.0000
  C   C2292     1.0  0.57894  0.22652  0.09181  1.0000
  C   C2293     1.0  0.57983  0.22483  0.07271  1.0000
  C   C2294     1.0  0.59706  0.22256  0.06272  1.0000
  C   C2295     1.0  0.64564  0.24125  0.05433  1.0000
  C   C2296     1.0  0.65796  0.24461  0.03865  1.0000
  C   C2297     1.0  0.66607  0.26158  0.03537  1.0000
  C   C2298     1.0  0.66218  0.27520  0.04784  1.0000
  C   C2299     1.0  0.65014  0.27189  0.06356  1.0000
  C   C2300     1.0  0.64195  0.25499  0.06686  1.0000
  C   C2301     1.0  0.61147  0.03408  0.27275  1.0000
  H   H1826     1.0  0.71218  0.43485  0.14890  1.0000
  C   C2302     1.0  0.63164  0.13488  0.28210  1.0000
  H   H1827     1.0  0.63791  0.17991  0.05017  1.0000
  H   H1828     1.0  0.62652  0.23438  0.02190  1.0000
  H   H1829     1.0  0.63065  0.18614  0.08561  1.0000
  H   H1830     1.0  0.65230  0.16533  0.10384  1.0000
  H   H1831     1.0  0.68567  0.17082  0.10213  1.0000
  H   H1832     1.0  0.69742  0.19744  0.08183  1.0000
  H   H1833     1.0  0.67613  0.21839  0.06339  1.0000
  H   H1834     1.0  0.62493  0.22285  0.09835  1.0000
  H   H1835     1.0  0.59464  0.22726  0.11574  1.0000
  H   H1836     1.0  0.56564  0.22809  0.09966  1.0000
  H   H1837     1.0  0.56717  0.22527  0.06566  1.0000
  H   H1838     1.0  0.59743  0.22134  0.04796  1.0000
  H   H1839     1.0  0.66171  0.23400  0.02918  1.0000
  H   H1840     1.0  0.67575  0.26406  0.02340  1.0000
  H   H1841     1.0  0.58976  0.10667  0.19147  1.0000
  C   C2303     1.0  0.65658  0.43484  0.12091  1.0000
  C   C2304     1.0  0.69741  0.11578  0.27506  1.0000
  H   H1842     1.0  0.55692  0.02059  0.16966  1.0000
  H   H1843     1.0  0.51476  0.08910  0.10237  1.0000
  C   C2305     1.0  0.67968  0.18715  0.28579  1.0000
  H   H1844     1.0  0.65242  0.44039  0.04626  1.0000
  Fe  Fe160     1.0  0.60506  0.47292  0.04989  1.0000
  C   C2306     1.0  0.72511  0.29724  0.15023  1.0000
  H   H1845     1.0  0.72405  0.28694  0.23643  1.0000
  C   C2307     1.0  0.62544  0.21114  0.00580  1.0000
  C   C2308     1.0  0.51090  0.17917  0.13719  1.0000
  H   H1846     1.0  0.67781  0.34984  0.13364  1.0000
  H   H1847     1.0  0.69105  0.17654  0.28683  1.0000
  P   P77       1.0  0.49294  0.47089  0.00441  1.0000
  C   C2309     1.0  0.66558  0.30926  0.17663  1.0000
  H   H1848     1.0  0.64239  0.43097  0.12257  1.0000
  C   C2310     1.0  0.73794  0.29195  0.11917  1.0000
  C   C2311     1.0  0.62713  0.19179  0.00569  1.0000
  H   H1849     1.0  0.51378  0.11969  0.01740  1.0000
  H   H1850     1.0  0.70714  0.44917  0.11439  1.0000
  C   C2312     1.0  0.51597  0.07948  0.01107  1.0000
  H   H1851     1.0  0.74005  0.36922  0.07385  1.0000
  C   C2313     1.0  0.64654  0.05142  0.23204  1.0000
  C   C2314     1.0  0.64931  0.03229  0.23057  1.0000
  H   H1852     1.0  0.66962  0.30706  0.19074  1.0000
  H   H1853     1.0  0.68089  0.47315  0.11197  1.0000
  H   H1854     1.0  0.64479  0.33126  0.18309  1.0000
  H   H1855     1.0  0.49368  0.16046  0.01388  1.0000
  C   C2315     1.0  0.51451  0.11529  0.11472  1.0000
  C   C2316     1.0  0.61144  0.15421  0.30958  1.0000
  H   H1856     1.0  0.51074  0.09800  0.05006  1.0000
  C   C2317     1.0  0.64350  0.32821  0.00953  1.0000
  C   C2318     1.0  0.69235  0.35548  0.15685  1.0000
  Fe  Fe161     1.0  0.59261  0.04659  0.99300  1.0000
  H   H1857     1.0  0.65225  0.37377  0.00534  1.0000
  C   C2319     1.0  0.68640  0.35930  0.13897  1.0000
  H   H1858     1.0  0.68849  0.34300  0.16512  1.0000
  H   H1859     1.0  0.62390  0.16632  0.21785  1.0000
  H   H1860     1.0  0.54712  0.12053  0.00876  1.0000
  C   C2320     1.0  0.50345  0.12811  0.12495  1.0000
  C   C2321     1.0  0.64843  0.19759  0.27795  1.0000
  C   C2322     1.0  0.73264  0.38253  0.07622  1.0000
  H   H1861     1.0  0.68677  0.37787  0.11409  1.0000
  H   H1862     1.0  0.57579  0.04447  0.30402  1.0000
  H   H1863     1.0  0.64862  0.13853  0.99167  1.0000
  H   H1864     1.0  0.51239  0.18886  0.12499  1.0000
  H   H1865     1.0  0.54749  0.03622  0.19832  1.0000
  H   H1866     1.0  0.70805  0.36475  0.17777  1.0000
  C   C2323     1.0  0.71372  0.41680  0.08248  1.0000
  H   H1867     1.0  0.62634  0.16213  0.25163  1.0000
  C   C2324     1.0  0.62746  0.16130  0.30056  1.0000
  C   C2325     1.0  0.51413  0.13588  0.04105  1.0000
  C   C2326     1.0  0.54941  0.44349  0.02131  1.0000
  H   H1868     1.0  0.72779  0.37547  0.10546  1.0000
  C   C2327     1.0  0.72592  0.42880  0.14500  1.0000
  C   C2328     1.0  0.53917  0.45578  0.03264  1.0000
  C   C2329     1.0  0.73004  0.39596  0.06139  1.0000
  H   H1869     1.0  0.68294  0.16810  0.20918  1.0000
  C   C2330     1.0  0.71622  0.40330  0.09749  1.0000
  S   S317      1.0  0.62041  0.46573  0.02317  1.0000
  C   C2331     1.0  0.67670  0.14292  0.28147  1.0000
  H   H1870     1.0  0.56137  0.02017  0.04338  1.0000
  C   C2332     1.0  0.51576  0.46142  0.01012  1.0000
  C   C2333     1.0  0.52236  0.46458  0.02716  1.0000
  C   C2334     1.0  0.69309  0.44499  0.11646  1.0000
  C   C2335     1.0  0.72561  0.38608  0.09415  1.0000
  H   H1871     1.0  0.55323  0.15189  0.05512  1.0000
  C   C2336     1.0  0.67829  0.45862  0.11496  1.0000
  H   H1872     1.0  0.60373  0.16151  0.32046  1.0000
  C   C2337     1.0  0.68974  0.42612  0.12021  1.0000
  C   C2338     1.0  0.71390  0.30193  0.21173  1.0000
  C   C2339     1.0  0.52539  0.14517  0.05145  1.0000
  C   C2340     1.0  0.54282  0.44007  0.00443  1.0000
  H   H1873     1.0  0.64114  0.00904  0.21757  1.0000
  H   H1874     1.0  0.71673  0.39298  0.15903  1.0000
  C   C2341     1.0  0.52215  0.12707  0.02559  1.0000
  H   H1875     1.0  0.69191  0.38045  0.01179  1.0000
  H   H1876     1.0  0.72376  0.27337  0.10473  1.0000
  C   C2342     1.0  0.65939  0.99263  0.30582  1.0000
  C   C2343     1.0  0.69614  0.12778  0.30519  1.0000
  C   C2344     1.0  0.54447  0.14516  0.04675  1.0000
  H   H1877     1.0  0.59255  0.05822  0.27610  1.0000
  H   H1878     1.0  0.72572  0.30446  0.16246  1.0000
  H   H1879     1.0  0.70668  0.43026  0.08456  1.0000
  H   H1880     1.0  0.49575  0.38686  0.03749  1.0000
  C   C2345     1.0  0.49735  0.07790  0.01694  1.0000
  C   C2346     1.0  0.54811  0.01430  0.04357  1.0000
  H   H1881     1.0  0.73288  0.09015  0.32042  1.0000
  C   C2347     1.0  0.70621  0.30061  0.19486  1.0000
  H   H1882     1.0  0.67892  0.12954  0.25572  1.0000
  C   C2348     1.0  0.52595  0.44881  0.99894  1.0000
  C   C2349     1.0  0.61734  0.01634  0.28032  1.0000
  H   H1883     1.0  0.68574  0.16428  0.24311  1.0000
  C   C2350     1.0  0.69438  0.39120  0.00065  1.0000
  C   C2351     1.0  0.67218  0.16457  0.23775  1.0000
  C   C2352     1.0  0.54662  0.99851  0.03425  1.0000
  C   C2353     1.0  0.49603  0.03410  0.01145  1.0000
  H   H1884     1.0  0.70069  0.12671  0.31918  1.0000
  C   C2354     1.0  0.66299  0.99275  0.28660  1.0000
  C   C2355     1.0  0.55234  0.13627  0.03140  1.0000
  C   C2356     1.0  0.66844  0.21941  0.28776  1.0000
  H   H1885     1.0  0.63280  0.16564  0.02175  1.0000
  H   H1886     1.0  0.62184  0.21978  0.99338  1.0000
  H   H1887     1.0  0.70401  0.25356  0.19766  1.0000
  H   H1888     1.0  0.49301  0.13939  0.08625  1.0000
  C   C2357     1.0  0.71423  0.26856  0.21828  1.0000
  C   C2358     1.0  0.65324  0.16749  0.21140  1.0000
  S   S318      1.0  0.58285  0.48323  0.09803  1.0000
  C   C2359     1.0  0.59270  0.01827  0.30499  1.0000
  C   C2360     1.0  0.61574  0.12777  0.29121  1.0000
  H   H1889     1.0  0.61887  0.04028  0.26049  1.0000
  H   H1890     1.0  0.73308  0.35240  0.13762  1.0000
  H   H1891     1.0  0.51441  0.47362  0.03642  1.0000
  C   C2361     1.0  0.67065  0.16687  0.21855  1.0000
  C   C2362     1.0  0.68397  0.12966  0.26936  1.0000
  H   H1892     1.0  0.65198  0.16903  0.19653  1.0000
  H   H1893     1.0  0.70381  0.99961  0.31128  1.0000
  P   P78       1.0  0.65842  0.16009  0.27470  1.0000
  H   H1894     1.0  0.55100  0.43104  0.99534  1.0000
  C   C2363     1.0  0.66240  0.18312  0.28033  1.0000
  C   C2364     1.0  0.72059  0.41311  0.06451  1.0000
  C   C2365     1.0  0.59655  0.04414  0.28146  1.0000
  C   C2366     1.0  0.54112  0.12742  0.02070  1.0000
  Fe  Fe162     1.0  0.67841  0.07858  0.31997  1.0000
  C   C2367     1.0  0.53251  0.02260  0.05297  1.0000
  H   H1895     1.0  0.68696  0.28821  0.99409  1.0000
  C   C2368     1.0  0.65140  0.21563  0.28179  1.0000
  H   H1896     1.0  0.56716  0.13607  0.02786  1.0000
  H   H1897     1.0  0.71363  0.10386  0.29741  1.0000
  C   C2369     1.0  0.50643  0.09991  0.10920  1.0000
  C   C2370     1.0  0.51551  0.01474  0.05356  1.0000
  C   C2371     1.0  0.60548  0.46637  0.00532  1.0000
  C   C2372     1.0  0.63737  0.16592  0.22346  1.0000
  H   H1898     1.0  0.71748  0.25612  0.22730  1.0000
  H   H1899     1.0  0.71160  0.40568  0.01634  1.0000
  H   H1900     1.0  0.50348  0.02101  0.06110  1.0000
  C   C2373     1.0  0.51453  0.03493  0.00467  1.0000
  H   H1901     1.0  0.71693  0.31538  0.21565  1.0000
  C   C2374     1.0  0.65143  0.34462  0.00275  1.0000
  H   H1902     1.0  0.71876  0.42362  0.05304  1.0000
  C   C2375     1.0  0.59258  0.39313  0.01499  1.0000
  H   H1903     1.0  0.49535  0.99498  0.01133  1.0000
  C   C2376     1.0  0.58275  0.40212  0.00045  1.0000
  H   H1904     1.0  0.49960  0.40855  0.09004  1.0000
  H   H1905     1.0  0.50233  0.06745  0.06398  1.0000
  C   C2377     1.0  0.51726  0.48526  0.07208  1.0000
  H   H1906     1.0  0.55996  0.47419  0.99652  1.0000
  C   C2378     1.0  0.62032  0.40739  0.00209  1.0000
  C   C2379     1.0  0.51396  0.99891  0.04425  1.0000
  H   H1907     1.0  0.49836  0.44620  0.09269  1.0000
  H   H1908     1.0  0.64639  0.48854  0.03633  1.0000
  C   C2380     1.0  0.49967  0.39827  0.06312  1.0000
  H   H1909     1.0  0.64826  0.31531  0.00360  1.0000
  C   C2381     1.0  0.73834  0.30063  0.13550  1.0000
  H   H1910     1.0  0.54321  0.99840  0.31835  1.0000
  H   H1911     1.0  0.62479  0.18541  0.99322  1.0000
  C   C2382     1.0  0.52070  0.08774  0.99327  1.0000
  H   H1912     1.0  0.51205  0.01411  0.32408  1.0000
  C   C2383     1.0  0.49312  0.17382  0.14368  1.0000
  C   C2384     1.0  0.49268  0.07953  0.06569  1.0000
  H   H1913     1.0  0.50730  0.13590  0.21856  1.0000
  Fe  Fe163     1.0  0.56895  0.48506  0.07098  1.0000
  H   H1914     1.0  0.66206  0.34441  0.99144  1.0000
  C   C2385     1.0  0.49751  0.09701  0.05788  1.0000
  H   H1915     1.0  0.73543  0.39301  0.04752  1.0000
  H   H1916     1.0  0.50890  0.16511  0.23347  1.0000
  H   H1917     1.0  0.56826  0.39993  0.99973  1.0000
  C   C2386     1.0  0.49531  0.14156  0.22665  1.0000
  S   S319      1.0  0.61270  0.06907  0.99248  1.0000
  C   C2387     1.0  0.57461  0.47033  0.99419  1.0000
  H   H1918     1.0  0.50074  0.99288  0.04516  1.0000
  H   H1919     1.0  0.55893  0.99221  0.02712  1.0000
  Fe  Fe164     1.0  0.50527  0.03268  0.42213  1.0000
  C   C2388     1.0  0.59336  0.01037  0.34567  1.0000
  Fe  Fe165     1.0  0.53297  0.05835  0.40198  1.0000
  C   C2389     1.0  0.55321  0.07857  0.45434  1.0000
  S   S320      1.0  0.56443  0.05736  0.39739  1.0000
  H   H1920     1.0  0.56904  0.01274  0.36501  1.0000
  C   C2390     1.0  0.53639  0.10820  0.44662  1.0000
  S   S321      1.0  0.52325  0.05263  0.43195  1.0000
  S   S322      1.0  0.51676  0.03635  0.39265  1.0000
  H   H1921     1.0  0.73587  0.03416  0.63701  1.0000
  H   H1922     1.0  0.53135  0.01513  0.53070  1.0000
  Fe  Fe166     1.0  0.52857  0.06049  0.58751  1.0000
  H   H1923     1.0  0.66912  0.12370  0.33874  1.0000
  S   S323      1.0  0.55682  0.05450  0.59964  1.0000
  H   H1924     1.0  0.55110  0.04127  0.52448  1.0000
  H   H1925     1.0  0.50681  0.06651  0.50945  1.0000
  C   C2391     1.0  0.66795  0.09917  0.40730  1.0000
  S   S324      1.0  0.52489  0.05430  0.55824  1.0000
  C   C2392     1.0  0.52750  0.08402  0.63609  1.0000
  C   C2393     1.0  0.73002  0.06893  0.60271  1.0000
  S   S325      1.0  0.50731  0.08498  0.58700  1.0000
  C   C2394     1.0  0.63955  0.12198  0.34057  1.0000
  C   C2395     1.0  0.71877  0.09498  0.34693  1.0000
  H   H1926     1.0  0.70946  0.10089  0.37491  1.0000
  H   H1927     1.0  0.58635  0.01774  0.39154  1.0000
  H   H1928     1.0  0.71352  0.11646  0.42220  1.0000
  H   H1929     1.0  0.51908  0.01940  0.47346  1.0000
  H   H1930     1.0  0.61898  0.06417  0.35377  1.0000
  C   C2396     1.0  0.55759  0.01968  0.32920  1.0000
  S   S326      1.0  0.50053  0.09853  0.53320  1.0000
  C   C2397     1.0  0.57119  0.06817  0.61064  1.0000
  C   C2398     1.0  0.58510  0.05905  0.62139  1.0000
  C   C2399     1.0  0.59704  0.06920  0.63024  1.0000
  C   C2400     1.0  0.59521  0.08864  0.62846  1.0000
  C   C2401     1.0  0.58142  0.09780  0.61757  1.0000
  C   C2402     1.0  0.56951  0.08764  0.60862  1.0000
  H   H1931     1.0  0.58672  0.04401  0.62285  1.0000
  H   H1932     1.0  0.58103  0.10719  0.44316  1.0000
  C   C2403     1.0  0.54552  0.00098  0.57065  1.0000
  H   H1933     1.0  0.55917  0.09485  0.60005  1.0000
  C   C2404     1.0  0.57563  0.06557  0.37604  1.0000
  C   C2405     1.0  0.56603  0.07652  0.36246  1.0000
  C   C2406     1.0  0.57554  0.08306  0.34577  1.0000
  C   C2407     1.0  0.59467  0.07860  0.34249  1.0000
  C   C2408     1.0  0.60425  0.06762  0.35607  1.0000
  C   C2409     1.0  0.59478  0.06129  0.37282  1.0000
  H   H1934     1.0  0.55133  0.08014  0.36493  1.0000
  C   C2410     1.0  0.62694  0.09558  0.41356  1.0000
  H   H1935     1.0  0.60233  0.05296  0.38330  1.0000
  H   H1936     1.0  0.61068  0.11716  0.34592  1.0000
  H   H1937     1.0  0.55959  0.02192  0.62734  1.0000
  C   C2411     1.0  0.62261  0.01269  0.35923  1.0000
  H   H1938     1.0  0.53264  0.08688  0.62178  1.0000
  C   C2412     1.0  0.62619  0.10877  0.42668  1.0000
  H   H1939     1.0  0.50055  0.07838  0.62879  1.0000
  H   H1940     1.0  0.66958  0.12861  0.62790  1.0000
  H   H1941     1.0  0.52011  0.99829  0.36514  1.0000
  C   C2413     1.0  0.58306  0.05497  0.47952  1.0000
  H   H1942     1.0  0.73122  0.05830  0.37634  1.0000
  C   C2414     1.0  0.52205  0.03746  0.33539  1.0000
  C   C2415     1.0  0.54686  0.01673  0.63380  1.0000
  C   C2416     1.0  0.55016  0.08084  0.52291  1.0000
  C   C2417     1.0  0.55560  0.00640  0.43074  1.0000
  H   H1943     1.0  0.59266  0.08197  0.47039  1.0000
  C   C2418     1.0  0.61278  0.01032  0.34390  1.0000
  H   H1944     1.0  0.60256  0.00069  0.43077  1.0000
  S   S327      1.0  0.50781  0.04061  0.59947  1.0000
  H   H1945     1.0  0.62070  0.01750  0.38819  1.0000
  C   C2419     1.0  0.67035  0.11829  0.40642  1.0000
  C   C2420     1.0  0.57365  0.01017  0.43366  1.0000
  S   S328      1.0  0.65582  0.06041  0.33198  1.0000
  C   C2421     1.0  0.61315  0.01510  0.37647  1.0000
  C   C2422     1.0  0.58327  0.07389  0.51769  1.0000
  S   S329      1.0  0.51054  0.08123  0.39662  1.0000
  C   C2423     1.0  0.57071  0.08745  0.54579  1.0000
  H   H1946     1.0  0.54585  0.08864  0.42673  1.0000
  C   C2424     1.0  0.58399  0.01255  0.36315  1.0000
  C   C2425     1.0  0.72107  0.10079  0.36461  1.0000
  H   H1947     1.0  0.56726  0.04367  0.34026  1.0000
  H   H1948     1.0  0.63756  0.01312  0.35748  1.0000
  H   H1949     1.0  0.61448  0.10112  0.37675  1.0000
  Fe  Fe167     1.0  0.50227  0.07722  0.55821  1.0000
  C   C2426     1.0  0.49769  0.09566  0.50946  1.0000
  C   C2427     1.0  0.56532  0.07405  0.51159  1.0000
  H   H1950     1.0  0.57799  0.02601  0.48685  1.0000
  C   C2428     1.0  0.61643  0.04082  0.46196  1.0000
  H   H1951     1.0  0.69765  0.10930  0.62488  1.0000
  H   H1952     1.0  0.56805  0.09165  0.33538  1.0000
  C   C2429     1.0  0.54612  0.04584  0.49520  1.0000
  C   C2430     1.0  0.53540  0.11189  0.46524  1.0000
  P   P79       1.0  0.64760  0.09128  0.39842  1.0000
  C   C2431     1.0  0.65946  0.11023  0.36493  1.0000
  C   C2432     1.0  0.64963  0.03441  0.40708  1.0000
  H   H1953     1.0  0.65978  0.12839  0.40107  1.0000
  C   C2433     1.0  0.50027  0.07825  0.48177  1.0000
  C   C2434     1.0  0.58859  0.99794  0.42819  1.0000
  C   C2435     1.0  0.65955  0.02876  0.39100  1.0000
  C   C2436     1.0  0.54539  0.09161  0.44115  1.0000
  H   H1954     1.0  0.54627  0.99273  0.38503  1.0000
  H   H1955     1.0  0.59524  0.06837  0.50958  1.0000
  H   H1956     1.0  0.60727  0.01377  0.47142  1.0000
  H   H1957     1.0  0.60772  0.06196  0.63839  1.0000
  H   H1958     1.0  0.53615  0.08053  0.51887  1.0000
  S   S330      1.0  0.50012  0.01002  0.55728  1.0000
  C   C2437     1.0  0.61108  0.08623  0.41173  1.0000
  C   C2438     1.0  0.53327  0.02938  0.64109  1.0000
  H   H1959     1.0  0.57269  0.09232  0.55915  1.0000
  S   S331      1.0  0.60988  0.10184  0.63962  1.0000
  C   C2439     1.0  0.68668  0.12447  0.41189  1.0000
  C   C2440     1.0  0.65150  0.06679  0.39524  1.0000
  C   C2441     1.0  0.50937  0.07905  0.64003  1.0000
  H   H1960     1.0  0.53576  0.04398  0.64023  1.0000
  C   C2442     1.0  0.69842  0.09262  0.41929  1.0000
  H   H1961     1.0  0.58237  0.08333  0.42044  1.0000
  H   H1962     1.0  0.52791  0.12452  0.46955  1.0000
  S   S332      1.0  0.50393  0.00501  0.43836  1.0000
  H   H1963     1.0  0.70945  0.08271  0.42403  1.0000
  H   H1964     1.0  0.64506  0.02411  0.41787  1.0000
  H   H1965     1.0  0.63839  0.05752  0.42197  1.0000
  C   C2443     1.0  0.71220  0.10826  0.62730  1.0000
  H   H1966     1.0  0.62934  0.03536  0.45525  1.0000
  C   C2444     1.0  0.50199  0.07887  0.50111  1.0000
  H   H1967     1.0  0.67360  0.03771  0.36479  1.0000
  H   H1968     1.0  0.54101  0.09307  0.54830  1.0000
  C   C2445     1.0  0.55185  0.08191  0.47323  1.0000
  C   C2446     1.0  0.64418  0.10370  0.37597  1.0000
  S   S333      1.0  0.69656  0.08793  0.34203  1.0000
  C   C2447     1.0  0.68210  0.08637  0.41386  1.0000
  C   C2448     1.0  0.73409  0.09490  0.33392  1.0000
  H   H1969     1.0  0.63815  0.11618  0.42853  1.0000
  H   H1970     1.0  0.53586  0.05895  0.34600  1.0000
  C   C2449     1.0  0.60401  0.02866  0.47106  1.0000
  C   C2450     1.0  0.53705  0.03937  0.48093  1.0000
  H   H1971     1.0  0.55334  0.08794  0.64712  1.0000
  H   H1972     1.0  0.66707  0.07104  0.36865  1.0000
  C   C2451     1.0  0.53320  0.02173  0.51675  1.0000
  H   H1973     1.0  0.59970  0.08010  0.53959  1.0000
  C   C2452     1.0  0.65713  0.11933  0.34735  1.0000
  H   H1974     1.0  0.66260  0.01410  0.38922  1.0000
  H   H1975     1.0  0.57596  0.02254  0.44023  1.0000
  H   H1976     1.0  0.54037  0.01407  0.56375  1.0000
  Fe  Fe168     1.0  0.50236  0.03663  0.57026  1.0000
  H   H1977     1.0  0.63636  0.13965  0.63048  1.0000
  C   C2453     1.0  0.66185  0.06097  0.37937  1.0000
  H   H1978     1.0  0.58002  0.11283  0.61598  1.0000
  H   H1979     1.0  0.54393  0.01560  0.43530  1.0000
  H   H1980     1.0  0.54151  0.10197  0.49281  1.0000
  C   C2454     1.0  0.54305  0.09883  0.47851  1.0000
  C   C2455     1.0  0.58591  0.08053  0.53475  1.0000
  Fe  Fe169     1.0  0.49973  0.07360  0.42631  1.0000
  H   H1981     1.0  0.61124  0.07609  0.40167  1.0000
  C   C2456     1.0  0.54417  0.03680  0.51317  1.0000
  C   C2457     1.0  0.73759  0.09598  0.64547  1.0000
  C   C2458     1.0  0.52439  0.01531  0.50243  1.0000
  C   C2459     1.0  0.64575  0.05336  0.40929  1.0000
  C   C2460     1.0  0.52622  0.02418  0.48452  1.0000
  C   C2461     1.0  0.61227  0.06003  0.46172  1.0000
  C   C2462     1.0  0.59384  0.01511  0.37839  1.0000
  H   H1982     1.0  0.60911  0.12320  0.44732  1.0000
  C   C2463     1.0  0.60971  0.11281  0.43742  1.0000
  H   H1983     1.0  0.50373  0.06544  0.47532  1.0000
  C   C2464     1.0  0.71841  0.09747  0.64297  1.0000
  H   H1984     1.0  0.71981  0.12575  0.60250  1.0000
  H   H1985     1.0  0.52959  0.11793  0.43654  1.0000
  C   C2465     1.0  0.49388  0.09429  0.47089  1.0000
  C   C2466     1.0  0.53909  0.08471  0.65049  1.0000
  H   H1986     1.0  0.72029  0.08054  0.59877  1.0000
  P   P80       1.0  0.56140  0.06443  0.49016  1.0000
  C   C2467     1.0  0.59388  0.10375  0.43512  1.0000
  C   C2468     1.0  0.72490  0.11749  0.61452  1.0000
  H   H1987     1.0  0.68860  0.13922  0.41090  1.0000
  C   C2469     1.0  0.59463  0.09034  0.42238  1.0000
  H   H1988     1.0  0.55993  0.06572  0.44977  1.0000
  C   C2470     1.0  0.62425  0.11557  0.35140  1.0000
  H   H1989     1.0  0.71302  0.05969  0.62696  1.0000
  H   H1990     1.0  0.53831  0.04599  0.46703  1.0000
  C   C2471     1.0  0.66572  0.04204  0.37721  1.0000
  H   H1991     1.0  0.68081  0.07156  0.41444  1.0000
  C   C2472     1.0  0.59569  0.06707  0.47053  1.0000
  H   H1992     1.0  0.62189  0.06951  0.45475  1.0000
  C   C2473     1.0  0.73825  0.10659  0.36913  1.0000
  H   H1993     1.0  0.51601  0.00357  0.50530  1.0000
  H   H1994     1.0  0.67335  0.10782  0.36957  1.0000
  C   C2474     1.0  0.55287  0.08779  0.53975  1.0000
  C   C2475     1.0  0.62652  0.10638  0.36899  1.0000
  C   C2476     1.0  0.58738  0.03568  0.47984  1.0000
  S   S334      1.0  0.65398  0.06601  0.65020  1.0000
  C   C2477     1.0  0.72595  0.05721  0.61864  1.0000
  Fe  Fe170     1.0  0.49321  0.05865  0.38934  1.0000
  H   H1995     1.0  0.49790  0.00558  0.59740  1.0000
  C   C2478     1.0  0.70074  0.11165  0.41826  1.0000
  H   H1996     1.0  0.54839  0.01292  0.59605  1.0000
  C   C2479     1.0  0.60548  0.00216  0.64290  1.0000
  C   C2480     1.0  0.66400  0.13572  0.63983  1.0000
  C   C2481     1.0  0.73886  0.04282  0.62430  1.0000
  C   C2482     1.0  0.53760  0.04575  0.33990  1.0000
  C   C2483     1.0  0.55533  0.03700  0.33670  1.0000
  C   C2484     1.0  0.64526  0.14199  0.64126  1.0000
  C   C2485     1.0  0.51625  0.02336  0.64855  1.0000
  H   H1997     1.0  0.50832  0.04427  0.33797  1.0000
  H   H1998     1.0  0.73966  0.11106  0.38273  1.0000
  H   H1999     1.0  0.49968  0.99996  0.65453  1.0000
  H   H2000     1.0  0.62050  0.00880  0.33069  1.0000
  H   H2001     1.0  0.69563  0.16756  0.65170  1.0000
  C   C2486     1.0  0.72262  0.17597  0.65514  1.0000
  H   H2002     1.0  0.72466  0.18153  0.64078  1.0000
  H   H2003     1.0  0.60907  0.00662  0.65590  1.0000
  C   C2487     1.0  0.52418  0.02044  0.32757  1.0000
  C   C2488     1.0  0.54367  0.99783  0.63404  1.0000
  C   C2489     1.0  0.54993  0.00022  0.58912  1.0000
  H   H2004     1.0  0.68966  0.13230  0.65312  1.0000
  P   P81       1.0  0.58050  0.00806  0.32571  1.0000
  H   H2005     1.0  0.63792  0.12844  0.32669  1.0000
  H   H2006     1.0  0.63188  0.00785  0.62891  1.0000
  C   C2490     1.0  0.58807  0.99572  0.64143  1.0000
  C   C2491     1.0  0.67532  0.13790  0.65413  1.0000
  C   C2492     1.0  0.61838  0.00289  0.62760  1.0000
  H   H2007     1.0  0.50545  0.03333  0.65349  1.0000
  C   C2493     1.0  0.51299  0.00457  0.64906  1.0000
  C   C2494     1.0  0.61387  0.99718  0.61073  1.0000
  H   H2008     1.0  0.62390  0.99776  0.59887  1.0000
  C   C2495     1.0  0.63782  0.15057  0.65695  1.0000
  C   C2496     1.0  0.54189  0.01159  0.32440  1.0000
  H   H2009     1.0  0.57825  0.99521  0.65346  1.0000
  S   S335      1.0  0.57539  0.46212  0.90513  1.0000
  H   H2010     1.0  0.66178  0.12197  0.71198  1.0000
  Fe  Fe171     1.0  0.60603  0.46293  0.89707  1.0000
  S   S336      1.0  0.62628  0.44218  0.88273  1.0000
  H   H2011     1.0  0.52138  0.07052  0.94678  1.0000
  H   H2012     1.0  0.62745  0.45850  0.98528  1.0000
  S   S337      1.0  0.58721  0.11497  0.96348  1.0000
  Fe  Fe172     1.0  0.60217  0.14551  0.85642  1.0000
  S   S338      1.0  0.58369  0.16950  0.86578  1.0000
  S   S339      1.0  0.61001  0.12039  0.87644  1.0000
  Fe  Fe173     1.0  0.60279  0.16092  0.81527  1.0000
  S   S340      1.0  0.58396  0.18638  0.82264  1.0000
  S   S341      1.0  0.61262  0.15793  0.78430  1.0000
  Fe  Fe174     1.0  0.60195  0.18787  0.84671  1.0000
  S   S342      1.0  0.60739  0.21512  0.85949  1.0000
  Fe  Fe175     1.0  0.56739  0.16621  0.84136  1.0000
  S   S343      1.0  0.53697  0.16135  0.84933  1.0000
  S   S344      1.0  0.62160  0.16363  0.83835  1.0000
  S   S345      1.0  0.58514  0.14103  0.83284  1.0000
  H   H2013     1.0  0.54679  0.14941  0.74060  1.0000
  S   S346      1.0  0.62152  0.07014  0.68434  1.0000
  H   H2014     1.0  0.53875  0.16730  0.90445  1.0000
  C   C2497     1.0  0.71571  0.44790  0.86669  1.0000
  S   S347      1.0  0.66452  0.06305  0.69394  1.0000
  H   H2015     1.0  0.65199  0.17888  0.86011  1.0000
  Fe  Fe176     1.0  0.64540  0.04960  0.67705  1.0000
  S   S348      1.0  0.63549  0.02016  0.67933  1.0000
  Fe  Fe177     1.0  0.64095  0.08487  0.69954  1.0000
  S   S349      1.0  0.63027  0.09251  0.72918  1.0000
  C   C2498     1.0  0.50492  0.47824  0.96686  1.0000
  S   S350      1.0  0.64929  0.10335  0.67409  1.0000
  Fe  Fe178     1.0  0.66141  0.33586  0.90146  1.0000
  S   S351      1.0  0.68837  0.34012  0.91298  1.0000
  S   S352      1.0  0.63563  0.35551  0.90640  1.0000
  Fe  Fe179     1.0  0.67482  0.29688  0.88894  1.0000
  S   S353      1.0  0.70321  0.29890  0.89953  1.0000
  S   S354      1.0  0.66902  0.27071  0.87457  1.0000
  Fe  Fe180     1.0  0.68764  0.31041  0.92485  1.0000
  S   S355      1.0  0.69104  0.29908  0.95502  1.0000
  Fe  Fe181     1.0  0.70204  0.32872  0.88675  1.0000
  S   S356      1.0  0.72234  0.34691  0.86816  1.0000
  S   S357      1.0  0.65970  0.30669  0.91488  1.0000
  S   S358      1.0  0.67463  0.32602  0.87462  1.0000
  H   H2016     1.0  0.56814  0.15178  0.77954  1.0000
  C   C2499     1.0  0.64737  0.99787  0.67731  1.0000
  H   H2017     1.0  0.62418  0.25058  0.92619  1.0000
  C   C2500     1.0  0.69319  0.31158  0.97464  1.0000
  P   P82       1.0  0.67903  0.40437  0.94745  1.0000
  C   C2501     1.0  0.69799  0.33000  0.97286  1.0000
  H   H2018     1.0  0.53804  0.11751  0.93469  1.0000
  H   H2019     1.0  0.70055  0.33699  0.95918  1.0000
  C   C2502     1.0  0.58813  0.12736  0.67841  1.0000
  C   C2503     1.0  0.70362  0.16021  0.67985  1.0000
  C   C2504     1.0  0.52665  0.17264  0.89720  1.0000
  C   C2505     1.0  0.66165  0.45216  0.91652  1.0000
  C   C2506     1.0  0.64463  0.14697  0.97926  1.0000
  C   C2507     1.0  0.61696  0.13947  0.76918  1.0000
  C   C2508     1.0  0.62193  0.14389  0.75016  1.0000
  C   C2509     1.0  0.62606  0.12988  0.73773  1.0000
  C   C2510     1.0  0.62524  0.11107  0.74409  1.0000
  C   C2511     1.0  0.61994  0.10667  0.76303  1.0000
  C   C2512     1.0  0.61585  0.12068  0.77546  1.0000
  H   H2020     1.0  0.62263  0.15832  0.74500  1.0000
  H   H2021     1.0  0.62982  0.13367  0.72324  1.0000
  H   H2022     1.0  0.61916  0.09225  0.76820  1.0000
  H   H2023     1.0  0.61204  0.11692  0.78995  1.0000
  C   C2513     1.0  0.62494  0.23011  0.86382  1.0000
  C   C2514     1.0  0.64351  0.22735  0.85710  1.0000
  C   C2515     1.0  0.65666  0.23980  0.86061  1.0000
  C   C2516     1.0  0.65163  0.25526  0.87094  1.0000
  C   C2517     1.0  0.63309  0.25789  0.87787  1.0000
  C   C2518     1.0  0.61993  0.24546  0.87432  1.0000
  H   H2024     1.0  0.64774  0.21573  0.84901  1.0000
  H   H2025     1.0  0.67089  0.23748  0.85517  1.0000
  H   H2026     1.0  0.62890  0.26950  0.88599  1.0000
  H   H2027     1.0  0.60569  0.24779  0.87972  1.0000
  C   C2519     1.0  0.51609  0.16739  0.83823  1.0000
  C   C2520     1.0  0.51424  0.18249  0.82489  1.0000
  C   C2521     1.0  0.56543  0.18138  0.78006  1.0000
  H   H2028     1.0  0.52603  0.19043  0.82057  1.0000
  H   H2029     1.0  0.53505  0.08932  0.98874  1.0000
  C   C2522     1.0  0.58182  0.46529  0.97676  1.0000
  Fe  Fe182     1.0  0.58216  0.47301  0.93157  1.0000
  H   H2030     1.0  0.67773  0.22499  0.91021  1.0000
  C   C2523     1.0  0.59260  0.11567  0.93914  1.0000
  C   C2524     1.0  0.60232  0.10077  0.93081  1.0000
  C   C2525     1.0  0.60736  0.10237  0.91157  1.0000
  C   C2526     1.0  0.60271  0.11882  0.90047  1.0000
  C   C2527     1.0  0.59272  0.13360  0.90878  1.0000
  C   C2528     1.0  0.58767  0.13201  0.92799  1.0000
  H   H2031     1.0  0.60635  0.08819  0.93924  1.0000
  H   H2032     1.0  0.61514  0.09089  0.90530  1.0000
  H   H2033     1.0  0.58911  0.14637  0.90050  1.0000
  H   H2034     1.0  0.58014  0.14362  0.93428  1.0000
  C   C2529     1.0  0.63025  0.41862  0.89140  1.0000
  C   C2530     1.0  0.61860  0.41044  0.90555  1.0000
  C   C2531     1.0  0.62081  0.39113  0.91042  1.0000
  C   C2532     1.0  0.63493  0.37995  0.90155  1.0000
  C   C2533     1.0  0.64716  0.38829  0.88807  1.0000
  C   C2534     1.0  0.64478  0.40755  0.88301  1.0000
  H   H2035     1.0  0.60739  0.41882  0.91214  1.0000
  H   H2036     1.0  0.61121  0.38475  0.92075  1.0000
  H   H2037     1.0  0.65805  0.37979  0.88116  1.0000
  H   H2038     1.0  0.65396  0.41386  0.87223  1.0000
  H   H2039     1.0  0.58747  0.10376  0.73295  1.0000
  H   H2040     1.0  0.66080  0.16316  0.75247  1.0000
  H   H2041     1.0  0.67499  0.39082  0.91150  1.0000
  H   H2042     1.0  0.72013  0.39835  0.94480  1.0000
  H   H2043     1.0  0.51032  0.09987  0.96737  1.0000
  H   H2044     1.0  0.67096  0.42432  0.91106  1.0000
  H   H2045     1.0  0.63841  0.41003  0.95367  1.0000
  C   C2535     1.0  0.64176  0.18008  0.88864  1.0000
  C   C2536     1.0  0.52726  0.17885  0.77974  1.0000
  C   C2537     1.0  0.53431  0.19615  0.78029  1.0000
  C   C2538     1.0  0.55339  0.19742  0.78051  1.0000
  H   H2046     1.0  0.55255  0.10403  0.78331  1.0000
  H   H2047     1.0  0.51242  0.17836  0.77974  1.0000
  H   H2048     1.0  0.52492  0.20856  0.78083  1.0000
  H   H2049     1.0  0.55886  0.21078  0.78117  1.0000
  C   C2539     1.0  0.68048  0.09786  0.71699  1.0000
  S   S359      1.0  0.59667  0.02028  0.97749  1.0000
  H   H2050     1.0  0.55050  0.01697  0.93928  1.0000
  C   C2540     1.0  0.57977  0.09755  0.69302  1.0000
  H   H2051     1.0  0.64582  0.19403  0.74254  1.0000
  H   H2052     1.0  0.52967  0.44649  0.94066  1.0000
  P   P83       1.0  0.54767  0.08104  0.68746  1.0000
  C   C2541     1.0  0.56068  0.05874  0.68748  1.0000
  C   C2542     1.0  0.53533  0.08496  0.70948  1.0000
  C   C2543     1.0  0.55285  0.13584  0.74552  1.0000
  H   H2053     1.0  0.66465  0.43582  0.96872  1.0000
  P   P84       1.0  0.51151  0.13940  0.91061  1.0000
  C   C2544     1.0  0.51914  0.09701  0.71020  1.0000
  S   S360      1.0  0.70307  0.08533  0.65967  1.0000
  H   H2054     1.0  0.64279  0.15876  0.68359  1.0000
  C   C2545     1.0  0.72756  0.38710  0.91875  1.0000
  C   C2546     1.0  0.57594  0.11019  0.74113  1.0000
  H   H2055     1.0  0.74179  0.37369  0.84420  1.0000
  C   C2547     1.0  0.70619  0.16783  0.66137  1.0000
  C   C2548     1.0  0.56707  0.12709  0.73452  1.0000
  C   C2549     1.0  0.51391  0.00710  0.94562  1.0000
  H   H2056     1.0  0.72440  0.09176  0.69742  1.0000
  C   C2550     1.0  0.64908  0.15282  0.67127  1.0000
  H   H2057     1.0  0.58315  0.08531  0.70226  1.0000
  H   H2058     1.0  0.65405  0.46829  0.95920  1.0000
  S   S361      1.0  0.56939  0.06648  0.98257  1.0000
  H   H2059     1.0  0.60650  0.45699  0.96031  1.0000
  H   H2060     1.0  0.53375  0.03575  0.98073  1.0000
  C   C2551     1.0  0.71304  0.44424  0.88594  1.0000
  C   C2552     1.0  0.51941  0.48555  0.89311  1.0000
  C   C2553     1.0  0.53937  0.12020  0.83175  1.0000
  C   C2554     1.0  0.49574  0.16945  0.88810  1.0000
  C   C2555     1.0  0.72124  0.38136  0.90265  1.0000
  C   C2556     1.0  0.71493  0.39451  0.93224  1.0000
  C   C2557     1.0  0.62803  0.31942  0.86596  1.0000
  C   C2558     1.0  0.61981  0.30816  0.85485  1.0000
  C   C2559     1.0  0.61375  0.31554  0.83767  1.0000
  C   C2560     1.0  0.61610  0.33415  0.83149  1.0000
  C   C2561     1.0  0.62464  0.34548  0.84248  1.0000
  C   C2562     1.0  0.63047  0.33798  0.85980  1.0000
  P   P85       1.0  0.62904  0.36918  0.83428  1.0000
  C   C2563     1.0  0.65311  0.37239  0.83703  1.0000
  C   C2564     1.0  0.62485  0.37323  0.80996  1.0000
  C   C2565     1.0  0.63947  0.37145  0.79621  1.0000
  C   C2566     1.0  0.63599  0.37438  0.77742  1.0000
  C   C2567     1.0  0.61792  0.37901  0.77223  1.0000
  C   C2568     1.0  0.60328  0.38066  0.78583  1.0000
  C   C2569     1.0  0.60671  0.37774  0.80463  1.0000
  C   C2570     1.0  0.65864  0.38986  0.84030  1.0000
  C   C2571     1.0  0.67723  0.39211  0.84280  1.0000
  C   C2572     1.0  0.69045  0.37701  0.84188  1.0000
  C   C2573     1.0  0.68515  0.35970  0.83823  1.0000
  C   C2574     1.0  0.66658  0.35738  0.83576  1.0000
  C   C2575     1.0  0.61420  0.38577  0.84689  1.0000
  C   C2576     1.0  0.60587  0.38069  0.86456  1.0000
  C   C2577     1.0  0.59516  0.39393  0.87444  1.0000
  C   C2578     1.0  0.59287  0.41236  0.86691  1.0000
  C   C2579     1.0  0.60091  0.41751  0.84928  1.0000
  C   C2580     1.0  0.61144  0.40426  0.83924  1.0000
  H   H2061     1.0  0.63286  0.31365  0.87924  1.0000
  H   H2062     1.0  0.61834  0.29365  0.85946  1.0000
  H   H2063     1.0  0.60749  0.30671  0.82905  1.0000
  H   H2064     1.0  0.61155  0.33941  0.81803  1.0000
  H   H2065     1.0  0.63719  0.34643  0.86843  1.0000
  H   H2066     1.0  0.65355  0.36774  0.79990  1.0000
  H   H2067     1.0  0.64733  0.37300  0.76686  1.0000
  H   H2068     1.0  0.61525  0.38125  0.75765  1.0000
  H   H2069     1.0  0.58926  0.38416  0.78179  1.0000
  H   H2070     1.0  0.59520  0.37890  0.81502  1.0000
  H   H2071     1.0  0.64865  0.40170  0.84136  1.0000
  H   H2072     1.0  0.68130  0.40549  0.84580  1.0000
  C   C2581     1.0  0.58095  0.02407  0.68679  1.0000
  H   H2073     1.0  0.60487  0.10996  0.69741  1.0000
  H   H2074     1.0  0.66278  0.34375  0.83318  1.0000
  H   H2075     1.0  0.60800  0.36673  0.87112  1.0000
  H   H2076     1.0  0.58930  0.39006  0.88831  1.0000
  H   H2077     1.0  0.58551  0.42279  0.87505  1.0000
  H   H2078     1.0  0.59954  0.43193  0.84371  1.0000
  H   H2079     1.0  0.61794  0.40862  0.82577  1.0000
  C   C2582     1.0  0.66803  0.14680  0.66981  1.0000
  C   C2583     1.0  0.51162  0.15751  0.94285  1.0000
  H   H2080     1.0  0.70455  0.45481  0.85893  1.0000
  H   H2081     1.0  0.67494  0.00708  0.67456  1.0000
  C   C2584     1.0  0.52607  0.44221  0.86874  1.0000
  H   H2082     1.0  0.51213  0.20979  0.86822  1.0000
  C   C2585     1.0  0.52295  0.43655  0.91508  1.0000
  C   C2586     1.0  0.73379  0.16971  0.68584  1.0000
  C   C2587     1.0  0.58722  0.03947  0.67581  1.0000
  H   H2083     1.0  0.66411  0.18636  0.68578  1.0000
  C   C2588     1.0  0.52514  0.47013  0.84734  1.0000
  C   C2589     1.0  0.54501  0.44394  0.87038  1.0000
  C   C2590     1.0  0.55386  0.45871  0.86071  1.0000
  C   C2591     1.0  0.54391  0.47185  0.84926  1.0000
  H   H2084     1.0  0.69982  0.44827  0.89307  1.0000
  H   H2085     1.0  0.67762  0.14392  0.72958  1.0000
  H   H2086     1.0  0.58221  0.06845  0.66739  1.0000
  C   C2592     1.0  0.54159  0.39900  0.86561  1.0000
  C   C2593     1.0  0.55380  0.38301  0.86538  1.0000
  C   C2594     1.0  0.55510  0.37069  0.88133  1.0000
  H   H2087     1.0  0.62306  0.12965  0.97424  1.0000
  H   H2088     1.0  0.52626  0.01049  0.91748  1.0000
  C   C2595     1.0  0.50054  0.15738  0.84396  1.0000
  C   C2596     1.0  0.65422  0.19217  0.71350  1.0000
  H   H2089     1.0  0.53622  0.43964  0.90818  1.0000
  H   H2090     1.0  0.49432  0.15044  0.79652  1.0000
  C   C2597     1.0  0.52143  0.00074  0.92870  1.0000
  C   C2598     1.0  0.57709  0.05671  0.67605  1.0000
  C   C2599     1.0  0.68654  0.39066  0.98373  1.0000
  H   H2091     1.0  0.55290  0.43407  0.87940  1.0000
  H   H2092     1.0  0.56831  0.46036  0.86248  1.0000
  C   C2600     1.0  0.56352  0.09915  0.68347  1.0000
  H   H2093     1.0  0.72546  0.43286  0.91096  1.0000
  C   C2601     1.0  0.59830  0.99674  0.98702  1.0000
  H   H2094     1.0  0.54075  0.40843  0.85313  1.0000
  H   H2095     1.0  0.56242  0.38027  0.85291  1.0000
  C   C2602     1.0  0.60089  0.46129  0.97353  1.0000
  H   H2096     1.0  0.61746  0.42510  0.97684  1.0000
  C   C2603     1.0  0.52479  0.10340  0.90326  1.0000
  H   H2097     1.0  0.51573  0.13837  0.74131  1.0000
  C   C2604     1.0  0.52857  0.12760  0.80087  1.0000
  C   C2605     1.0  0.65730  0.46474  0.92998  1.0000
  C   C2606     1.0  0.65631  0.20617  0.91791  1.0000
  C   C2607     1.0  0.62599  0.22064  0.92682  1.0000
  H   H2098     1.0  0.52882  0.47732  0.90202  1.0000
  C   C2608     1.0  0.59208  0.11156  0.69040  1.0000
  C   C2609     1.0  0.69812  0.08930  0.71301  1.0000
  H   H2099     1.0  0.51156  0.17162  0.96774  1.0000
  H   H2100     1.0  0.52328  0.39268  0.91032  1.0000
  C   C2610     1.0  0.64222  0.39529  0.95359  1.0000
  H   H2101     1.0  0.55928  0.01379  0.70601  1.0000
  H   H2102     1.0  0.51727  0.48066  0.83893  1.0000
  C   C2611     1.0  0.55377  0.09559  0.88575  1.0000
  H   H2103     1.0  0.65974  0.45659  0.90205  1.0000
  C   C2612     1.0  0.70233  0.38319  0.89991  1.0000
  S   S362      1.0  0.61278  0.47121  0.92450  1.0000
  H   H2104     1.0  0.70381  0.42939  0.96070  1.0000
  H   H2105     1.0  0.51359  0.48371  0.93782  1.0000
  C   C2613     1.0  0.70646  0.11685  0.69367  1.0000
  C   C2614     1.0  0.54276  0.07746  0.72610  1.0000
  C   C2615     1.0  0.55639  0.11446  0.88194  1.0000
  C   C2616     1.0  0.68887  0.12570  0.69792  1.0000
  H   H2106     1.0  0.62212  0.35412  0.95764  1.0000
  C   C2617     1.0  0.52690  0.18986  0.88673  1.0000
  C   C2618     1.0  0.56425  0.02582  0.69771  1.0000
  H   H2107     1.0  0.65724  0.25323  0.91565  1.0000
  C   C2619     1.0  0.50278  0.07454  0.65836  1.0000
  H   H2108     1.0  0.49651  0.46815  0.90032  1.0000
  H   H2109     1.0  0.58023  0.18238  0.78024  1.0000
  H   H2110     1.0  0.56472  0.35840  0.88120  1.0000
  H   H2111     1.0  0.65648  0.18548  0.95205  1.0000
  C   C2620     1.0  0.55846  0.16403  0.77966  1.0000
  P   P86       1.0  0.53047  0.14013  0.77814  1.0000
  C   C2621     1.0  0.63290  0.36374  0.95592  1.0000
  C   C2622     1.0  0.51928  0.44044  0.93359  1.0000
  H   H2112     1.0  0.55573  0.06887  0.72588  1.0000
  H   H2113     1.0  0.52536  0.09938  0.84923  1.0000
  C   C2623     1.0  0.66790  0.43377  0.92175  1.0000
  H   H2114     1.0  0.66541  0.19396  0.91514  1.0000
  C   C2624     1.0  0.53927  0.16259  0.77949  1.0000
  H   H2115     1.0  0.51052  0.09625  0.75709  1.0000
  H   H2116     1.0  0.50473  0.39383  0.85953  1.0000
  C   C2625     1.0  0.64894  0.17345  0.95675  1.0000
  C   C2626     1.0  0.63750  0.20451  0.92359  1.0000
  H   H2117     1.0  0.57978  0.03201  0.93338  1.0000
  H   H2118     1.0  0.49550  0.02513  0.91404  1.0000
  C   C2627     1.0  0.63444  0.16856  0.94685  1.0000
  C   C2628     1.0  0.62523  0.15265  0.95333  1.0000
  P   P87       1.0  0.62817  0.18194  0.92557  1.0000
  C   C2629     1.0  0.60328  0.18529  0.92476  1.0000
  C   C2630     1.0  0.59559  0.19060  0.90773  1.0000
  C   C2631     1.0  0.57642  0.19374  0.90689  1.0000
  C   C2632     1.0  0.56469  0.19140  0.92301  1.0000
  C   C2633     1.0  0.57221  0.18623  0.94007  1.0000
  C   C2634     1.0  0.59145  0.18345  0.94101  1.0000
  C   C2635     1.0  0.63733  0.16992  0.90567  1.0000
  C   C2636     1.0  0.63959  0.15041  0.90676  1.0000
  C   C2637     1.0  0.64650  0.14130  0.89122  1.0000
  C   C2638     1.0  0.65117  0.15152  0.87447  1.0000
  C   C2639     1.0  0.64883  0.17092  0.87321  1.0000
  H   H2119     1.0  0.71647  0.12355  0.68401  1.0000
  C   C2640     1.0  0.50219  0.43680  0.94289  1.0000
  H   H2120     1.0  0.61419  0.14837  0.94585  1.0000
  H   H2121     1.0  0.60438  0.19250  0.89504  1.0000
  H   H2122     1.0  0.57080  0.19801  0.89361  1.0000
  H   H2123     1.0  0.54982  0.19370  0.92229  1.0000
  H   H2124     1.0  0.56315  0.18440  0.95258  1.0000
  H   H2125     1.0  0.59697  0.17989  0.95441  1.0000
  H   H2126     1.0  0.63570  0.14207  0.91935  1.0000
  H   H2127     1.0  0.64764  0.12623  0.89198  1.0000
  H   H2128     1.0  0.65607  0.14437  0.86234  1.0000
  C   C2641     1.0  0.49601  0.18671  0.87774  1.0000
  H   H2129     1.0  0.57785  0.08912  0.76393  1.0000
  C   C2642     1.0  0.50745  0.14370  0.76979  1.0000
  C   C2643     1.0  0.65180  0.23964  0.91826  1.0000
  H   H2130     1.0  0.61142  0.21985  0.93099  1.0000
  C   C2644     1.0  0.66080  0.38866  0.95040  1.0000
  H   H2131     1.0  0.60013  0.03815  0.66726  1.0000
  H   H2132     1.0  0.53599  0.07540  0.89942  1.0000
  C   C2645     1.0  0.66429  0.44026  0.95406  1.0000
  H   H2133     1.0  0.51365  0.10362  0.69755  1.0000
  C   C2646     1.0  0.51932  0.03502  0.98564  1.0000
  H   H2134     1.0  0.63946  0.19510  0.88710  1.0000
  H   H2135     1.0  0.61397  0.38799  0.95872  1.0000
  C   C2647     1.0  0.53178  0.39021  0.89772  1.0000
  C   C2648     1.0  0.51469  0.10372  0.82206  1.0000
  C   C2649     1.0  0.53370  0.08137  0.74320  1.0000
  H   H2136     1.0  0.55085  0.08526  0.93999  1.0000
  C   C2650     1.0  0.51594  0.11381  0.80466  1.0000
  C   C2651     1.0  0.54711  0.12753  0.76309  1.0000
  C   C2652     1.0  0.53239  0.08090  0.66901  1.0000
  C   C2653     1.0  0.69584  0.39617  0.92969  1.0000
  H   H2137     1.0  0.50458  0.09348  0.82508  1.0000
  C   C2654     1.0  0.66337  0.22367  0.91516  1.0000
  H   H2138     1.0  0.58405  0.42111  0.97565  1.0000
  C   C2655     1.0  0.61048  0.41625  0.98753  1.0000
  Fe  Fe183     1.0  0.67187  0.08099  0.66727  1.0000
  H   H2139     1.0  0.70152  0.07511  0.71852  1.0000
  P   P88       1.0  0.51468  0.42335  0.88188  1.0000
  C   C2656     1.0  0.56682  0.04038  0.93557  1.0000
  C   C2657     1.0  0.56699  0.05964  0.93558  1.0000
  C   C2658     1.0  0.55051  0.07040  0.93940  1.0000
  C   C2659     1.0  0.53382  0.06194  0.94316  1.0000
  C   C2660     1.0  0.53342  0.04260  0.94282  1.0000
  C   C2661     1.0  0.55013  0.03189  0.93908  1.0000
  H   H2140     1.0  0.49753  0.11002  0.72774  1.0000
  H   H2141     1.0  0.50187  0.14569  0.85431  1.0000
  C   C2662     1.0  0.49368  0.41923  0.87142  1.0000
  H   H2142     1.0  0.66525  0.16648  0.98040  1.0000
  C   C2663     1.0  0.63315  0.23812  0.92416  1.0000
  H   H2143     1.0  0.56878  0.11880  0.87390  1.0000
  H   H2144     1.0  0.56420  0.08532  0.88067  1.0000
  C   C2664     1.0  0.68967  0.39035  0.91345  1.0000
  H   H2145     1.0  0.54832  0.12287  0.84233  1.0000
  H   H2146     1.0  0.70411  0.35326  0.98728  1.0000
  C   C2665     1.0  0.50194  0.48194  0.94796  1.0000
  H   H2147     1.0  0.54734  0.12141  0.96581  1.0000
  C   C2666     1.0  0.53731  0.13148  0.95943  1.0000
  H   H2148     1.0  0.64782  0.20578  0.70920  1.0000
  C   C2667     1.0  0.67573  0.11583  0.70920  1.0000
  P   P89       1.0  0.51191  0.03176  0.94900  1.0000
  C   C2668     1.0  0.49434  0.04443  0.93532  1.0000
  C   C2669     1.0  0.61272  0.46191  0.98775  1.0000
  H   H2149     1.0  0.57998  0.06618  0.93318  1.0000
  S   S363      1.0  0.56705  0.46446  0.95888  1.0000
  H   H2150     1.0  0.71560  0.15582  0.70644  1.0000
  C   C2670     1.0  0.65137  0.35707  0.95266  1.0000
  C   C2671     1.0  0.66528  0.36945  0.94998  1.0000
  C   C2672     1.0  0.51007  0.10083  0.72731  1.0000
  C   C2673     1.0  0.55608  0.11047  0.76957  1.0000
  H   H2151     1.0  0.55056  0.48375  0.84241  1.0000
  H   H2152     1.0  0.69742  0.37822  0.88765  1.0000
  C   C2674     1.0  0.62833  0.38283  0.95648  1.0000
  C   C2675     1.0  0.67132  0.16327  0.70572  1.0000
  H   H2153     1.0  0.55031  0.14107  0.81202  1.0000
  H   H2154     1.0  0.69540  0.34792  0.83785  1.0000
  H   H2155     1.0  0.54102  0.04420  0.70630  1.0000
  C   C2676     1.0  0.55403  0.04309  0.69796  1.0000
  H   H2156     1.0  0.73595  0.39847  0.80908  1.0000
  C   C2677     1.0  0.68976  0.40443  0.96915  1.0000
  P   P90       1.0  0.68281  0.14913  0.68829  1.0000
  C   C2678     1.0  0.57047  0.10191  0.75863  1.0000
  C   C2679     1.0  0.65318  0.18564  0.73228  1.0000
  H   H2157     1.0  0.56007  0.00359  0.96764  1.0000
  C   C2680     1.0  0.51624  0.45540  0.85700  1.0000
  C   C2681     1.0  0.67091  0.15717  0.72473  1.0000
  C   C2682     1.0  0.72749  0.43554  0.89601  1.0000
  C   C2683     1.0  0.51122  0.16207  0.89767  1.0000
  H   H2158     1.0  0.50241  0.99814  0.97335  1.0000
  C   C2684     1.0  0.73642  0.17691  0.66735  1.0000
  C   C2685     1.0  0.52740  0.12245  0.89960  1.0000
  H   H2159     1.0  0.67953  0.36401  0.94755  1.0000
  C   C2686     1.0  0.71107  0.09876  0.70129  1.0000
  C   C2687     1.0  0.51736  0.09304  0.74381  1.0000
  C   C2688     1.0  0.66339  0.18111  0.70029  1.0000
  H   H2160     1.0  0.67030  0.09036  0.72578  1.0000
  H   H2161     1.0  0.65250  0.47903  0.92591  1.0000
  C   C2689     1.0  0.54043  0.13056  0.81449  1.0000
  C   C2690     1.0  0.70111  0.41864  0.97176  1.0000
  C   C2691     1.0  0.73272  0.44260  0.85747  1.0000
  C   C2692     1.0  0.57170  0.12935  0.66931  1.0000
  H   H2162     1.0  0.50688  0.11101  0.79426  1.0000
  H   H2163     1.0  0.65492  0.34228  0.95192  1.0000
  H   H2164     1.0  0.51896  0.47749  0.97114  1.0000
  C   C2693     1.0  0.50440  0.14214  0.75113  1.0000
  C   C2694     1.0  0.66991  0.42782  0.94054  1.0000
  H   H2165     1.0  0.50913  0.07121  0.68688  1.0000
  C   C2695     1.0  0.53053  0.40275  0.88180  1.0000
  C   C2696     1.0  0.53191  0.12926  0.94174  1.0000
  C   C2697     1.0  0.65824  0.45869  0.94876  1.0000
  C   C2698     1.0  0.51890  0.14219  0.93336  1.0000
  H   H2166     1.0  0.49554  0.19953  0.80741  1.0000
  Fe  Fe184     1.0  0.63110  0.08713  0.65864  1.0000
  C   C2699     1.0  0.65398  0.16269  0.97289  1.0000
  H   H2167     1.0  0.73464  0.44574  0.84257  1.0000
  C   C2700     1.0  0.51429  0.07529  0.67283  1.0000
  C   C2701     1.0  0.70893  0.41913  0.98873  1.0000
  C   C2702     1.0  0.50672  0.09381  0.98125  1.0000
  C   C2703     1.0  0.50959  0.42886  0.90571  1.0000
  H   H2168     1.0  0.53956  0.07559  0.75598  1.0000
  C   C2704     1.0  0.53791  0.09005  0.89629  1.0000
  H   H2169     1.0  0.70478  0.37856  0.84427  1.0000
  H   H2170     1.0  0.54584  0.14229  0.88565  1.0000
  C   C2705     1.0  0.50808  0.99398  0.96002  1.0000
  C   C2706     1.0  0.54327  0.12784  0.88876  1.0000
  H   H2171     1.0  0.53917  0.19750  0.88559  1.0000
  C   C2707     1.0  0.51165  0.19681  0.87689  1.0000
  C   C2708     1.0  0.51717  0.15976  0.96051  1.0000
  C   C2709     1.0  0.63025  0.14196  0.96947  1.0000
  H   H2172     1.0  0.59795  0.13793  0.67600  1.0000
  C   C2710     1.0  0.52639  0.10696  0.83564  1.0000
  C   C2711     1.0  0.59166  0.41386  0.98681  1.0000
  H   H2173     1.0  0.74221  0.38528  0.92102  1.0000
  H   H2174     1.0  0.50159  0.45485  0.85561  1.0000
  C   C2712     1.0  0.49293  0.40382  0.86114  1.0000
  C   C2713     1.0  0.52995  0.14670  0.96883  1.0000
  H   H2175     1.0  0.54513  0.36473  0.90983  1.0000
  H   H2176     1.0  0.57169  0.13371  0.72114  1.0000
  C   C2714     1.0  0.66165  0.16822  0.73788  1.0000
  C   C2715     1.0  0.70004  0.33917  0.98883  1.0000
  C   C2716     1.0  0.54410  0.37429  0.89748  1.0000
  Fe  Fe185     1.0  0.58862  0.08895  0.98381  1.0000
  H   H2177     1.0  0.50160  0.16765  0.93658  1.0000
  C   C2717     1.0  0.50559  0.03399  0.97327  1.0000
  H   H2178     1.0  0.73087  0.37490  0.89254  1.0000
  H   H2179     1.0  0.67811  0.37937  0.98215  1.0000
  C   C2718     1.0  0.50104  0.48047  0.89227  1.0000
  H   H2180     1.0  0.51287  0.09885  0.91190  1.0000
  H   H2181     1.0  0.54658  0.11728  0.66493  1.0000
  C   C2719     1.0  0.71745  0.16142  0.69209  1.0000
  H   H2182     1.0  0.53426  0.14836  0.98251  1.0000
  C   C2720     1.0  0.49691  0.18767  0.81756  1.0000
  H   H2183     1.0  0.52088  0.44560  0.98606  1.0000
  H   H2184     1.0  0.58913  0.01084  0.68683  1.0000
  C   C2721     1.0  0.55928  0.11541  0.67201  1.0000
  C   C2722     1.0  0.66671  0.99524  0.67514  1.0000
  H   H2185     1.0  0.56876  0.14155  0.65987  1.0000
  H   H2186     1.0  0.73936  0.40860  0.84012  1.0000
  H   H2187     1.0  0.49921  0.44009  0.95712  1.0000
  H   H2188     1.0  0.71760  0.43015  0.99071  1.0000
  H   H2189     1.0  0.62320  0.15504  0.65816  1.0000
  C   C2723     1.0  0.57412  0.72734  0.06870  1.0000
  C   C2724     1.0  0.61243  0.90151  0.05080  1.0000
  H   H2190     1.0  0.55448  0.70916  0.08314  1.0000
  C   C2725     1.0  0.73096  0.72748  0.16301  1.0000
  S   S364      1.0  0.62694  0.51475  0.09386  1.0000
  C   C2726     1.0  0.50060  0.49542  0.06743  1.0000
  S   S365      1.0  0.56346  0.90595  0.00914  1.0000
  H   H2191     1.0  0.58963  0.74796  0.05188  1.0000
  Fe  Fe186     1.0  0.57340  0.87567  0.01227  1.0000
  S   S366      1.0  0.56310  0.85828  0.03830  1.0000
  C   C2727     1.0  0.51658  0.86711  0.06358  1.0000
  S   S367      1.0  0.62407  0.89864  0.27666  1.0000
  H   H2192     1.0  0.73597  0.62859  0.17509  1.0000
  S   S368      1.0  0.66715  0.88428  0.28238  1.0000
  C   C2728     1.0  0.65871  0.80408  0.11923  1.0000
  Fe  Fe187     1.0  0.64862  0.91030  0.28725  1.0000
  S   S369      1.0  0.65669  0.93939  0.27594  1.0000
  Fe  Fe188     1.0  0.64161  0.87183  0.27395  1.0000
  S   S370      1.0  0.64389  0.85614  0.24722  1.0000
  S   S371      1.0  0.63398  0.86028  0.30342  1.0000
  Fe  Fe189     1.0  0.60062  0.80554  0.12669  1.0000
  S   S372      1.0  0.58746  0.77925  0.12391  1.0000
  S   S373      1.0  0.61440  0.81987  0.10065  1.0000
  Fe  Fe190     1.0  0.59175  0.80402  0.16888  1.0000
  S   S374      1.0  0.57760  0.77721  0.16861  1.0000
  S   S375      1.0  0.59081  0.81849  0.19623  1.0000
  Fe  Fe191     1.0  0.60187  0.76776  0.14918  1.0000
  S   S376      1.0  0.61454  0.73747  0.15302  1.0000
  Fe  Fe192     1.0  0.56426  0.79059  0.14311  1.0000
  S   S377      1.0  0.53590  0.78987  0.13144  1.0000
  S   S378      1.0  0.61670  0.79365  0.15112  1.0000
  S   S379      1.0  0.57676  0.81786  0.14433  1.0000
  Fe  Fe193     1.0  0.66774  0.61473  0.09204  1.0000
  S   S380      1.0  0.69726  0.60428  0.08457  1.0000
  S   S381      1.0  0.64132  0.60118  0.08710  1.0000
  Fe  Fe194     1.0  0.67866  0.65357  0.10045  1.0000
  S   S382      1.0  0.70897  0.64554  0.09331  1.0000
  S   S383      1.0  0.67096  0.68456  0.10491  1.0000
  Fe  Fe195     1.0  0.69956  0.63246  0.06892  1.0000
  S   S384      1.0  0.71396  0.63850  0.04016  1.0000
  Fe  Fe196     1.0  0.70458  0.61807  0.10958  1.0000
  S   S385      1.0  0.72295  0.60337  0.13211  1.0000
  S   S386      1.0  0.66983  0.64221  0.07493  1.0000
  S   S387      1.0  0.67448  0.62676  0.11819  1.0000
  H   H2193     1.0  0.63377  0.68431  0.04807  1.0000
  C   C2729     1.0  0.69507  0.76865  0.17933  1.0000
  C   C2730     1.0  0.68958  0.62188  0.02043  1.0000
  C   C2731     1.0  0.70447  0.63304  0.01967  1.0000
  C   C2732     1.0  0.71216  0.63990  0.00219  1.0000
  H   H2194     1.0  0.63991  0.61067  0.04860  1.0000
  C   C2733     1.0  0.65460  0.78549  0.12058  1.0000
  H   H2195     1.0  0.68355  0.61646  0.03375  1.0000
  H   H2196     1.0  0.72369  0.64855  0.00147  1.0000
  H   H2197     1.0  0.60096  0.84659  0.16651  1.0000
  H   H2198     1.0  0.57235  0.93072  0.32341  1.0000
  C   C2734     1.0  0.63333  0.63596  0.99975  1.0000
  C   C2735     1.0  0.66564  0.72821  0.18040  1.0000
  H   H2199     1.0  0.65496  0.81325  0.10720  1.0000
  C   C2736     1.0  0.62924  0.72282  0.13859  1.0000
  C   C2737     1.0  0.63900  0.72973  0.12235  1.0000
  C   C2738     1.0  0.65166  0.71782  0.11232  1.0000
  C   C2739     1.0  0.65426  0.69867  0.11791  1.0000
  C   C2740     1.0  0.64383  0.69157  0.13363  1.0000
  C   C2741     1.0  0.63167  0.70362  0.14404  1.0000
  H   H2200     1.0  0.63705  0.74432  0.11769  1.0000
  H   H2201     1.0  0.65946  0.72349  0.10008  1.0000
  H   H2202     1.0  0.64552  0.67690  0.13810  1.0000
  H   H2203     1.0  0.62415  0.69805  0.15650  1.0000
  C   C2742     1.0  0.51397  0.78579  0.14317  1.0000
  C   C2743     1.0  0.51134  0.78345  0.16254  1.0000
  C   C2744     1.0  0.60580  0.53279  0.99388  1.0000
  H   H2204     1.0  0.52302  0.78367  0.17089  1.0000
  C   C2745     1.0  0.66092  0.68808  0.05585  1.0000
  C   C2746     1.0  0.61731  0.68914  0.09031  1.0000
  C   C2747     1.0  0.56137  0.87665  0.26109  1.0000
  C   C2748     1.0  0.60574  0.82955  0.20978  1.0000
  C   C2749     1.0  0.62446  0.83167  0.20435  1.0000
  C   C2750     1.0  0.63576  0.83991  0.21589  1.0000
  C   C2751     1.0  0.62858  0.84644  0.23296  1.0000
  C   C2752     1.0  0.60977  0.84462  0.23822  1.0000
  C   C2753     1.0  0.59852  0.83622  0.22676  1.0000
  H   H2205     1.0  0.63033  0.82665  0.19142  1.0000
  H   H2206     1.0  0.65024  0.84119  0.21159  1.0000
  H   H2207     1.0  0.60395  0.84945  0.25126  1.0000
  H   H2208     1.0  0.58411  0.83471  0.23120  1.0000
  C   C2754     1.0  0.65362  0.95959  0.30715  1.0000
  C   C2755     1.0  0.65735  0.95968  0.28791  1.0000
  C   C2756     1.0  0.66198  0.97636  0.27773  1.0000
  P   P91       1.0  0.52784  0.97065  0.02180  1.0000
  C   C2757     1.0  0.65088  0.56556  0.99184  1.0000
  C   C2758     1.0  0.72017  0.97467  0.30424  1.0000
  C   C2759     1.0  0.57779  0.84660  0.05484  1.0000
  C   C2760     1.0  0.59712  0.84653  0.05239  1.0000
  C   C2761     1.0  0.60823  0.83823  0.06648  1.0000
  C   C2762     1.0  0.60015  0.82955  0.08292  1.0000
  C   C2763     1.0  0.58089  0.82896  0.08504  1.0000
  C   C2764     1.0  0.56978  0.83762  0.07117  1.0000
  H   H2209     1.0  0.60352  0.85316  0.03981  1.0000
  H   H2210     1.0  0.62313  0.83864  0.06465  1.0000
  H   H2211     1.0  0.57452  0.82209  0.09753  1.0000
  H   H2212     1.0  0.55491  0.83742  0.07325  1.0000
  C   C2765     1.0  0.67335  0.74120  0.16703  1.0000
  H   H2213     1.0  0.64209  0.64448  0.04362  1.0000
  C   C2766     1.0  0.72921  0.53677  0.12832  1.0000
  C   C2767     1.0  0.57971  0.71289  0.14063  1.0000
  C   C2768     1.0  0.63022  0.85142  0.12772  1.0000
  C   C2769     1.0  0.49864  0.86108  0.06409  1.0000
  C   C2770     1.0  0.63083  0.53882  0.09120  1.0000
  C   C2771     1.0  0.64680  0.54461  0.09814  1.0000
  C   C2772     1.0  0.65049  0.56354  0.09655  1.0000
  C   C2773     1.0  0.63805  0.57700  0.08824  1.0000
  C   C2774     1.0  0.62214  0.57121  0.08115  1.0000
  C   C2775     1.0  0.61860  0.55223  0.08252  1.0000
  H   H2214     1.0  0.65635  0.53437  0.10490  1.0000
  H   H2215     1.0  0.66272  0.56775  0.10213  1.0000
  H   H2216     1.0  0.61239  0.58149  0.07476  1.0000
  H   H2217     1.0  0.60625  0.54794  0.07728  1.0000
  H   H2218     1.0  0.70118  0.67805  0.03030  1.0000
  H   H2219     1.0  0.57013  0.67490  0.02306  1.0000
  C   C2776     1.0  0.63220  0.61672  0.00271  1.0000
  C   C2777     1.0  0.66649  0.70943  0.17714  1.0000
  P   P92       1.0  0.59216  0.71995  0.08424  1.0000
  H   H2220     1.0  0.63680  0.66551  0.09577  1.0000
  H   H2221     1.0  0.65752  0.53846  0.05956  1.0000
  H   H2222     1.0  0.66499  0.97655  0.26287  1.0000
  C   C2778     1.0  0.54007  0.97228  0.99919  1.0000
  H   H2223     1.0  0.56769  0.70873  0.02689  1.0000
  C   C2779     1.0  0.54291  0.81433  0.04577  1.0000
  C   C2780     1.0  0.54706  0.79848  0.05768  1.0000
  C   C2781     1.0  0.53478  0.79377  0.07288  1.0000
  C   C2782     1.0  0.51855  0.80511  0.07637  1.0000
  H   H2224     1.0  0.59311  0.65708  0.06151  1.0000
  H   H2225     1.0  0.63315  0.91572  0.06225  1.0000
  C   C2783     1.0  0.56198  0.74814  0.04344  1.0000
  C   C2784     1.0  0.59196  0.93063  0.14682  1.0000
  H   H2226     1.0  0.57818  0.87896  0.07562  1.0000
  H   H2227     1.0  0.64320  0.84548  0.12168  1.0000
  C   C2785     1.0  0.54482  0.74055  0.04667  1.0000
  P   P93       1.0  0.61929  0.54740  0.00556  1.0000
  C   C2786     1.0  0.70740  0.98504  0.31533  1.0000
  C   C2787     1.0  0.49574  0.83026  0.12704  1.0000
  C   C2788     1.0  0.49640  0.80948  0.99475  1.0000
  H   H2228     1.0  0.74098  0.56277  0.19987  1.0000
  H   H2229     1.0  0.69269  0.91868  0.26998  1.0000
  H   H2230     1.0  0.55256  0.81823  0.03415  1.0000
  H   H2231     1.0  0.55992  0.79005  0.05531  1.0000
  H   H2232     1.0  0.53800  0.78158  0.08227  1.0000
  H   H2233     1.0  0.53386  0.88977  0.05632  1.0000
  H   H2234     1.0  0.58466  0.70398  0.15234  1.0000
  C   C2789     1.0  0.58335  0.94602  0.11734  1.0000
  C   C2790     1.0  0.51479  0.82161  0.06507  1.0000
  C   C2791     1.0  0.55755  0.88573  0.27729  1.0000
  S   S388      1.0  0.60275  0.88089  0.00239  1.0000
  H   H2235     1.0  0.51277  0.84917  0.00635  1.0000
  C   C2792     1.0  0.58251  0.68245  0.02179  1.0000
  C   C2793     1.0  0.56613  0.72734  0.14362  1.0000
  H   H2236     1.0  0.56046  0.72952  0.15759  1.0000
  C   C2794     1.0  0.64531  0.50357  0.03586  1.0000
  C   C2795     1.0  0.58753  0.71044  0.12270  1.0000
  H   H2237     1.0  0.56309  0.51595  0.99634  1.0000
  Fe  Fe197     1.0  0.59225  0.91113  0.99743  1.0000
  H   H2238     1.0  0.50181  0.87893  0.01858  1.0000
  C   C2796     1.0  0.54528  0.85764  0.11167  1.0000
  C   C2797     1.0  0.55033  0.89566  0.10942  1.0000
  H   H2239     1.0  0.63139  0.83390  0.15340  1.0000
  H   H2240     1.0  0.64419  0.79841  0.22454  1.0000
  C   C2798     1.0  0.53260  0.88966  0.10860  1.0000
  C   C2799     1.0  0.60261  0.87256  0.12469  1.0000
  H   H2241     1.0  0.59609  0.72603  0.02359  1.0000
  H   H2242     1.0  0.70604  0.78263  0.15354  1.0000
  H   H2243     1.0  0.61764  0.90468  0.03653  1.0000
  C   C2800     1.0  0.70862  0.77758  0.16769  1.0000
  C   C2801     1.0  0.61984  0.86521  0.11733  1.0000
  C   C2802     1.0  0.53007  0.87067  0.10978  1.0000
  C   C2803     1.0  0.62114  0.90773  0.06532  1.0000
  H   H2244     1.0  0.62513  0.86962  0.10341  1.0000
  C   C2804     1.0  0.68349  0.71618  0.14757  1.0000
  C   C2805     1.0  0.67532  0.70345  0.16071  1.0000
  C   C2806     1.0  0.68272  0.73496  0.15081  1.0000
  C   C2807     1.0  0.65427  0.77159  0.18821  1.0000
  C   C2808     1.0  0.63659  0.76550  0.18704  1.0000
  C   C2809     1.0  0.62186  0.77100  0.19943  1.0000
  C   C2810     1.0  0.62468  0.78269  0.21304  1.0000
  C   C2811     1.0  0.64222  0.78892  0.21426  1.0000
  C   C2812     1.0  0.65694  0.78361  0.20175  1.0000
  C   C2813     1.0  0.67122  0.79921  0.14947  1.0000
  C   C2814     1.0  0.66701  0.81094  0.13369  1.0000
  H   H2245     1.0  0.69008  0.71150  0.13470  1.0000
  H   H2246     1.0  0.67550  0.68901  0.15797  1.0000
  H   H2247     1.0  0.68916  0.74465  0.14049  1.0000
  H   H2248     1.0  0.63407  0.75680  0.17630  1.0000
  H   H2249     1.0  0.60815  0.76656  0.19819  1.0000
  H   H2250     1.0  0.61311  0.78741  0.22228  1.0000
  C   C2815     1.0  0.60090  0.95868  0.00071  1.0000
  H   H2251     1.0  0.67017  0.78925  0.20247  1.0000
  H   H2252     1.0  0.67707  0.80488  0.16083  1.0000
  H   H2253     1.0  0.66990  0.82542  0.13282  1.0000
  C   C2816     1.0  0.61067  0.73535  0.07955  1.0000
  C   C2817     1.0  0.60853  0.75317  0.08587  1.0000
  C   C2818     1.0  0.62252  0.76540  0.08196  1.0000
  C   C2819     1.0  0.63880  0.75990  0.07167  1.0000
  C   C2820     1.0  0.64096  0.74227  0.06503  1.0000
  C   C2821     1.0  0.62687  0.73011  0.06878  1.0000
  H   H2254     1.0  0.62426  0.69792  0.09834  1.0000
  H   H2255     1.0  0.59598  0.75772  0.09366  1.0000
  H   H2256     1.0  0.62067  0.77917  0.08692  1.0000
  H   H2257     1.0  0.64968  0.76935  0.06873  1.0000
  H   H2258     1.0  0.65356  0.73801  0.05700  1.0000
  H   H2259     1.0  0.62868  0.71670  0.06323  1.0000
  H   H2260     1.0  0.60342  0.58579  0.99653  1.0000
  C   C2822     1.0  0.54183  0.88200  0.28902  1.0000
  S   S389      1.0  0.60439  0.93502  0.00954  1.0000
  C   C2823     1.0  0.52681  0.82582  0.04939  1.0000
  C   C2824     1.0  0.51885  0.85925  0.32415  1.0000
  C   C2825     1.0  0.63542  0.51412  0.02220  1.0000
  C   C2826     1.0  0.52938  0.99108  0.03396  1.0000
  H   H2261     1.0  0.56391  0.75929  0.03258  1.0000
  C   C2827     1.0  0.60381  0.56325  0.01840  1.0000
  C   C2828     1.0  0.59697  0.55769  0.03655  1.0000
  C   C2829     1.0  0.58538  0.57000  0.04678  1.0000
  C   C2830     1.0  0.58055  0.58796  0.03902  1.0000
  C   C2831     1.0  0.58708  0.59353  0.02088  1.0000
  C   C2832     1.0  0.59855  0.58119  0.01054  1.0000
  C   C2833     1.0  0.58766  0.52929  0.00069  1.0000
  C   C2834     1.0  0.58071  0.97520  0.30784  1.0000
  H   H2262     1.0  0.66032  0.50413  0.06029  1.0000
  C   C2835     1.0  0.72093  0.71417  0.17371  1.0000
  H   H2263     1.0  0.50422  0.53202  0.02451  1.0000
  Fe  Fe198     1.0  0.65838  0.87457  0.31193  1.0000
  C   C2836     1.0  0.72635  0.88805  0.28755  1.0000
  C   C2837     1.0  0.63341  0.53359  0.02197  1.0000
  C   C2838     1.0  0.59986  0.66611  0.06952  1.0000
  H   H2264     1.0  0.60064  0.54384  0.04289  1.0000
  H   H2265     1.0  0.69510  0.93201  0.29954  1.0000
  H   H2266     1.0  0.57985  0.92819  0.04393  1.0000
  H   H2267     1.0  0.58226  0.87058  0.14819  1.0000
  C   C2839     1.0  0.49456  0.89879  0.29214  1.0000
  H   H2268     1.0  0.50966  0.93605  0.02060  1.0000
  H   H2269     1.0  0.58029  0.56563  0.06084  1.0000
  H   H2270     1.0  0.57176  0.59751  0.04710  1.0000
  C   C2840     1.0  0.51564  0.89476  0.99582  1.0000
  H   H2271     1.0  0.58166  0.53464  0.01343  1.0000
  C   C2841     1.0  0.64152  0.54228  0.03552  1.0000
  S   S390      1.0  0.59187  0.50115  0.05541  1.0000
  C   C2842     1.0  0.60630  0.85193  0.15284  1.0000
  C   C2843     1.0  0.72586  0.77988  0.17422  1.0000
  H   H2272     1.0  0.52076  0.89969  0.10709  1.0000
  C   C2844     1.0  0.50902  0.82417  0.30341  1.0000
  H   H2273     1.0  0.53973  0.94293  0.99564  1.0000
  H   H2274     1.0  0.58335  0.60745  0.01485  1.0000
  C   C2845     1.0  0.72408  0.63572  0.16870  1.0000
  H   H2275     1.0  0.52825  0.85754  0.06720  1.0000
  C   C2846     1.0  0.50270  0.80770  0.29846  1.0000
  H   H2276     1.0  0.57468  0.85329  0.11350  1.0000
  C   C2847     1.0  0.59578  0.86558  0.14243  1.0000
  C   C2848     1.0  0.58805  0.91225  0.12118  1.0000
  H   H2277     1.0  0.59534  0.93134  0.16103  1.0000
  C   C2849     1.0  0.56302  0.86361  0.11236  1.0000
  C   C2850     1.0  0.59857  0.89359  0.08767  1.0000
  H   H2278     1.0  0.51631  0.86608  0.10921  1.0000
  C   C2851     1.0  0.72804  0.89569  0.30429  1.0000
  H   H2279     1.0  0.50816  0.90247  0.28662  1.0000
  H   H2280     1.0  0.57382  0.87924  0.25226  1.0000
  S   S391      1.0  0.53874  0.49540  0.06565  1.0000
  C   C2852     1.0  0.59012  0.88709  0.07303  1.0000
  C   C2853     1.0  0.55682  0.71982  0.07186  1.0000
  C   C2854     1.0  0.53362  0.86015  0.26824  1.0000
  H   H2281     1.0  0.68968  0.68904  0.06081  1.0000
  C   C2855     1.0  0.65158  0.53169  0.04897  1.0000
  C   C2856     1.0  0.68263  0.61747  0.00391  1.0000
  H   H2282     1.0  0.58025  0.68940  0.06419  1.0000
  H   H2283     1.0  0.50816  0.79441  0.30475  1.0000
  C   C2857     1.0  0.66768  0.78036  0.15065  1.0000
  H   H2284     1.0  0.65603  0.69237  0.06939  1.0000
  H   H2285     1.0  0.59601  0.90103  0.14851  1.0000
  C   C2858     1.0  0.61424  0.90382  0.08370  1.0000
  P   P94       1.0  0.67276  0.76543  0.17125  1.0000
  H   H2286     1.0  0.51352  0.94953  0.05535  1.0000
  C   C2859     1.0  0.58113  0.70150  0.02394  1.0000
  C   C2860     1.0  0.59710  0.71123  0.02220  1.0000
  C   C2861     1.0  0.61444  0.70193  0.01842  1.0000
  C   C2862     1.0  0.61595  0.68280  0.01621  1.0000
  C   C2863     1.0  0.50446  0.96608  0.01789  1.0000
  P   P95       1.0  0.63842  0.67115  0.01067  1.0000
  H   H2287     1.0  0.71761  0.68509  0.18033  1.0000
  C   C2864     1.0  0.65471  0.67755  0.02620  1.0000
  C   C2865     1.0  0.67387  0.67571  0.02147  1.0000
  H   H2288     1.0  0.67935  0.67042  0.00855  1.0000
  C   C2866     1.0  0.58362  0.92876  0.11010  1.0000
  H   H2289     1.0  0.60140  0.96907  0.02756  1.0000
  C   C2867     1.0  0.54934  0.86398  0.25651  1.0000
  C   C2868     1.0  0.60042  0.97280  0.01286  1.0000
  C   C2869     1.0  0.63700  0.64624  0.01439  1.0000
  H   H2290     1.0  0.56550  0.95225  0.02231  1.0000
  H   H2291     1.0  0.53344  0.74580  0.03833  1.0000
  C   C2870     1.0  0.63441  0.60764  0.02036  1.0000
  C   C2871     1.0  0.63784  0.61779  0.03501  1.0000
  C   C2872     1.0  0.63915  0.63700  0.03208  1.0000
  C   C2873     1.0  0.52982  0.86901  0.28472  1.0000
  H   H2292     1.0  0.73620  0.78699  0.16528  1.0000
  C   C2874     1.0  0.57892  0.95616  0.30748  1.0000
  C   C2875     1.0  0.59984  0.67312  0.01783  1.0000
  H   H2293     1.0  0.73446  0.65868  0.12069  1.0000
  Fe  Fe199     1.0  0.61754  0.88784  0.30641  1.0000
  H   H2294     1.0  0.71637  0.52997  0.12967  1.0000
  H   H2295     1.0  0.58051  0.92835  0.09578  1.0000
  P   P96       1.0  0.49450  0.83698  0.07040  1.0000
  H   H2296     1.0  0.52886  0.72067  0.06357  1.0000
  H   H2297     1.0  0.60061  0.65840  0.01605  1.0000
  H   H2298     1.0  0.63389  0.59270  0.02264  1.0000
  P   P97       1.0  0.51066  0.86274  0.30102  1.0000
  H   H2299     1.0  0.59008  0.88657  0.04339  1.0000
  C   C2876     1.0  0.56022  0.73928  0.12865  1.0000
  C   C2877     1.0  0.50499  0.89829  0.05301  1.0000
  H   H2300     1.0  0.52808  0.92504  0.07678  1.0000
  H   H2301     1.0  0.58173  0.94960  0.29460  1.0000
  C   C2878     1.0  0.50753  0.83951  0.99787  1.0000
  C   C2879     1.0  0.69334  0.65255  0.15090  1.0000
  C   C2880     1.0  0.53826  0.95221  0.03690  1.0000
  C   C2881     1.0  0.52793  0.94473  0.05260  1.0000
  C   C2882     1.0  0.53618  0.93101  0.06486  1.0000
  C   C2883     1.0  0.55484  0.92493  0.06169  1.0000
  H   H2302     1.0  0.70976  0.85525  0.31039  1.0000
  H   H2303     1.0  0.63019  0.60879  0.99117  1.0000
  H   H2304     1.0  0.51938  0.82336  0.31349  1.0000
  C   C2884     1.0  0.61574  0.65922  0.07845  1.0000
  H   H2305     1.0  0.68166  0.65874  0.14341  1.0000
  H   H2306     1.0  0.52477  0.84999  0.26454  1.0000
  H   H2307     1.0  0.68914  0.75410  0.20631  1.0000
  C   C2885     1.0  0.71707  0.91179  0.30875  1.0000
  S   S392      1.0  0.58681  0.89330  0.31523  1.0000
  H   H2308     1.0  0.62671  0.70967  0.01701  1.0000
  H   H2309     1.0  0.50615  0.82695  0.13704  1.0000
  H   H2310     1.0  0.50113  0.50928  0.06059  1.0000
  C   C2886     1.0  0.70958  0.66176  0.15025  1.0000
  H   H2311     1.0  0.65670  0.56126  0.00497  1.0000
  C   C2887     1.0  0.59227  0.91335  0.13962  1.0000
  H   H2312     1.0  0.62103  0.90889  0.09481  1.0000
  C   C2888     1.0  0.69239  0.63503  0.16060  1.0000
  H   H2313     1.0  0.52412  0.83828  0.04022  1.0000
  H   H2314     1.0  0.55246  0.85682  0.24402  1.0000
  H   H2315     1.0  0.51360  0.50251  0.01071  1.0000
  H   H2316     1.0  0.56118  0.91419  0.07104  1.0000
  H   H2317     1.0  0.63973  0.55722  0.03603  1.0000
  H   H2318     1.0  0.68000  0.62763  0.16069  1.0000
  H   H2319     1.0  0.62128  0.64492  0.07744  1.0000
  H   H2320     1.0  0.52932  0.88993  0.99994  1.0000
  C   C2889     1.0  0.50215  0.84143  0.29520  1.0000
  H   H2321     1.0  0.72731  0.74209  0.16427  1.0000
  C   C2890     1.0  0.69928  0.76138  0.19726  1.0000
  C   C2891     1.0  0.57658  0.74162  0.05444  1.0000
  H   H2322     1.0  0.54345  0.84287  0.11259  1.0000
  C   C2892     1.0  0.74031  0.68954  0.15956  1.0000
  H   H2323     1.0  0.59827  0.69938  0.12099  1.0000
  C   C2893     1.0  0.60125  0.69616  0.08163  1.0000
  C   C2894     1.0  0.54226  0.72636  0.06085  1.0000
  C   C2895     1.0  0.65892  0.77369  0.13629  1.0000
  H   H2324     1.0  0.65995  0.69955  0.18718  1.0000
  C   C2896     1.0  0.64836  0.68356  0.04363  1.0000
  H   H2325     1.0  0.58006  0.95867  0.10864  1.0000
  H   H2326     1.0  0.49285  0.79592  0.00089  1.0000
  C   C2897     1.0  0.67994  0.68626  0.05099  1.0000
  C   C2898     1.0  0.62446  0.67078  0.08883  1.0000
  H   H2327     1.0  0.56349  0.74666  0.09943  1.0000
  C   C2899     1.0  0.58751  0.94695  0.13570  1.0000
  H   H2328     1.0  0.67129  0.60863  0.00468  1.0000
  H   H2329     1.0  0.64746  0.78039  0.10972  1.0000
  C   C2900     1.0  0.68639  0.68010  0.03381  1.0000
  H   H2330     1.0  0.58743  0.96032  0.14128  1.0000
  C   C2901     1.0  0.56566  0.88265  0.11148  1.0000
  C   C2902     1.0  0.59690  0.89129  0.05467  1.0000
  H   H2331     1.0  0.55198  0.91041  0.10844  1.0000
  C   C2903     1.0  0.59259  0.68448  0.07113  1.0000
  C   C2904     1.0  0.58181  0.72247  0.10754  1.0000
  C   C2905     1.0  0.56803  0.73692  0.11071  1.0000
  P   P98       1.0  0.58882  0.89012  0.11130  1.0000
  H   H2332     1.0  0.65874  0.73252  0.19324  1.0000
  H   H2333     1.0  0.65481  0.75960  0.13747  1.0000
  H   H2334     1.0  0.54983  0.75063  0.13104  1.0000
  C   C2906     1.0  0.62350  0.84481  0.14548  1.0000
  H   H2335     1.0  0.51565  0.83008  0.10365  1.0000
  H   H2336     1.0  0.74249  0.58730  0.16355  1.0000
  H   H2337     1.0  0.71880  0.55935  0.10943  1.0000
  C   C2907     1.0  0.65327  0.51233  0.04930  1.0000
  H   H2338     1.0  0.71019  0.67515  0.14231  1.0000
  C   C2908     1.0  0.50304  0.82196  0.00572  1.0000
  C   C2909     1.0  0.72554  0.69526  0.17197  1.0000
  Fe  Fe200     1.0  0.60664  0.49713  0.08191  1.0000
  C   C2910     1.0  0.50006  0.88846  0.00634  1.0000
  H   H2339     1.0  0.53944  0.88880  0.30178  1.0000
  C   C2911     1.0  0.55709  0.94634  0.03404  1.0000
  H   H2340     1.0  0.50044  0.78710  0.11762  1.0000
  C   C2912     1.0  0.56532  0.93274  0.04640  1.0000
  C   C2913     1.0  0.51979  0.88557  0.05771  1.0000
  H   H2341     1.0  0.56711  0.89528  0.28102  1.0000
  C   C2914     1.0  0.49860  0.78541  0.13257  1.0000
  C   C2915     1.0  0.65468  0.97597  0.31603  1.0000
  H   H2342     1.0  0.71964  0.75819  0.21767  1.0000
  H   H2343     1.0  0.50919  0.80114  0.08813  1.0000
  H   H2344     1.0  0.71224  0.89037  0.26225  1.0000
  C   C2916     1.0  0.72981  0.77296  0.19224  1.0000
  C   C2917     1.0  0.49394  0.52229  0.02319  1.0000
  C   C2918     1.0  0.71374  0.89641  0.27512  1.0000
  C   C2919     1.0  0.70270  0.91235  0.27948  1.0000
  C   C2920     1.0  0.57359  0.94548  0.32373  1.0000
  C   C2921     1.0  0.59879  0.99175  0.00610  1.0000
  H   H2345     1.0  0.72660  0.98124  0.29160  1.0000
  H   H2346     1.0  0.73785  0.88885  0.31365  1.0000
  H   H2347     1.0  0.58423  0.98322  0.29492  1.0000
  C   C2922     1.0  0.49924  0.50548  0.01550  1.0000
  H   H2348     1.0  0.62901  0.50693  0.01225  1.0000
  H   H2349     1.0  0.50750  0.91240  0.04785  1.0000
  C   C2923     1.0  0.73056  0.55328  0.11686  1.0000
  C   C2924     1.0  0.49347  0.78086  0.17112  1.0000
  C   C2925     1.0  0.72423  0.95571  0.30914  1.0000
  C   C2926     1.0  0.70414  0.91988  0.29631  1.0000
  H   H2350     1.0  0.54768  0.85239  0.31500  1.0000
  H   H2351     1.0  0.50463  0.81805  0.02032  1.0000
  C   C2927     1.0  0.71656  0.76361  0.20372  1.0000
  H   H2352     1.0  0.65010  0.94687  0.31518  1.0000
  S   S393      1.0  0.64094  0.90133  0.31708  1.0000
  H   H2353     1.0  0.70945  0.71850  0.18321  1.0000
  H   H2354     1.0  0.70727  0.61269  0.17625  1.0000
  H   H2355     1.0  0.73469  0.87549  0.28434  1.0000
  H   H2356     1.0  0.73378  0.94773  0.30013  1.0000
  C   C2928     1.0  0.49953  0.94771  0.01816  1.0000
  C   C2929     1.0  0.72507  0.65344  0.15923  1.0000
  H   H2357     1.0  0.70269  0.79740  0.31626  1.0000
  C   C2930     1.0  0.70774  0.62664  0.16950  1.0000
  C   C2931     1.0  0.50106  0.83187  0.10805  1.0000
  Fe  Fe201     1.0  0.52164  0.87701  0.59645  1.0000
  H   H2358     1.0  0.56914  0.87039  0.46149  1.0000
  S   S394      1.0  0.54612  0.85966  0.60885  1.0000
  C   C2932     1.0  0.73279  0.84864  0.32790  1.0000
  S   S395      1.0  0.51012  0.90619  0.53105  1.0000
  C   C2933     1.0  0.53633  0.78219  0.52106  1.0000
  C   C2934     1.0  0.53015  0.94875  0.51116  1.0000
  S   S396      1.0  0.52443  0.90497  0.58103  1.0000
  H   H2359     1.0  0.72993  0.84903  0.37481  1.0000
  C   C2935     1.0  0.67560  0.90206  0.37570  1.0000
  Fe  Fe202     1.0  0.51466  0.88914  0.40014  1.0000
  H   H2360     1.0  0.55672  0.81968  0.48536  1.0000
  S   S397      1.0  0.54588  0.88310  0.39599  1.0000
  H   H2361     1.0  0.58424  0.92860  0.42612  1.0000
  C   C2936     1.0  0.52665  0.99183  0.64191  1.0000
  S   S398      1.0  0.50331  0.90945  0.42053  1.0000
  H   H2362     1.0  0.73125  0.87125  0.59690  1.0000
  C   C2937     1.0  0.72304  0.91504  0.64132  1.0000
  H   H2363     1.0  0.51941  0.91215  0.49206  1.0000
  C   C2938     1.0  0.51125  0.95436  0.51327  1.0000
  H   H2364     1.0  0.54473  0.87661  0.43902  1.0000
  H   H2365     1.0  0.61768  0.96454  0.35968  1.0000
  C   C2939     1.0  0.71853  0.86376  0.62422  1.0000
  C   C2940     1.0  0.51509  0.96932  0.36586  1.0000
  H   H2366     1.0  0.53628  0.85075  0.37393  1.0000
  C   C2941     1.0  0.70096  0.85770  0.33908  1.0000
  C   C2942     1.0  0.70697  0.85584  0.35726  1.0000
  H   H2367     1.0  0.50105  0.97136  0.55192  1.0000
  H   H2368     1.0  0.69700  0.85844  0.36878  1.0000
  H   H2369     1.0  0.69123  0.72843  0.37637  1.0000
  C   C2943     1.0  0.55727  0.88625  0.37356  1.0000
  C   C2944     1.0  0.54805  0.89512  0.35857  1.0000
  C   C2945     1.0  0.55733  0.89711  0.34084  1.0000
  C   C2946     1.0  0.57598  0.89044  0.33791  1.0000
  C   C2947     1.0  0.58529  0.88170  0.35290  1.0000
  C   C2948     1.0  0.57594  0.87961  0.37067  1.0000
  H   H2370     1.0  0.53372  0.90030  0.36058  1.0000
  C   C2949     1.0  0.50634  0.86052  0.33983  1.0000
  H   H2371     1.0  0.59963  0.87643  0.35077  1.0000
  H   H2372     1.0  0.58317  0.87270  0.38219  1.0000
  S   S399      1.0  0.67672  0.86290  0.33578  1.0000
  H   H2373     1.0  0.63320  0.77446  0.58189  1.0000
  H   H2374     1.0  0.54273  0.98531  0.54735  1.0000
  C   C2950     1.0  0.72171  0.79443  0.64299  1.0000
  H   H2375     1.0  0.51287  0.93976  0.36973  1.0000
  C   C2951     1.0  0.56532  0.87041  0.61585  1.0000
  C   C2952     1.0  0.57750  0.86037  0.62802  1.0000
  C   C2953     1.0  0.59700  0.88638  0.62623  1.0000
  C   C2954     1.0  0.58489  0.89632  0.61399  1.0000
  C   C2955     1.0  0.56903  0.88851  0.60902  1.0000
  H   H2376     1.0  0.58770  0.91026  0.60840  1.0000
  H   H2377     1.0  0.55988  0.89643  0.59964  1.0000
  P   P99       1.0  0.72787  0.78291  0.37793  1.0000
  C   C2956     1.0  0.68550  0.81655  0.35566  1.0000
  C   C2957     1.0  0.54833  0.87613  0.54134  1.0000
  C   C2958     1.0  0.72323  0.82924  0.57394  1.0000
  C   C2959     1.0  0.72768  0.79039  0.62493  1.0000
  C   C2960     1.0  0.71209  0.79482  0.36187  1.0000
  H   H2378     1.0  0.68859  0.98456  0.33972  1.0000
  C   C2961     1.0  0.50728  0.90430  0.49375  1.0000
  H   H2379     1.0  0.50565  0.90268  0.46426  1.0000
  C   C2962     1.0  0.54158  0.86972  0.45272  1.0000
  H   H2380     1.0  0.60240  0.86051  0.64273  1.0000
  C   C2963     1.0  0.69652  0.81507  0.63108  1.0000
  C   C2964     1.0  0.69784  0.80758  0.36807  1.0000
  C   C2965     1.0  0.67182  0.80643  0.58992  1.0000
  H   H2381     1.0  0.71825  0.91870  0.37074  1.0000
  P   P100      1.0  0.68974  0.82137  0.59345  1.0000
  C   C2966     1.0  0.67877  0.84380  0.59871  1.0000
  C   C2967     1.0  0.51262  0.85732  0.35767  1.0000
  P   P101      1.0  0.56307  0.95844  0.40454  1.0000
  H   H2382     1.0  0.55839  0.87159  0.56874  1.0000
  C   C2968     1.0  0.50046  0.97272  0.56667  1.0000
  H   H2383     1.0  0.55516  0.94961  0.49315  1.0000
  H   H2384     1.0  0.69505  0.90767  0.39505  1.0000
  C   C2969     1.0  0.66192  0.84490  0.60968  1.0000
  C   C2970     1.0  0.65291  0.86219  0.61309  1.0000
  C   C2971     1.0  0.66066  0.87851  0.60569  1.0000
  C   C2972     1.0  0.67757  0.87757  0.59507  1.0000
  C   C2973     1.0  0.68661  0.86029  0.59155  1.0000
  H   H2385     1.0  0.51301  0.86720  0.44801  1.0000
  C   C2974     1.0  0.54056  0.95408  0.49478  1.0000
  C   C2975     1.0  0.57509  0.94912  0.64161  1.0000
  H   H2386     1.0  0.56535  0.94552  0.35282  1.0000
  C   C2976     1.0  0.69882  0.97652  0.33144  1.0000
  C   C2977     1.0  0.71984  0.85223  0.64072  1.0000
  H   H2387     1.0  0.65428  0.82843  0.57629  1.0000
  H   H2388     1.0  0.58724  0.95627  0.64342  1.0000
  H   H2389     1.0  0.55497  0.76267  0.50675  1.0000
  P   P102      1.0  0.56069  0.98211  0.62268  1.0000
  H   H2390     1.0  0.55856  0.84783  0.34645  1.0000
  C   C2978     1.0  0.68530  0.90830  0.34312  1.0000
  C   C2979     1.0  0.53768  0.85406  0.32671  1.0000
  C   C2980     1.0  0.55093  0.80945  0.49548  1.0000
  C   C2981     1.0  0.53209  0.96520  0.48054  1.0000
  H   H2391     1.0  0.65569  0.83242  0.61561  1.0000
  S   S400      1.0  0.49753  0.88623  0.61572  1.0000
  H   H2392     1.0  0.65359  0.89189  0.60841  1.0000
  H   H2393     1.0  0.68371  0.89027  0.58967  1.0000
  H   H2394     1.0  0.69972  0.85991  0.58337  1.0000
  C   C2982     1.0  0.55247  0.99073  0.42191  1.0000
  C   C2983     1.0  0.54392  0.85112  0.34459  1.0000
  C   C2984     1.0  0.71552  0.94698  0.32523  1.0000
  H   H2395     1.0  0.57516  0.90728  0.45326  1.0000
  S   S401      1.0  0.50312  0.86795  0.57581  1.0000
  C   C2985     1.0  0.53320  0.85172  0.48809  1.0000
  C   C2986     1.0  0.54124  0.86800  0.52691  1.0000
  H   H2396     1.0  0.71066  0.80261  0.44102  1.0000
  C   C2987     1.0  0.61037  0.93620  0.36426  1.0000
  C   C2988     1.0  0.59455  0.96165  0.38006  1.0000
  C   C2989     1.0  0.65597  0.81378  0.58098  1.0000
  C   C2990     1.0  0.70243  0.81114  0.61287  1.0000
  H   H2397     1.0  0.55000  0.90383  0.32931  1.0000
  H   H2398     1.0  0.53831  0.98795  0.42004  1.0000
  H   H2399     1.0  0.53337  0.95458  0.62232  1.0000
  C   C2991     1.0  0.70711  0.75216  0.37705  1.0000
  S   S402      1.0  0.49619  0.90103  0.37810  1.0000
  P   P103      1.0  0.52851  0.83870  0.51030  1.0000
  C   C2992     1.0  0.71930  0.80493  0.42829  1.0000
  H   H2400     1.0  0.54266  0.90875  0.46679  1.0000
  H   H2401     1.0  0.49864  0.96619  0.44498  1.0000
  C   C2993     1.0  0.54478  0.92929  0.63616  1.0000
  C   C2994     1.0  0.69979  0.81989  0.55546  1.0000
  C   C2995     1.0  0.54447  0.83788  0.54437  1.0000
  C   C2996     1.0  0.70763  0.72571  0.40013  1.0000
  C   C2997     1.0  0.49953  0.89943  0.51174  1.0000
  H   H2402     1.0  0.70295  0.71226  0.40532  1.0000
  H   H2403     1.0  0.59291  0.97635  0.38175  1.0000
  C   C2998     1.0  0.64402  0.78334  0.58400  1.0000
  C   C2999     1.0  0.55655  0.94176  0.42343  1.0000
  C   C3000     1.0  0.55146  0.84610  0.55883  1.0000
  H   H2404     1.0  0.70666  0.87371  0.62269  1.0000
  H   H2405     1.0  0.49880  0.82070  0.49558  1.0000
  H   H2406     1.0  0.57439  0.92107  0.39295  1.0000
  C   C3001     1.0  0.53916  0.98100  0.38189  1.0000
  C   C3002     1.0  0.67381  0.78732  0.59546  1.0000
  H   H2407     1.0  0.53869  0.93384  0.39018  1.0000
  C   C3003     1.0  0.54483  0.94813  0.62993  1.0000
  H   H2408     1.0  0.58706  0.92305  0.65397  1.0000
  S   S403      1.0  0.61698  0.89696  0.63147  1.0000
  H   H2409     1.0  0.51918  0.93190  0.45313  1.0000
  C   C3004     1.0  0.58413  0.93064  0.38634  1.0000
  H   H2410     1.0  0.54269  0.82316  0.54610  1.0000
  C   C3005     1.0  0.73254  0.86233  0.60962  1.0000
  C   C3006     1.0  0.70543  0.91410  0.36673  1.0000
  H   H2411     1.0  0.53323  0.92152  0.63356  1.0000
  C   C3007     1.0  0.53140  0.85278  0.36007  1.0000
  H   H2412     1.0  0.50329  0.97183  0.35744  1.0000
  C   C3008     1.0  0.56993  0.92917  0.43164  1.0000
  C   C3009     1.0  0.74165  0.81104  0.39546  1.0000
  H   H2413     1.0  0.63988  0.86300  0.62150  1.0000
  C   C3010     1.0  0.54426  0.96289  0.38944  1.0000
  H   H2414     1.0  0.62097  0.93108  0.35419  1.0000
  C   C3011     1.0  0.55996  0.95826  0.63261  1.0000
  H   H2415     1.0  0.56789  0.78684  0.48404  1.0000
  H   H2416     1.0  0.52792  0.95277  0.42563  1.0000
  H   H2417     1.0  0.68480  0.82488  0.63388  1.0000
  H   H2418     1.0  0.53661  0.87687  0.51504  1.0000
  C   C3012     1.0  0.56488  0.91719  0.44715  1.0000
  C   C3013     1.0  0.55594  0.98320  0.59849  1.0000
  C   C3014     1.0  0.72030  0.73395  0.40971  1.0000
  C   C3015     1.0  0.68732  0.81297  0.33699  1.0000
  H   H2419     1.0  0.57481  0.84633  0.63334  1.0000
  C   C3016     1.0  0.55807  0.96711  0.58884  1.0000
  C   C3017     1.0  0.53717  0.81466  0.50915  1.0000
  C   C3018     1.0  0.72916  0.79711  0.39694  1.0000
  H   H2420     1.0  0.50681  0.97941  0.47151  1.0000
  C   C3019     1.0  0.71214  0.82137  0.53966  1.0000
  H   H2421     1.0  0.55492  0.83782  0.57151  1.0000
  S   S404      1.0  0.66676  0.89772  0.64719  1.0000
  C   C3020     1.0  0.60854  0.95502  0.36741  1.0000
  H   H2422     1.0  0.70183  0.75893  0.36438  1.0000
  H   H2423     1.0  0.50548  0.85162  0.47873  1.0000
  C   C3021     1.0  0.73558  0.83956  0.64249  1.0000
  S   S405      1.0  0.49877  0.93909  0.61425  1.0000
  C   C3022     1.0  0.73056  0.92892  0.62904  1.0000
  H   H2424     1.0  0.53658  0.94002  0.52223  1.0000
  C   C3023     1.0  0.59316  0.86837  0.63336  1.0000
  C   C3024     1.0  0.50255  0.96512  0.49884  1.0000
  H   H2425     1.0  0.56194  0.85454  0.49260  1.0000
  C   C3025     1.0  0.58550  0.98220  0.41936  1.0000
  C   C3026     1.0  0.55333  0.96789  0.57045  1.0000
  H   H2426     1.0  0.51924  0.80451  0.53255  1.0000
  H   H2427     1.0  0.69556  0.95119  0.34863  1.0000
  C   C3027     1.0  0.52043  0.95122  0.37290  1.0000
  C   C3028     1.0  0.54658  0.91806  0.45483  1.0000
  Fe  Fe203     1.0  0.63747  0.88944  0.65391  1.0000
  C   C3029     1.0  0.53932  0.84879  0.52825  1.0000
  C   C3030     1.0  0.57203  0.97277  0.34083  1.0000
  C   C3031     1.0  0.53494  0.94797  0.38466  1.0000
  C   C3032     1.0  0.71761  0.79449  0.41330  1.0000
  C   C3033     1.0  0.74198  0.91549  0.33847  1.0000
  H   H2428     1.0  0.70735  0.78434  0.41455  1.0000
  C   C3034     1.0  0.52449  0.98420  0.37030  1.0000
  C   C3035     1.0  0.52373  0.86430  0.45771  1.0000
  C   C3036     1.0  0.58238  0.94949  0.38981  1.0000
  C   C3037     1.0  0.55112  0.85732  0.48301  1.0000
  H   H2429     1.0  0.55427  0.95530  0.56335  1.0000
  H   H2430     1.0  0.66550  0.89699  0.38635  1.0000
  H   H2431     1.0  0.54009  0.96949  0.46785  1.0000
  C   C3038     1.0  0.65991  0.77585  0.59256  1.0000
  H   H2432     1.0  0.56311  0.95386  0.59549  1.0000
  C   C3039     1.0  0.53830  0.94278  0.43144  1.0000
  C   C3040     1.0  0.53334  0.93099  0.44707  1.0000
  C   C3041     1.0  0.56744  0.97883  0.41559  1.0000
  C   C3042     1.0  0.55732  0.79077  0.49466  1.0000
  C   C3043     1.0  0.54695  0.98480  0.56139  1.0000
  C   C3044     1.0  0.70607  0.80665  0.64605  1.0000
  H   H2433     1.0  0.54920  0.89105  0.54044  1.0000
  H   H2434     1.0  0.66143  0.76114  0.59705  1.0000
  C   C3045     1.0  0.51952  0.85536  0.47528  1.0000
  C   C3046     1.0  0.49368  0.97114  0.43162  1.0000
  C   C3047     1.0  0.51318  0.97073  0.48260  1.0000
  H   H2435     1.0  0.56907  0.97901  0.35380  1.0000
  H   H2436     1.0  0.69638  0.81093  0.38236  1.0000
  C   C3048     1.0  0.55004  0.77714  0.50744  1.0000
  C   C3049     1.0  0.73554  0.83066  0.55815  1.0000
  C   C3050     1.0  0.70104  0.73482  0.38381  1.0000
  C   C3051     1.0  0.52990  0.80085  0.52191  1.0000
  H   H2437     1.0  0.72936  0.78835  0.65459  1.0000
  H   H2438     1.0  0.73684  0.83061  0.65519  1.0000
  H   H2439     1.0  0.67487  0.82686  0.36031  1.0000
  C   C3052     1.0  0.49943  0.89910  0.47800  1.0000
  C   C3053     1.0  0.73232  0.81825  0.42694  1.0000
  C   C3054     1.0  0.70213  0.91409  0.34789  1.0000
  C   C3055     1.0  0.72638  0.75129  0.40300  1.0000
  H   H2440     1.0  0.62975  0.80812  0.57154  1.0000
  H   H2441     1.0  0.59717  0.97266  0.41561  1.0000
  C   C3056     1.0  0.55340  0.86520  0.55731  1.0000
  H   H2442     1.0  0.72545  0.72688  0.42234  1.0000
  C   C3057     1.0  0.72569  0.85042  0.36075  1.0000
  H   H2443     1.0  0.72276  0.79510  0.59607  1.0000
  H   H2444     1.0  0.65938  0.89731  0.35322  1.0000
  C   C3058     1.0  0.71983  0.76055  0.38660  1.0000
  H   H2445     1.0  0.50100  0.94323  0.57416  1.0000
  C   C3059     1.0  0.56982  0.95383  0.34033  1.0000
  H   H2446     1.0  0.49807  0.97765  0.61959  1.0000
  C   C3060     1.0  0.67208  0.90236  0.35702  1.0000
  H   H2447     1.0  0.72417  0.78082  0.33816  1.0000
  C   C3061     1.0  0.70125  0.80005  0.33077  1.0000
  C   C3062     1.0  0.64208  0.80229  0.57816  1.0000
  C   C3063     1.0  0.55528  0.86627  0.46540  1.0000
  Fe  Fe204     1.0  0.50396  0.89702  0.56181  1.0000
  H   H2448     1.0  0.50358  0.95006  0.52613  1.0000
  C   C3064     1.0  0.69225  0.90800  0.38057  1.0000
  C   C3065     1.0  0.49897  0.97623  0.60484  1.0000
  C   C3066     1.0  0.73372  0.89853  0.64583  1.0000
  H   H2449     1.0  0.59944  0.90953  0.37102  1.0000
  C   C3067     1.0  0.59820  0.92404  0.37375  1.0000
  H   H2450     1.0  0.72776  0.83230  0.58711  1.0000
  C   C3068     1.0  0.50388  0.83873  0.51653  1.0000
  C   C3069     1.0  0.55988  0.92032  0.64505  1.0000
  H   H2451     1.0  0.73404  0.82609  0.43864  1.0000
  H   H2452     1.0  0.70788  0.81830  0.52636  1.0000
  C   C3070     1.0  0.71348  0.79083  0.34319  1.0000
  H   H2453     1.0  0.68599  0.78123  0.60212  1.0000
  H   H2454     1.0  0.72771  0.88766  0.65513  1.0000
  C   C3071     1.0  0.73003  0.82669  0.54102  1.0000
  H   H2455     1.0  0.68605  0.81569  0.55408  1.0000
  H   H2456     1.0  0.68243  0.90795  0.32873  1.0000
  H   H2457     1.0  0.53064  0.77164  0.53095  1.0000
  C   C3072     1.0  0.50047  0.95682  0.57925  1.0000
  C   C3073     1.0  0.57504  0.93022  0.64773  1.0000
  H   H2458     1.0  0.72216  0.94166  0.62553  1.0000
  H   H2459     1.0  0.52361  0.97749  0.64215  1.0000
  Fe  Fe205     1.0  0.49944  0.91363  0.59905  1.0000
  H   H2460     1.0  0.49630  0.95067  0.32694  1.0000
  H   H2461     1.0  0.56013  0.90555  0.64928  1.0000
  H   H2462     1.0  0.73994  0.78109  0.62252  1.0000
  C   C3074     1.0  0.70530  0.82370  0.57277  1.0000
  H   H2463     1.0  0.70889  0.91705  0.64732  1.0000
  C   C3075     1.0  0.71800  0.79856  0.60993  1.0000
  C   C3076     1.0  0.49971  0.95864  0.59834  1.0000
  H   H2464     1.0  0.73625  0.75747  0.41058  1.0000
  H   H2465     1.0  0.65199  0.97568  0.33092  1.0000
  C   C3077     1.0  0.49576  0.84822  0.53150  1.0000
  H   H2466     1.0  0.67813  0.82053  0.32732  1.0000
  H   H2467     1.0  0.73522  0.88763  0.34866  1.0000
  H   H2468     1.0  0.50289  0.91650  0.33274  1.0000
  C   C3078     1.0  0.49418  0.98986  0.42516  1.0000
  H   H2469     1.0  0.50288  0.85840  0.36970  1.0000
  C   C3079     1.0  0.70281  0.95756  0.33639  1.0000
  P   P104      1.0  0.71925  0.92208  0.33019  1.0000
  H   H2470     1.0  0.50382  0.85667  0.53881  1.0000
  S   S406      1.0  0.49536  0.86723  0.41111  1.0000
  C   C3080     1.0  0.73878  0.84667  0.34607  1.0000
  H   H2471     1.0  0.73967  0.82768  0.52883  1.0000
  C   C3081     1.0  0.49976  0.99035  0.57319  1.0000
  C   C3082     1.0  0.59643  0.99079  0.60914  1.0000
  C   C3083     1.0  0.58337  0.99009  0.62449  1.0000
  H   H2472     1.0  0.59320  0.98645  0.59596  1.0000
  C   C3084     1.0  0.57792  0.98354  0.32468  1.0000
  C   C3085     1.0  0.49282  0.82823  0.50710  1.0000
  C   C3086     1.0  0.49890  0.99208  0.59227  1.0000
  C   C3087     1.0  0.71410  0.85415  0.32441  1.0000
  H   H2473     1.0  0.67603  0.94529  0.71423  1.0000
  H   H2474     1.0  0.50981  0.75109  0.82972  1.0000
  H   H2475     1.0  0.51307  0.60292  0.96070  1.0000
  S   S407      1.0  0.63104  0.51839  0.92083  1.0000
  C   C3088     1.0  0.64262  0.91590  0.72856  1.0000
  C   C3089     1.0  0.66657  0.67074  0.95951  1.0000
  C   C3090     1.0  0.65307  0.90248  0.73928  1.0000
  H   H2476     1.0  0.52787  0.51225  0.97681  1.0000
  H   H2477     1.0  0.66254  0.58993  0.95073  1.0000
  Fe  Fe206     1.0  0.59376  0.87762  0.97368  1.0000
  H   H2478     1.0  0.52211  0.72371  0.90746  1.0000
  S   S408      1.0  0.61053  0.85881  0.95389  1.0000
  C   C3091     1.0  0.71320  0.92068  0.78228  1.0000
  S   S409      1.0  0.53296  0.91447  0.96650  1.0000
  S   S410      1.0  0.58637  0.90839  0.96791  1.0000
  H   H2479     1.0  0.57624  0.50350  0.96698  1.0000
  H   H2480     1.0  0.67491  0.57994  0.98122  1.0000
  S   S411      1.0  0.63314  0.90518  0.67940  1.0000
  C   C3092     1.0  0.66136  0.57606  0.97835  1.0000
  C   C3093     1.0  0.50404  0.89370  0.93370  1.0000
  S   S412      1.0  0.67332  0.88635  0.69124  1.0000
  S   S413      1.0  0.57874  0.50321  0.92183  1.0000
  Fe  Fe207     1.0  0.64377  0.87830  0.69499  1.0000
  S   S414      1.0  0.62638  0.87087  0.72241  1.0000
  Fe  Fe208     1.0  0.66283  0.91180  0.67368  1.0000
  C   C3094     1.0  0.64615  0.67739  0.98669  1.0000
  S   S415      1.0  0.64654  0.86217  0.66952  1.0000
  C   C3095     1.0  0.51351  0.51110  0.86994  1.0000
  Fe  Fe209     1.0  0.61015  0.80522  0.81975  1.0000
  S   S416      1.0  0.59456  0.77944  0.82160  1.0000
  S   S417      1.0  0.62993  0.81119  0.79382  1.0000
  Fe  Fe210     1.0  0.59249  0.81558  0.85788  1.0000
  S   S418      1.0  0.57571  0.79049  0.86186  1.0000
  S   S419      1.0  0.58483  0.83977  0.87599  1.0000
  Fe  Fe211     1.0  0.60197  0.77437  0.85135  1.0000
  S   S420      1.0  0.60694  0.74344  0.86206  1.0000
  Fe  Fe212     1.0  0.56969  0.79717  0.83202  1.0000
  S   S421      1.0  0.54232  0.79657  0.81862  1.0000
  S   S422      1.0  0.61929  0.79924  0.84914  1.0000
  S   S423      1.0  0.58491  0.82309  0.82836  1.0000
  Fe  Fe213     1.0  0.71265  0.62638  0.90043  1.0000
  S   S424      1.0  0.69012  0.63645  0.88144  1.0000
  H   H2481     1.0  0.54540  0.93570  0.92758  1.0000
  Fe  Fe214     1.0  0.68567  0.62777  0.93545  1.0000
  S   S425      1.0  0.66110  0.63767  0.91888  1.0000
  S   S426      1.0  0.67951  0.61964  0.96636  1.0000
  Fe  Fe215     1.0  0.67257  0.61640  0.89946  1.0000
  S   S427      1.0  0.65355  0.59848  0.88657  1.0000
  Fe  Fe216     1.0  0.67994  0.65709  0.90222  1.0000
  S   S428      1.0  0.67302  0.68857  0.89540  1.0000
  S   S429      1.0  0.69565  0.60510  0.91703  1.0000
  S   S430      1.0  0.70400  0.64851  0.92017  1.0000
  H   H2482     1.0  0.51539  0.90262  0.93296  1.0000
  C   C3096     1.0  0.62548  0.72857  0.87161  1.0000
  C   C3097     1.0  0.62314  0.70943  0.87550  1.0000
  C   C3098     1.0  0.63742  0.69699  0.88275  1.0000
  C   C3099     1.0  0.65436  0.70349  0.88619  1.0000
  C   C3100     1.0  0.65668  0.72263  0.88233  1.0000
  C   C3101     1.0  0.64238  0.73508  0.87513  1.0000
  H   H2483     1.0  0.61017  0.70417  0.87287  1.0000
  H   H2484     1.0  0.63527  0.68240  0.88576  1.0000
  H   H2485     1.0  0.66966  0.72789  0.88494  1.0000
  H   H2486     1.0  0.64449  0.74969  0.87223  1.0000
  C   C3102     1.0  0.52005  0.79773  0.83057  1.0000
  C   C3103     1.0  0.49543  0.50596  0.86898  1.0000
  H   H2487     1.0  0.74211  0.64667  0.85665  1.0000
  H   H2488     1.0  0.51769  0.79343  0.91661  1.0000
  C   C3104     1.0  0.51739  0.80202  0.84902  1.0000
  H   H2489     1.0  0.50652  0.79085  0.80696  1.0000
  H   H2490     1.0  0.65396  0.89774  0.77915  1.0000
  H   H2491     1.0  0.52919  0.80447  0.85644  1.0000
  C   C3105     1.0  0.62734  0.85375  0.74187  1.0000
  C   C3106     1.0  0.63980  0.83791  0.74209  1.0000
  C   C3107     1.0  0.64021  0.82501  0.75797  1.0000
  C   C3108     1.0  0.62801  0.82751  0.77378  1.0000
  C   C3109     1.0  0.61539  0.84324  0.77349  1.0000
  C   C3110     1.0  0.61506  0.85621  0.75766  1.0000
  H   H2492     1.0  0.64908  0.83556  0.73000  1.0000
  H   H2493     1.0  0.65009  0.81297  0.75799  1.0000
  H   H2494     1.0  0.60624  0.84563  0.78564  1.0000
  H   H2495     1.0  0.60533  0.86836  0.75769  1.0000
  C   C3111     1.0  0.66492  0.96159  0.67473  1.0000
  H   H2496     1.0  0.68332  0.64437  0.81339  1.0000
  C   C3112     1.0  0.64558  0.96427  0.67664  1.0000
  H   H2497     1.0  0.63707  0.70865  0.94960  1.0000
  H   H2498     1.0  0.51819  0.95412  0.93884  1.0000
  C   C3113     1.0  0.60256  0.85255  0.93291  1.0000
  C   C3114     1.0  0.58573  0.86022  0.92632  1.0000
  C   C3115     1.0  0.58054  0.85610  0.90892  1.0000
  C   C3116     1.0  0.59167  0.84359  0.89827  1.0000
  C   C3117     1.0  0.60810  0.83527  0.90521  1.0000
  C   C3118     1.0  0.61363  0.83995  0.92232  1.0000
  H   H2499     1.0  0.57687  0.86958  0.93452  1.0000
  H   H2500     1.0  0.56777  0.86257  0.90374  1.0000
  H   H2501     1.0  0.61684  0.82568  0.89716  1.0000
  H   H2502     1.0  0.62664  0.83386  0.92732  1.0000
  C   C3119     1.0  0.64649  0.87306  0.79579  1.0000
  H   H2503     1.0  0.64195  0.84615  0.81007  1.0000
  H   H2504     1.0  0.52018  0.81662  0.78810  1.0000
  C   C3120     1.0  0.49939  0.80313  0.85790  1.0000
  H   H2505     1.0  0.72570  0.51527  0.85623  1.0000
  C   C3121     1.0  0.64365  0.69691  0.95765  1.0000
  C   C3122     1.0  0.50128  0.53553  0.94393  1.0000
  C   C3123     1.0  0.53203  0.78014  0.89374  1.0000
  C   C3124     1.0  0.50247  0.75744  0.89655  1.0000
  C   C3125     1.0  0.49880  0.83212  0.96787  1.0000
  C   C3126     1.0  0.63661  0.54090  0.91138  1.0000
  C   C3127     1.0  0.62853  0.54983  0.89572  1.0000
  C   C3128     1.0  0.63388  0.56743  0.88831  1.0000
  C   C3129     1.0  0.64728  0.57634  0.89648  1.0000
  C   C3130     1.0  0.65542  0.56738  0.91211  1.0000
  C   C3131     1.0  0.65010  0.54976  0.91949  1.0000
  H   H2506     1.0  0.61824  0.54313  0.88925  1.0000
  H   H2507     1.0  0.62757  0.57421  0.87617  1.0000
  H   H2508     1.0  0.66582  0.57400  0.91848  1.0000
  H   H2509     1.0  0.65649  0.54295  0.93158  1.0000
  C   C3132     1.0  0.52241  0.84180  0.76981  1.0000
  P   P105      1.0  0.49738  0.83796  0.94321  1.0000
  H   H2510     1.0  0.52170  0.86872  0.93848  1.0000
  P   P106      1.0  0.68712  0.67994  0.82923  1.0000
  H   H2511     1.0  0.58289  0.88949  0.71503  1.0000
  H   H2512     1.0  0.69827  0.71780  0.82877  1.0000
  H   H2513     1.0  0.53593  0.69464  0.92277  1.0000
  H   H2514     1.0  0.64693  0.69137  0.83008  1.0000
  H   H2515     1.0  0.54744  0.50461  0.94873  1.0000
  C   C3133     1.0  0.55435  0.87664  0.75280  1.0000
  H   H2516     1.0  0.49854  0.53164  0.97408  1.0000
  H   H2517     1.0  0.69778  0.57794  0.88344  1.0000
  C   C3134     1.0  0.69155  0.67839  0.77287  1.0000
  H   H2518     1.0  0.53821  0.51755  0.91750  1.0000
  H   H2519     1.0  0.67768  0.66208  0.95305  1.0000
  H   H2520     1.0  0.53063  0.75812  0.80200  1.0000
  H   H2521     1.0  0.51943  0.86686  0.75113  1.0000
  H   H2522     1.0  0.62633  0.70129  0.98230  1.0000
  H   H2523     1.0  0.57287  0.83478  0.73908  1.0000
  C   C3135     1.0  0.63842  0.91366  0.97506  1.0000
  C   C3136     1.0  0.49373  0.82695  0.77841  1.0000
  H   H2524     1.0  0.53293  0.70106  0.85432  1.0000
  H   H2525     1.0  0.59926  0.95559  0.91338  1.0000
  C   C3137     1.0  0.53475  0.51348  0.94738  1.0000
  H   H2526     1.0  0.54839  0.66876  0.90414  1.0000
  C   C3138     1.0  0.60281  0.51418  0.96823  1.0000
  H   H2527     1.0  0.50024  0.57218  0.96553  1.0000
  H   H2528     1.0  0.55659  0.94503  0.96478  1.0000
  H   H2529     1.0  0.72709  0.56938  0.95212  1.0000
  H   H2530     1.0  0.50938  0.53768  0.91442  1.0000
  C   C3139     1.0  0.53202  0.74090  0.84728  1.0000
  C   C3140     1.0  0.52636  0.71454  0.87972  1.0000
  C   C3141     1.0  0.53334  0.69976  0.86930  1.0000
  C   C3142     1.0  0.54118  0.68330  0.87810  1.0000
  C   C3143     1.0  0.67327  0.73590  0.82910  1.0000
  H   H2531     1.0  0.54366  0.83682  0.88931  1.0000
  H   H2532     1.0  0.53133  0.86601  0.71500  1.0000
  H   H2533     1.0  0.56466  0.75276  0.80341  1.0000
  C   C3144     1.0  0.50264  0.77140  0.90859  1.0000
  C   C3145     1.0  0.55557  0.74895  0.81549  1.0000
  C   C3146     1.0  0.56306  0.74178  0.83208  1.0000
  C   C3147     1.0  0.55136  0.73770  0.84789  1.0000
  H   H2534     1.0  0.71583  0.68023  0.75388  1.0000
  C   C3148     1.0  0.52357  0.83749  0.91292  1.0000
  H   H2535     1.0  0.54330  0.76466  0.87127  1.0000
  C   C3149     1.0  0.55762  0.85722  0.75308  1.0000
  H   H2536     1.0  0.52004  0.89859  0.70586  1.0000
  C   C3150     1.0  0.68279  0.50429  0.87371  1.0000
  H   H2537     1.0  0.67233  0.85564  0.73705  1.0000
  C   C3151     1.0  0.71044  0.68005  0.76826  1.0000
  C   C3152     1.0  0.72586  0.55366  0.90239  1.0000
  C   C3153     1.0  0.51253  0.85561  0.75879  1.0000
  H   H2538     1.0  0.57798  0.73982  0.83286  1.0000
  H   H2539     1.0  0.55750  0.73250  0.86070  1.0000
  H   H2540     1.0  0.71860  0.65229  0.83344  1.0000
  C   C3154     1.0  0.51699  0.96888  0.94059  1.0000
  H   H2541     1.0  0.62882  0.96750  0.86043  1.0000
  C   C3155     1.0  0.58448  0.51154  0.97458  1.0000
  C   C3156     1.0  0.53507  0.69603  0.90785  1.0000
  H   H2542     1.0  0.50891  0.85834  0.97333  1.0000
  H   H2543     1.0  0.51383  0.84712  0.90563  1.0000
  C   C3157     1.0  0.52946  0.52061  0.92983  1.0000
  H   H2544     1.0  0.60873  0.50813  0.95576  1.0000
  C   C3158     1.0  0.56974  0.84964  0.73917  1.0000
  P   P107      1.0  0.54711  0.84235  0.77174  1.0000
  C   C3159     1.0  0.55829  0.81917  0.77084  1.0000
  C   C3160     1.0  0.55118  0.85069  0.79375  1.0000
  C   C3161     1.0  0.53976  0.84605  0.80978  1.0000
  C   C3162     1.0  0.54311  0.85227  0.82681  1.0000
  C   C3163     1.0  0.55787  0.86320  0.82802  1.0000
  C   C3164     1.0  0.56938  0.86781  0.81219  1.0000
  C   C3165     1.0  0.56616  0.86149  0.79516  1.0000
  C   C3166     1.0  0.55082  0.80603  0.76105  1.0000
  C   C3167     1.0  0.56017  0.78852  0.75936  1.0000
  C   C3168     1.0  0.57726  0.78418  0.76700  1.0000
  C   C3169     1.0  0.58497  0.79733  0.77635  1.0000
  C   C3170     1.0  0.57546  0.81468  0.77843  1.0000
  H   H2545     1.0  0.71494  0.52867  0.91638  1.0000
  Fe  Fe217     1.0  0.60894  0.50081  0.91221  1.0000
  C   C3171     1.0  0.51706  0.75479  0.88290  1.0000
  S   S431      1.0  0.56506  0.87053  0.98400  1.0000
  H   H2546     1.0  0.71073  0.93444  0.78713  1.0000
  C   C3172     1.0  0.51284  0.82744  0.77955  1.0000
  H   H2547     1.0  0.71616  0.84309  0.69593  1.0000
  C   C3173     1.0  0.68458  0.67825  0.79141  1.0000
  C   C3174     1.0  0.72026  0.54777  0.93584  1.0000
  H   H2548     1.0  0.58118  0.87578  0.81325  1.0000
  C   C3175     1.0  0.73367  0.57604  0.92293  1.0000
  H   H2549     1.0  0.52856  0.83720  0.80942  1.0000
  H   H2550     1.0  0.53458  0.84808  0.83918  1.0000
  H   H2551     1.0  0.56082  0.86745  0.84137  1.0000
  H   H2552     1.0  0.58856  0.85542  0.71519  1.0000
  C   C3176     1.0  0.49445  0.81444  0.97586  1.0000
  C   C3177     1.0  0.63322  0.56080  0.98824  1.0000
  H   H2553     1.0  0.55428  0.77838  0.75196  1.0000
  H   H2554     1.0  0.58464  0.77071  0.76557  1.0000
  H   H2555     1.0  0.59840  0.79414  0.78193  1.0000
  H   H2556     1.0  0.58170  0.82462  0.78575  1.0000
  C   C3178     1.0  0.72705  0.56481  0.93831  1.0000
  C   C3179     1.0  0.67541  0.97717  0.67397  1.0000
  C   C3180     1.0  0.65453  0.70360  0.82991  1.0000
  C   C3181     1.0  0.57145  0.94769  0.91974  1.0000
  H   H2557     1.0  0.53791  0.80932  0.75452  1.0000
  S   S432      1.0  0.67657  0.93908  0.67379  1.0000
  C   C3182     1.0  0.66534  0.84477  0.78996  1.0000
  C   C3183     1.0  0.69346  0.84738  0.71642  1.0000
  H   H2558     1.0  0.62771  0.52650  0.97274  1.0000
  C   C3184     1.0  0.71291  0.87605  0.72681  1.0000
  C   C3185     1.0  0.66094  0.66130  0.85210  1.0000
  C   C3186     1.0  0.67253  0.66106  0.83570  1.0000
  H   H2559     1.0  0.54676  0.67205  0.86995  1.0000
  H   H2560     1.0  0.66269  0.68916  0.93482  1.0000
  C   C3187     1.0  0.65051  0.85397  0.79971  1.0000
  P   P108      1.0  0.51714  0.73606  0.86803  1.0000
  H   H2561     1.0  0.54526  0.88279  0.76353  1.0000
  C   C3188     1.0  0.71934  0.88501  0.77014  1.0000
  C   C3189     1.0  0.71991  0.54206  0.91796  1.0000
  H   H2562     1.0  0.63494  0.88012  0.80331  1.0000
  H   H2563     1.0  0.64287  0.94168  0.71118  1.0000
  H   H2564     1.0  0.62830  0.91389  0.72657  1.0000
  C   C3190     1.0  0.62092  0.87770  0.88138  1.0000
  C   C3191     1.0  0.63787  0.86746  0.88378  1.0000
  C   C3192     1.0  0.65062  0.87367  0.89484  1.0000
  C   C3193     1.0  0.64627  0.88992  0.90381  1.0000
  C   C3194     1.0  0.62890  0.89982  0.90216  1.0000
  C   C3195     1.0  0.61652  0.89394  0.89034  1.0000
  P   P109      1.0  0.62324  0.92061  0.91410  1.0000
  C   C3196     1.0  0.59847  0.92563  0.91706  1.0000
  C   C3197     1.0  0.63040  0.91785  0.93755  1.0000
  C   C3198     1.0  0.63117  0.93354  0.94741  1.0000
  C   C3199     1.0  0.63539  0.93141  0.96603  1.0000
  H   H2565     1.0  0.56545  0.96189  0.91924  1.0000
  C   C3200     1.0  0.63748  0.89799  0.96541  1.0000
  C   C3201     1.0  0.63343  0.90008  0.94676  1.0000
  C   C3202     1.0  0.59060  0.94405  0.91626  1.0000
  H   H2566     1.0  0.69038  0.97525  0.67251  1.0000
  C   C3203     1.0  0.56013  0.93300  0.92433  1.0000
  C   C3204     1.0  0.56792  0.91469  0.92541  1.0000
  C   C3205     1.0  0.58703  0.91103  0.92194  1.0000
  C   C3206     1.0  0.63420  0.93912  0.90021  1.0000
  C   C3207     1.0  0.62643  0.94706  0.88391  1.0000
  C   C3208     1.0  0.63764  0.69267  0.97628  1.0000
  C   C3209     1.0  0.51111  0.88744  0.70516  1.0000
  C   C3210     1.0  0.65940  0.95942  0.89406  1.0000
  C   C3211     1.0  0.65095  0.94513  0.90503  1.0000
  H   H2567     1.0  0.61100  0.87276  0.87290  1.0000
  H   H2568     1.0  0.64102  0.85463  0.87719  1.0000
  H   H2569     1.0  0.66377  0.86571  0.89668  1.0000
  H   H2570     1.0  0.65628  0.89452  0.91235  1.0000
  H   H2571     1.0  0.60332  0.90163  0.88820  1.0000
  H   H2572     1.0  0.62813  0.94740  0.94087  1.0000
  H   H2573     1.0  0.63146  0.58164  0.94407  1.0000
  H   H2574     1.0  0.66546  0.51940  0.89355  1.0000
  C   C3212     1.0  0.50959  0.97502  0.95747  1.0000
  H   H2575     1.0  0.63212  0.88775  0.93980  1.0000
  C   C3213     1.0  0.49343  0.85503  0.75756  1.0000
  C   C3214     1.0  0.73301  0.57053  0.90504  1.0000
  H   H2576     1.0  0.72475  0.58359  0.81830  1.0000
  H   H2577     1.0  0.55925  0.90333  0.92967  1.0000
  H   H2578     1.0  0.59303  0.89686  0.92371  1.0000
  H   H2579     1.0  0.61381  0.94220  0.87968  1.0000
  C   C3215     1.0  0.59907  0.98259  0.97490  1.0000
  P   P110      1.0  0.72572  0.54667  0.87918  1.0000
  H   H2580     1.0  0.50523  0.96501  0.96872  1.0000
  H   H2581     1.0  0.65758  0.93877  0.91718  1.0000
  C   C3216     1.0  0.57546  0.88057  0.72540  1.0000
  H   H2582     1.0  0.60010  0.95302  0.97222  1.0000
  C   C3217     1.0  0.66957  0.93352  0.72162  1.0000
  C   C3218     1.0  0.73180  0.65831  0.85741  1.0000
  C   C3219     1.0  0.56322  0.88825  0.73899  1.0000
  C   C3220     1.0  0.54036  0.83166  0.90361  1.0000
  C   C3221     1.0  0.55318  0.81938  0.91281  1.0000
  C   C3222     1.0  0.54931  0.81296  0.93134  1.0000
  C   C3223     1.0  0.53246  0.81858  0.94066  1.0000
  H   H2583     1.0  0.71721  0.69288  0.88500  1.0000
  C   C3224     1.0  0.63689  0.98227  0.67812  1.0000
  H   H2584     1.0  0.71519  0.53905  0.94779  1.0000
  H   H2585     1.0  0.56628  0.81502  0.90562  1.0000
  H   H2586     1.0  0.65792  0.97865  0.86959  1.0000
  C   C3225     1.0  0.66061  0.66651  0.97809  1.0000
  C   C3226     1.0  0.52294  0.98172  0.92620  1.0000
  C   C3227     1.0  0.62622  0.56684  0.97095  1.0000
  C   C3228     1.0  0.55874  0.97458  0.96383  1.0000
  H   H2587     1.0  0.63575  0.94351  0.97371  1.0000
  C   C3229     1.0  0.70936  0.52947  0.87771  1.0000
  C   C3230     1.0  0.54209  0.68144  0.89737  1.0000
  C   C3231     1.0  0.65810  0.68594  0.94928  1.0000
  P   P111      1.0  0.68562  0.88651  0.75399  1.0000
  C   C3232     1.0  0.71815  0.56610  0.86344  1.0000
  C   C3233     1.0  0.68601  0.85803  0.73072  1.0000
  H   H2588     1.0  0.51103  0.84043  0.71305  1.0000
  C   C3234     1.0  0.70508  0.59543  0.83859  1.0000
  C   C3235     1.0  0.69750  0.59370  0.85691  1.0000
  C   C3236     1.0  0.70401  0.57913  0.86934  1.0000
  C   C3237     1.0  0.50591  0.59794  0.94979  1.0000
  C   C3238     1.0  0.53636  0.75193  0.81469  1.0000
  C   C3239     1.0  0.53188  0.76624  0.88164  1.0000
  C   C3240     1.0  0.51748  0.86908  0.71029  1.0000
  H   H2589     1.0  0.68826  0.54212  0.89649  1.0000
  H   H2590     1.0  0.66388  0.61838  0.82352  1.0000
  C   C3241     1.0  0.69587  0.87214  0.73631  1.0000
  C   C3242     1.0  0.64459  0.72100  0.82973  1.0000
  C   C3243     1.0  0.72031  0.86542  0.71245  1.0000
  C   C3244     1.0  0.71064  0.85103  0.70734  1.0000
  H   H2591     1.0  0.54347  0.78897  0.89256  1.0000
  H   H2592     1.0  0.67223  0.96414  0.89793  1.0000
  C   C3245     1.0  0.69978  0.50320  0.86319  1.0000
  C   C3246     1.0  0.63680  0.57722  0.95747  1.0000
  C   C3247     1.0  0.51938  0.83081  0.93147  1.0000
  H   H2593     1.0  0.56657  0.97538  0.95051  1.0000
  H   H2594     1.0  0.70015  0.60687  0.82910  1.0000
  H   H2595     1.0  0.68644  0.60357  0.86149  1.0000
  H   H2596     1.0  0.73330  0.86862  0.70493  1.0000
  H   H2597     1.0  0.63732  0.95245  0.67714  1.0000
  C   C3248     1.0  0.65393  0.73712  0.82943  1.0000
  H   H2598     1.0  0.64609  0.75053  0.82974  1.0000
  H   H2599     1.0  0.69478  0.92144  0.73273  1.0000
  H   H2600     1.0  0.68752  0.84720  0.76881  1.0000
  H   H2601     1.0  0.63932  0.88417  0.97248  1.0000
  H   H2602     1.0  0.73887  0.58931  0.92477  1.0000
  C   C3249     1.0  0.61352  0.52461  0.97792  1.0000
  H   H2603     1.0  0.73572  0.55737  0.83975  1.0000
  C   C3250     1.0  0.52360  0.51766  0.96323  1.0000
  C   C3251     1.0  0.59984  0.96370  0.98172  1.0000
  H   H2604     1.0  0.55950  0.80376  0.93852  1.0000
  C   C3252     1.0  0.65720  0.88294  0.78198  1.0000
  H   H2605     1.0  0.64145  0.64654  0.87070  1.0000
  C   C3253     1.0  0.51346  0.90709  0.97999  1.0000
  C   C3254     1.0  0.52459  0.74805  0.83054  1.0000
  C   C3255     1.0  0.51294  0.53184  0.92811  1.0000
  C   C3256     1.0  0.69651  0.67954  0.80550  1.0000
  C   C3257     1.0  0.65437  0.58181  0.96116  1.0000
  C   C3258     1.0  0.71891  0.58233  0.83253  1.0000
  C   C3259     1.0  0.52723  0.71253  0.89909  1.0000
  C   C3260     1.0  0.65135  0.96757  0.87807  1.0000
  S   S433      1.0  0.54921  0.50660  0.87960  1.0000
  C   C3261     1.0  0.69192  0.53098  0.88757  1.0000
  C   C3262     1.0  0.55326  0.95748  0.97195  1.0000
  H   H2606     1.0  0.71080  0.64135  0.97232  1.0000
  C   C3263     1.0  0.51747  0.78269  0.90724  1.0000
  C   C3264     1.0  0.65084  0.93147  0.71981  1.0000
  H   H2607     1.0  0.72170  0.87101  0.76590  1.0000
  C   C3265     1.0  0.57863  0.86130  0.72545  1.0000
  C   C3266     1.0  0.68011  0.92000  0.73216  1.0000
  H   H2608     1.0  0.64661  0.89023  0.74546  1.0000
  C   C3267     1.0  0.50688  0.52855  0.96156  1.0000
  C   C3268     1.0  0.50533  0.84465  0.97905  1.0000
  C   C3269     1.0  0.67180  0.87368  0.77175  1.0000
  C   C3270     1.0  0.67182  0.90456  0.74139  1.0000
  C   C3271     1.0  0.71293  0.51589  0.86500  1.0000
  C   C3272     1.0  0.69014  0.62445  0.98646  1.0000
  H   H2609     1.0  0.56098  0.90322  0.73903  1.0000
  H   H2610     1.0  0.72478  0.68343  0.81119  1.0000
  C   C3273     1.0  0.68328  0.71852  0.82917  1.0000
  C   C3274     1.0  0.70311  0.89600  0.76585  1.0000
  Fe  Fe218     1.0  0.67569  0.87189  0.66475  1.0000
  H   H2611     1.0  0.57564  0.86471  0.78324  1.0000
  C   C3275     1.0  0.67606  0.85459  0.77614  1.0000
  H   H2612     1.0  0.66816  0.82989  0.79286  1.0000
  H   H2613     1.0  0.68046  0.74843  0.82891  1.0000
  H   H2614     1.0  0.52985  0.81342  0.95502  1.0000
  C   C3276     1.0  0.71540  0.68164  0.80071  1.0000
  C   C3277     1.0  0.69989  0.91369  0.77242  1.0000
  H   H2615     1.0  0.68227  0.67734  0.76207  1.0000
  C   C3278     1.0  0.65013  0.64644  0.85784  1.0000
  C   C3279     1.0  0.49567  0.91335  0.97488  1.0000
  C   C3280     1.0  0.71856  0.66166  0.84423  1.0000
  H   H2616     1.0  0.68709  0.92207  0.77000  1.0000
  H   H2617     1.0  0.64290  0.61944  0.85208  1.0000
  H   H2618     1.0  0.66060  0.67281  0.86067  1.0000
  H   H2619     1.0  0.61260  0.56351  0.96780  1.0000
  H   H2620     1.0  0.72027  0.88755  0.73015  1.0000
  C   C3281     1.0  0.65105  0.63110  0.84739  1.0000
  H   H2621     1.0  0.62956  0.72202  0.83029  1.0000
  H   H2622     1.0  0.73492  0.61340  0.85555  1.0000
  H   H2623     1.0  0.51828  0.52275  0.86092  1.0000
  C   C3282     1.0  0.70495  0.63576  0.98565  1.0000
  H   H2624     1.0  0.66986  0.67722  0.79479  1.0000
  H   H2625     1.0  0.49583  0.70409  0.86241  1.0000
  H   H2626     1.0  0.69430  0.69931  0.86163  1.0000
  C   C3283     1.0  0.67397  0.70221  0.82993  1.0000
  C   C3284     1.0  0.66293  0.63051  0.83131  1.0000
  C   C3285     1.0  0.72526  0.56757  0.84483  1.0000
  H   H2627     1.0  0.68561  0.83675  0.71191  1.0000
  C   C3286     1.0  0.67380  0.64535  0.82555  1.0000
  C   C3287     1.0  0.70515  0.67674  0.84530  1.0000
  C   C3288     1.0  0.70497  0.68813  0.85994  1.0000
  C   C3289     1.0  0.71800  0.68449  0.87330  1.0000
  C   C3290     1.0  0.73140  0.66958  0.87206  1.0000
  C   C3291     1.0  0.72234  0.68175  0.78216  1.0000
  C   C3292     1.0  0.50607  0.85467  0.70914  1.0000
  C   C3293     1.0  0.50756  0.87444  0.93691  1.0000
  C   C3294     1.0  0.50456  0.79453  0.82112  1.0000
  H   H2628     1.0  0.52876  0.97690  0.91313  1.0000
  C   C3295     1.0  0.63492  0.96132  0.87295  1.0000
  C   C3296     1.0  0.52582  0.50066  0.88151  1.0000
  H   H2629     1.0  0.59883  0.98630  0.96013  1.0000
  C   C3297     1.0  0.67884  0.51824  0.88579  1.0000
  H   H2630     1.0  0.73695  0.68329  0.77857  1.0000
  H   H2631     1.0  0.49752  0.80617  0.87227  1.0000
  Fe  Fe219     1.0  0.55823  0.90132  0.98002  1.0000
  H   H2632     1.0  0.66713  0.65456  0.98573  1.0000
  H   H2633     1.0  0.51010  0.62214  0.93076  1.0000
  C   C3298     1.0  0.49343  0.89141  0.69864  1.0000
  H   H2634     1.0  0.73794  0.57952  0.89325  1.0000
  C   C3299     1.0  0.50427  0.60875  0.93292  1.0000
  C   C3300     1.0  0.72959  0.90989  0.78601  1.0000
  H   H2635     1.0  0.49347  0.81945  0.90897  1.0000
  H   H2636     1.0  0.62195  0.98408  0.67996  1.0000
  S   S434      1.0  0.70215  0.85264  0.65934  1.0000
  C   C3301     1.0  0.73261  0.89202  0.78003  1.0000
  H   H2637     1.0  0.49395  0.92321  0.96289  1.0000
  H   H2638     1.0  0.74118  0.66642  0.88269  1.0000
  C   C3302     1.0  0.55489  0.99052  0.97333  1.0000
  H   H2639     1.0  0.63170  0.64268  0.98594  1.0000
  C   C3303     1.0  0.49856  0.58057  0.95251  1.0000
  H   H2640     1.0  0.73987  0.91531  0.79369  1.0000
  C   C3304     1.0  0.49366  0.73415  0.86201  1.0000
  H   H2641     1.0  0.70168  0.81021  0.66000  1.0000
  H   H2642     1.0  0.67247  0.49465  0.87221  1.0000
  S   S435      1.0  0.60349  0.49251  0.88413  1.0000
  C   C3305     1.0  0.54387  0.95631  0.98955  1.0000
  Fe  Fe220     1.0  0.57332  0.49238  0.89493  1.0000
  C   C3306     1.0  0.49288  0.86279  0.93860  1.0000
  H   H2643     1.0  0.64104  0.91207  0.98966  1.0000
  H   H2644     1.0  0.49441  0.61036  0.90550  1.0000
  C   C3307     1.0  0.49538  0.60214  0.91871  1.0000
  H   H2645     1.0  0.70260  0.49277  0.85337  1.0000
  C   C3308     1.0  0.54533  0.98945  0.99079  1.0000
  C   C3309     1.0  0.57703  0.51875  0.99100  1.0000
  H   H2646     1.0  0.98961  0.44537  0.02488  1.0000
  S   S436      1.0  0.97664  0.40866  0.07207  1.0000
  S   S437      1.0  0.96725  0.39360  0.12702  1.0000
  H   H2647     1.0  0.95761  0.37339  0.21897  1.0000
  C   C3310     1.0  0.95918  0.30742  0.24700  1.0000
  S   S438      1.0  0.88002  0.31002  0.28883  1.0000
  Fe  Fe221     1.0  0.85845  0.38630  0.15799  1.0000
  S   S439      1.0  0.86245  0.40375  0.18096  1.0000
  S   S440      1.0  0.88076  0.38045  0.13473  1.0000
  Fe  Fe222     1.0  0.81676  0.38296  0.16940  1.0000
  S   S441      1.0  0.81837  0.40043  0.19367  1.0000
  S   S442      1.0  0.78763  0.37400  0.16407  1.0000
  Fe  Fe223     1.0  0.83538  0.41938  0.17408  1.0000
  S   S443      1.0  0.83128  0.45097  0.16663  1.0000
  Fe  Fe224     1.0  0.84546  0.38352  0.19936  1.0000
  S   S444      1.0  0.85602  0.37768  0.22890  1.0000
  S   S445      1.0  0.83231  0.40298  0.14971  1.0000
  S   S446      1.0  0.84285  0.36489  0.17642  1.0000
  C   C3311     1.0  0.77642  0.36422  0.14631  1.0000
  C   C3312     1.0  0.78591  0.35880  0.12987  1.0000
  C   C3313     1.0  0.77645  0.35103  0.11642  1.0000
  C   C3314     1.0  0.75721  0.36189  0.14882  1.0000
  H   H2648     1.0  0.80061  0.36044  0.12758  1.0000
  H   H2649     1.0  0.78410  0.34679  0.10392  1.0000
  C   C3315     1.0  0.87423  0.46444  0.22984  1.0000
  C   C3316     1.0  0.95170  0.48373  0.14767  1.0000
  C   C3317     1.0  0.83233  0.47094  0.17901  1.0000
  C   C3318     1.0  0.83227  0.46992  0.19835  1.0000
  H   H2650     1.0  0.98163  0.37236  0.16306  1.0000
  C   C3319     1.0  0.74647  0.40784  0.12726  1.0000
  H   H2651     1.0  0.83165  0.45658  0.20628  1.0000
  C   C3320     1.0  0.87395  0.32907  0.27215  1.0000
  C   C3321     1.0  0.87713  0.34752  0.27441  1.0000
  C   C3322     1.0  0.87153  0.36206  0.26110  1.0000
  C   C3323     1.0  0.86300  0.35850  0.24508  1.0000
  C   C3324     1.0  0.86003  0.34005  0.24272  1.0000
  C   C3325     1.0  0.86538  0.32552  0.25617  1.0000
  H   H2652     1.0  0.88371  0.35063  0.28650  1.0000
  H   H2653     1.0  0.87374  0.37623  0.26331  1.0000
  H   H2654     1.0  0.85336  0.33699  0.23066  1.0000
  H   H2655     1.0  0.86278  0.31138  0.25419  1.0000
  H   H2656     1.0  0.92592  0.21007  0.31877  1.0000
  H   H2657     1.0  0.97280  0.47937  0.02490  1.0000
  C   C3326     1.0  0.90468  0.38468  0.13295  1.0000
  C   C3327     1.0  0.91482  0.38352  0.11569  1.0000
  C   C3328     1.0  0.93389  0.38642  0.11360  1.0000
  C   C3329     1.0  0.94313  0.39028  0.12884  1.0000
  C   C3330     1.0  0.93303  0.39133  0.14616  1.0000
  C   C3331     1.0  0.91387  0.38875  0.14817  1.0000
  H   H2658     1.0  0.90789  0.38024  0.10386  1.0000
  H   H2659     1.0  0.94148  0.38536  0.10026  1.0000
  H   H2660     1.0  0.94002  0.39428  0.15806  1.0000
  H   H2661     1.0  0.90622  0.38985  0.16147  1.0000
  C   C3332     1.0  0.94860  0.42924  0.22980  1.0000
  S   S447      1.0  0.96599  0.29256  0.31479  1.0000
  C   C3333     1.0  0.75729  0.34861  0.11897  1.0000
  H   H2662     1.0  0.91144  0.33465  0.25565  1.0000
  C   C3334     1.0  0.95158  0.46098  0.02118  1.0000
  Fe  Fe225     1.0  0.98598  0.39773  0.10023  1.0000
  H   H2663     1.0  0.84223  0.31433  0.31904  1.0000
  C   C3335     1.0  0.95534  0.24456  0.31443  1.0000
  H   H2664     1.0  0.96065  0.34871  0.15718  1.0000
  C   C3336     1.0  0.88855  0.34609  0.18167  1.0000
  C   C3337     1.0  0.91875  0.48944  0.18778  1.0000
  C   C3338     1.0  0.90151  0.48303  0.19434  1.0000
  C   C3339     1.0  0.91971  0.36896  0.23191  1.0000
  H   H2665     1.0  0.77491  0.40468  0.13442  1.0000
  H   H2666     1.0  0.96102  0.32313  0.22039  1.0000
  C   C3340     1.0  0.94858  0.30407  0.26377  1.0000
  H   H2667     1.0  0.96027  0.48695  0.05587  1.0000
  H   H2668     1.0  0.93044  0.39049  0.26918  1.0000
  C   C3341     1.0  0.92328  0.38792  0.25723  1.0000
  H   H2669     1.0  0.86797  0.32638  0.18149  1.0000
  C   C3342     1.0  0.94546  0.35520  0.20206  1.0000
  H   H2670     1.0  0.90972  0.36394  0.18555  1.0000
  P   P112      1.0  0.96106  0.45508  0.99853  1.0000
  H   H2671     1.0  0.90045  0.47491  0.10624  1.0000
  C   C3343     1.0  0.93522  0.45362  0.02922  1.0000
  H   H2672     1.0  0.96002  0.42226  0.23714  1.0000
  H   H2673     1.0  0.74961  0.36605  0.16138  1.0000
  H   H2674     1.0  0.76992  0.42637  0.15888  1.0000
  C   C3344     1.0  0.92941  0.47262  0.11213  1.0000
  H   H2675     1.0  0.95930  0.42078  0.02337  1.0000
  C   C3345     1.0  0.95316  0.39955  0.00659  1.0000
  H   H2676     1.0  0.93067  0.47973  0.18546  1.0000
  C   C3346     1.0  0.78649  0.47713  0.17706  1.0000
  H   H2677     1.0  0.87656  0.30905  0.21114  1.0000
  C   C3347     1.0  0.93687  0.47047  0.05631  1.0000
  H   H2678     1.0  0.96922  0.47428  0.16987  1.0000
  C   C3348     1.0  0.93025  0.43695  0.09970  1.0000
  H   H2679     1.0  0.95343  0.38879  0.01804  1.0000
  H   H2680     1.0  0.79095  0.47069  0.19024  1.0000
  H   H2681     1.0  0.94533  0.47069  0.14827  1.0000
  H   H2682     1.0  0.94105  0.36367  0.25150  1.0000
  H   H2683     1.0  0.86595  0.33715  0.31605  1.0000
  H   H2684     1.0  0.93705  0.23505  0.29594  1.0000
  C   C3349     1.0  0.90797  0.34191  0.20786  1.0000
  C   C3350     1.0  0.93653  0.21857  0.32224  1.0000
  H   H2685     1.0  0.88593  0.40438  0.23351  1.0000
  C   C3351     1.0  0.97113  0.37402  0.19160  1.0000
  C   C3352     1.0  0.91330  0.46616  0.10626  1.0000
  C   C3353     1.0  0.94607  0.46128  0.11106  1.0000
  C   C3354     1.0  0.88024  0.44065  0.15297  1.0000
  C   C3355     1.0  0.89646  0.43401  0.14330  1.0000
  C   C3356     1.0  0.91368  0.43589  0.15001  1.0000
  C   C3357     1.0  0.91463  0.44360  0.16685  1.0000
  C   C3358     1.0  0.89828  0.44919  0.17723  1.0000
  C   C3359     1.0  0.88115  0.44840  0.16979  1.0000
  P   P113      1.0  0.89936  0.45846  0.19932  1.0000
  C   C3360     1.0  0.91896  0.44725  0.21084  1.0000
  C   C3361     1.0  0.95683  0.43160  0.99468  1.0000
  C   C3362     1.0  0.98592  0.45622  0.99644  1.0000
  C   C3363     1.0  0.92797  0.45827  0.04679  1.0000
  C   C3364     1.0  0.90430  0.38081  0.22684  1.0000
  C   C3365     1.0  0.95650  0.41773  0.00956  1.0000
  C   C3366     1.0  0.83250  0.48628  0.20749  1.0000
  C   C3367     1.0  0.92870  0.45705  0.22224  1.0000
  C   C3368     1.0  0.93871  0.41935  0.21876  1.0000
  C   C3369     1.0  0.92382  0.42824  0.20947  1.0000
  C   C3370     1.0  0.87981  0.45316  0.21535  1.0000
  C   C3371     1.0  0.87116  0.43670  0.21455  1.0000
  H   H2686     1.0  0.86687  0.43932  0.14768  1.0000
  H   H2687     1.0  0.89563  0.42720  0.13074  1.0000
  H   H2688     1.0  0.92626  0.43094  0.14233  1.0000
  H   H2689     1.0  0.92808  0.44478  0.17191  1.0000
  H   H2690     1.0  0.86846  0.45332  0.17721  1.0000
  C   C3372     1.0  0.96505  0.48580  0.16010  1.0000
  Fe  Fe226     1.0  0.89611  0.30091  0.31503  1.0000
  H   H2691     1.0  0.95103  0.45570  0.24037  1.0000
  H   H2692     1.0  0.90182  0.31860  0.22783  1.0000
  H   H2693     1.0  0.90121  0.44327  0.09589  1.0000
  H   H2694     1.0  0.91600  0.42021  0.20138  1.0000
  H   H2695     1.0  0.87591  0.42729  0.20419  1.0000
  C   C3373     1.0  0.78409  0.46606  0.16282  1.0000
  H   H2696     1.0  0.92815  0.44416  0.02201  1.0000
  S   S448      1.0  0.91582  0.27541  0.31160  1.0000
  H   H2697     1.0  0.97254  0.29981  0.24478  1.0000
  H   H2698     1.0  0.83924  0.44002  0.25123  1.0000
  H   H2699     1.0  0.91562  0.45220  0.05317  1.0000
  H   H2700     1.0  0.92471  0.47155  0.22408  1.0000
  C   C3374     1.0  0.93539  0.33067  0.23624  1.0000
  C   C3375     1.0  0.85655  0.43201  0.22739  1.0000
  H   H2701     1.0  0.74794  0.29502  0.10760  1.0000
  C   C3376     1.0  0.93133  0.31381  0.26671  1.0000
  C   C3377     1.0  0.96018  0.47349  0.03071  1.0000
  C   C3378     1.0  0.91372  0.44835  0.10014  1.0000
  H   H2702     1.0  0.90290  0.41110  0.26015  1.0000
  C   C3379     1.0  0.96008  0.35386  0.17081  1.0000
  H   H2703     1.0  0.93058  0.42309  0.09513  1.0000
  C   C3380     1.0  0.89837  0.39593  0.23700  1.0000
  H   H2704     1.0  0.89931  0.47724  0.14079  1.0000
  C   C3381     1.0  0.97194  0.36721  0.17413  1.0000
  C   C3382     1.0  0.95260  0.32065  0.23323  1.0000
  H   H2705     1.0  0.95927  0.43462  0.10460  1.0000
  C   C3383     1.0  0.94642  0.44344  0.10509  1.0000
  C   C3384     1.0  0.85957  0.45978  0.24266  1.0000
  H   H2706     1.0  0.99070  0.35740  0.00194  1.0000
  H   H2707     1.0  0.78692  0.45114  0.16502  1.0000
  C   C3385     1.0  0.94355  0.44808  0.23159  1.0000
  H   H2708     1.0  0.91726  0.48894  0.01836  1.0000
  H   H2709     1.0  0.88477  0.35372  0.16875  1.0000
  C   C3386     1.0  0.90781  0.39952  0.25216  1.0000
  C   C3387     1.0  0.85067  0.44361  0.24138  1.0000
  H   H2710     1.0  0.93808  0.33724  0.18186  1.0000
  C   C3388     1.0  0.92478  0.32710  0.25305  1.0000
  C   C3389     1.0  0.88406  0.32084  0.20545  1.0000
  H   H2711     1.0  0.95887  0.46625  0.11465  1.0000
  H   H2712     1.0  0.95373  0.29398  0.27455  1.0000
  H   H2713     1.0  0.94231  0.40469  0.21762  1.0000
  P   P114      1.0  0.92720  0.34887  0.21940  1.0000
  C   C3390     1.0  0.89842  0.32640  0.21495  1.0000
  C   C3391     1.0  0.87917  0.33063  0.18880  1.0000
  H   H2714     1.0  0.92301  0.31114  0.27964  1.0000
  H   H2715     1.0  0.85503  0.46878  0.25352  1.0000
  C   C3392     1.0  0.77898  0.47431  0.14559  1.0000
  H   H2716     1.0  0.89634  0.37816  0.21550  1.0000
  H   H2717     1.0  0.84982  0.41931  0.22651  1.0000
  H   H2718     1.0  0.95963  0.25597  0.30475  1.0000
  C   C3393     1.0  0.92921  0.37269  0.24717  1.0000
  C   C3394     1.0  0.94712  0.34760  0.18480  1.0000
  C   C3395     1.0  0.90274  0.35182  0.19123  1.0000
  C   C3396     1.0  0.95804  0.36795  0.20557  1.0000
  C   C3397     1.0  0.94266  0.23275  0.30945  1.0000
  H   H2719     1.0  0.77741  0.46566  0.13449  1.0000
  C   C3398     1.0  0.76131  0.41180  0.13702  1.0000
  H   H2720     1.0  0.88115  0.47684  0.23128  1.0000
  H   H2721     1.0  0.98050  0.38422  0.19418  1.0000
  H   H2722     1.0  0.87235  0.49129  0.20030  1.0000
  H   H2723     1.0  0.93157  0.47385  0.07004  1.0000
  C   C3399     1.0  0.95294  0.47807  0.04825  1.0000
  H   H2724     1.0  0.74896  0.39748  0.11735  1.0000
  C   C3400     1.0  0.83265  0.48851  0.16898  1.0000
  H   H2725     1.0  0.83222  0.48533  0.22248  1.0000
  H   H2726     1.0  0.99031  0.45610  0.10014  1.0000
  S   S449      1.0  0.74624  0.33835  0.10142  1.0000
  H   H2727     1.0  0.87050  0.48926  0.15729  1.0000
  C   C3401     1.0  0.74773  0.35419  0.13532  1.0000
  H   H2728     1.0  0.83907  0.09344  0.32242  1.0000
  H   H2729     1.0  0.74872  0.31037  0.13651  1.0000
  H   H2730     1.0  0.83255  0.48946  0.15403  1.0000
  C   C3402     1.0  0.75849  0.42410  0.15083  1.0000
  H   H2731     1.0  0.85245  0.06069  0.32379  1.0000
  C   C3403     1.0  0.89592  0.49209  0.14020  1.0000
  Fe  Fe227     1.0  0.91447  0.41087  0.48632  1.0000
  S   S450      1.0  0.92579  0.38986  0.50842  1.0000
  S   S451      1.0  0.92032  0.44158  0.48228  1.0000
  Fe  Fe228     1.0  0.90521  0.38010  0.46189  1.0000
  S   S452      1.0  0.91529  0.35700  0.48235  1.0000
  S   S453      1.0  0.89605  0.37895  0.43263  1.0000
  Fe  Fe229     1.0  0.90112  0.37419  0.50448  1.0000
  S   S454      1.0  0.88421  0.35938  0.52833  1.0000
  Fe  Fe230     1.0  0.93901  0.37427  0.48496  1.0000
  S   S455      1.0  0.96836  0.36200  0.48124  1.0000
  S   S456      1.0  0.88875  0.39623  0.48362  1.0000
  S   S457      1.0  0.92991  0.39617  0.46324  1.0000
  C   C3404     1.0  0.95743  0.25663  0.38666  1.0000
  H   H2732     1.0  0.80982  0.07433  0.56756  1.0000
  S   S458      1.0  0.88374  0.01813  0.37409  1.0000
  C   C3405     1.0  0.96815  0.18601  0.36697  1.0000
  S   S459      1.0  0.86891  0.02012  0.56829  1.0000
  H   H2733     1.0  0.83927  0.06361  0.52817  1.0000
  C   C3406     1.0  0.98030  0.48843  0.51425  1.0000
  C   C3407     1.0  0.97881  0.28392  0.59633  1.0000
  H   H2734     1.0  0.97822  0.47193  0.46789  1.0000
  Fe  Fe231     1.0  0.90488  0.30923  0.62868  1.0000
  S   S460      1.0  0.91878  0.28131  0.62233  1.0000
  S   S461      1.0  0.90971  0.33596  0.61007  1.0000
  C   C3408     1.0  0.78458  0.31784  0.41213  1.0000
  C   C3409     1.0  0.82210  0.06127  0.42343  1.0000
  C   C3410     1.0  0.90009  0.48463  0.55957  1.0000
  H   H2735     1.0  0.87100  0.28555  0.38358  1.0000
  H   H2736     1.0  0.93166  0.00138  0.46368  1.0000
  C   C3411     1.0  0.81592  0.01619  0.36993  1.0000
  Fe  Fe232     1.0  0.83129  0.11922  0.59306  1.0000
  S   S462      1.0  0.80868  0.11327  0.57562  1.0000
  S   S463      1.0  0.85230  0.09695  0.60494  1.0000
  Fe  Fe233     1.0  0.82107  0.16143  0.59015  1.0000
  S   S464      1.0  0.79752  0.15804  0.57208  1.0000
  S   S465      1.0  0.82587  0.19122  0.59745  1.0000
  Fe  Fe234     1.0  0.79029  0.13329  0.59223  1.0000
  S   S466      1.0  0.75935  0.12812  0.60020  1.0000
  Fe  Fe235     1.0  0.81726  0.13797  0.55676  1.0000
  S   S467      1.0  0.82603  0.13395  0.52607  1.0000
  S   S468      1.0  0.81255  0.13788  0.61107  1.0000
  S   S469      1.0  0.84111  0.14288  0.57354  1.0000
  Fe  Fe236     1.0  0.83137  0.11531  0.39893  1.0000
  S   S470      1.0  0.80203  0.10950  0.40845  1.0000
  S   S471      1.0  0.85483  0.09430  0.40771  1.0000
  Fe  Fe237     1.0  0.82101  0.15608  0.38518  1.0000
  S   S472      1.0  0.79067  0.15274  0.39394  1.0000
  S   S473      1.0  0.82821  0.18537  0.37241  1.0000
  Fe  Fe238     1.0  0.80083  0.13726  0.42028  1.0000
  S   S474      1.0  0.78688  0.14180  0.44913  1.0000
  Fe  Fe239     1.0  0.79407  0.12512  0.38146  1.0000
  P   P115      1.0  0.80907  0.03945  0.37631  1.0000
  S   S475      1.0  0.83055  0.14231  0.41230  1.0000
  S   S476      1.0  0.82400  0.12928  0.37112  1.0000
  Fe  Fe240     1.0  0.90534  0.30151  0.35590  1.0000
  S   S477      1.0  0.92568  0.27648  0.35395  1.0000
  S   S478      1.0  0.90216  0.30807  0.38634  1.0000
  Fe  Fe241     1.0  0.90389  0.26384  0.33969  1.0000
  S   S479      1.0  0.89881  0.23332  0.35021  1.0000
  H   H2737     1.0  0.79747  0.10058  0.62179  1.0000
  H   H2738     1.0  0.81226  0.04482  0.53230  1.0000
  S   S480      1.0  0.88318  0.28831  0.34247  1.0000
  C   C3412     1.0  0.97511  0.41488  0.48279  1.0000
  H   H2739     1.0  0.92418  0.06482  0.37630  1.0000
  H   H2740     1.0  0.84413  0.01676  0.37744  1.0000
  C   C3413     1.0  0.81971  0.26366  0.43970  1.0000
  C   C3414     1.0  0.84817  0.19808  0.36548  1.0000
  C   C3415     1.0  0.86633  0.19049  0.36771  1.0000
  C   C3416     1.0  0.88155  0.20141  0.36273  1.0000
  C   C3417     1.0  0.87895  0.22008  0.35537  1.0000
  C   C3418     1.0  0.86082  0.22754  0.35268  1.0000
  C   C3419     1.0  0.84560  0.21663  0.35773  1.0000
  H   H2741     1.0  0.86863  0.17620  0.37332  1.0000
  H   H2742     1.0  0.89547  0.19535  0.36461  1.0000
  H   H2743     1.0  0.85850  0.24179  0.34691  1.0000
  H   H2744     1.0  0.83168  0.22270  0.35574  1.0000
  C   C3420     1.0  0.79900  0.07366  0.55831  1.0000
  C   C3421     1.0  0.81881  0.08830  0.34519  1.0000
  C   C3422     1.0  0.96971  0.06946  0.40832  1.0000
  C   C3423     1.0  0.81465  0.13614  0.50495  1.0000
  C   C3424     1.0  0.82491  0.13143  0.48851  1.0000
  C   C3425     1.0  0.81671  0.13323  0.47133  1.0000
  C   C3426     1.0  0.79804  0.13962  0.47038  1.0000
  C   C3427     1.0  0.78775  0.14422  0.48683  1.0000
  C   C3428     1.0  0.79598  0.14253  0.50400  1.0000
  H   H2745     1.0  0.83932  0.12636  0.48905  1.0000
  H   H2746     1.0  0.82480  0.12956  0.45886  1.0000
  H   H2747     1.0  0.77329  0.14914  0.48628  1.0000
  H   H2748     1.0  0.78789  0.14622  0.51648  1.0000
  C   C3429     1.0  0.86791  0.22798  0.61955  1.0000
  C   C3430     1.0  0.85012  0.23525  0.61511  1.0000
  C   C3431     1.0  0.83761  0.22383  0.60842  1.0000
  C   C3432     1.0  0.84261  0.20495  0.60578  1.0000
  C   C3433     1.0  0.86050  0.19775  0.60996  1.0000
  H   H2749     1.0  0.86599  0.33528  0.37526  1.0000
  H   H2750     1.0  0.84590  0.24965  0.61703  1.0000
  H   H2751     1.0  0.82391  0.22970  0.60524  1.0000
  C   C3434     1.0  0.78401  0.06288  0.56376  1.0000
  H   H2752     1.0  0.91837  0.08472  0.43096  1.0000
  C   C3435     1.0  0.77060  0.06149  0.55111  1.0000
  H   H2753     1.0  0.93764  0.20549  0.34985  1.0000
  C   C3436     1.0  0.84100  0.06471  0.33345  1.0000
  C   C3437     1.0  0.86433  0.04101  0.57933  1.0000
  C   C3438     1.0  0.85148  0.05469  0.57184  1.0000
  C   C3439     1.0  0.84766  0.07175  0.57966  1.0000
  C   C3440     1.0  0.85656  0.07533  0.59518  1.0000
  C   C3441     1.0  0.86928  0.06159  0.60288  1.0000
  C   C3442     1.0  0.87319  0.04447  0.59498  1.0000
  H   H2754     1.0  0.84482  0.05228  0.55961  1.0000
  H   H2755     1.0  0.83840  0.08247  0.57329  1.0000
  H   H2756     1.0  0.87629  0.06426  0.61488  1.0000
  H   H2757     1.0  0.88316  0.03408  0.60087  1.0000
  H   H2758     1.0  0.96454  0.01519  0.46605  1.0000
  H   H2759     1.0  0.75999  0.33121  0.40034  1.0000
  H   H2760     1.0  0.85210  0.17186  0.46405  1.0000
  C   C3443     1.0  0.87508  0.03909  0.38362  1.0000
  C   C3444     1.0  0.86939  0.05460  0.37175  1.0000
  C   C3445     1.0  0.86223  0.07138  0.37893  1.0000
  C   C3446     1.0  0.86139  0.07295  0.39806  1.0000
  C   C3447     1.0  0.86733  0.05750  0.40987  1.0000
  C   C3448     1.0  0.87384  0.04058  0.40276  1.0000
  H   H2761     1.0  0.87072  0.05367  0.35693  1.0000
  H   H2762     1.0  0.85794  0.08325  0.36963  1.0000
  H   H2763     1.0  0.86663  0.05854  0.42466  1.0000
  H   H2764     1.0  0.87792  0.02873  0.41211  1.0000
  H   H2765     1.0  0.85157  0.23086  0.39184  1.0000
  C   C3449     1.0  0.86323  0.25743  0.38751  1.0000
  C   C3450     1.0  0.85958  0.27673  0.38653  1.0000
  C   C3451     1.0  0.84871  0.24583  0.39124  1.0000
  C   C3452     1.0  0.90041  0.35953  0.41926  1.0000
  C   C3453     1.0  0.90621  0.34190  0.42726  1.0000
  C   C3454     1.0  0.90740  0.32641  0.41670  1.0000
  C   C3455     1.0  0.90336  0.32843  0.39792  1.0000
  C   C3456     1.0  0.89881  0.34626  0.38959  1.0000
  C   C3457     1.0  0.89706  0.36167  0.40030  1.0000
  H   H2766     1.0  0.90894  0.34006  0.44180  1.0000
  H   H2767     1.0  0.91097  0.31270  0.42327  1.0000
  H   H2768     1.0  0.89592  0.34807  0.37511  1.0000
  H   H2769     1.0  0.89271  0.37528  0.39395  1.0000
  C   C3458     1.0  0.89214  0.35248  0.55069  1.0000
  C   C3459     1.0  0.90731  0.36003  0.55715  1.0000
  C   C3460     1.0  0.91271  0.35460  0.57525  1.0000
  C   C3461     1.0  0.90333  0.34123  0.58690  1.0000
  C   C3462     1.0  0.88839  0.33347  0.58032  1.0000
  C   C3463     1.0  0.88267  0.33927  0.56241  1.0000
  H   H2770     1.0  0.91472  0.37023  0.54833  1.0000
  H   H2771     1.0  0.92412  0.36091  0.58028  1.0000
  H   H2772     1.0  0.88091  0.32333  0.58919  1.0000
  H   H2773     1.0  0.87089  0.33340  0.55757  1.0000
  C   C3464     1.0  0.74697  0.06626  0.59237  1.0000
  H   H2774     1.0  0.95284  0.20835  0.40529  1.0000
  H   H2775     1.0  0.97788  0.06825  0.46068  1.0000
  C   C3465     1.0  0.74408  0.11599  0.61699  1.0000
  H   H2776     1.0  0.96305  0.37349  0.51901  1.0000
  C   C3466     1.0  0.90967  0.46317  0.48889  1.0000
  C   C3467     1.0  0.89502  0.46450  0.50255  1.0000
  H   H2777     1.0  0.89124  0.35208  0.65369  1.0000
  C   C3468     1.0  0.91733  0.47952  0.48100  1.0000
  H   H2778     1.0  0.88881  0.45207  0.50852  1.0000
  H   H2779     1.0  0.92858  0.47863  0.47037  1.0000
  H   H2780     1.0  0.84114  0.16964  0.63063  1.0000
  H   H2781     1.0  0.91553  0.03434  0.38909  1.0000
  C   C3469     1.0  0.98742  0.28283  0.34513  1.0000
  H   H2782     1.0  0.84058  0.00523  0.49716  1.0000
  C   C3470     1.0  0.96924  0.42571  0.46705  1.0000
  H   H2783     1.0  0.80993  0.23842  0.43244  1.0000
  C   C3471     1.0  0.96549  0.47378  0.44167  1.0000
  P   P116      1.0  0.97424  0.45087  0.43561  1.0000
  C   C3472     1.0  0.95576  0.44052  0.42579  1.0000
  C   C3473     1.0  0.95907  0.43050  0.41000  1.0000
  C   C3474     1.0  0.94463  0.42199  0.40323  1.0000
  H   H2784     1.0  0.98457  0.33285  0.45039  1.0000
  C   C3475     1.0  0.79209  0.02633  0.58207  1.0000
  H   H2785     1.0  0.81449  0.07188  0.39635  1.0000
  S   S481      1.0  0.91938  0.99307  0.56431  1.0000
  H   H2786     1.0  0.80260  0.19293  0.63061  1.0000
  S   S482      1.0  0.91867  0.30955  0.65550  1.0000
  H   H2787     1.0  0.87904  0.44603  0.59338  1.0000
  C   C3476     1.0  0.93378  0.02406  0.44238  1.0000
  H   H2788     1.0  0.82197  0.20638  0.51565  1.0000
  C   C3477     1.0  0.83387  0.05145  0.34679  1.0000
  H   H2789     1.0  0.95510  0.42534  0.46352  1.0000
  C   C3478     1.0  0.97552  0.26662  0.60570  1.0000
  C   C3479     1.0  0.75352  0.10671  0.35601  1.0000
  C   C3480     1.0  0.82554  0.02783  0.42937  1.0000
  H   H2790     1.0  0.83248  0.00340  0.56643  1.0000
  H   H2791     1.0  0.94691  0.43148  0.51012  1.0000
  H   H2792     1.0  0.83057  0.04697  0.44911  1.0000
  H   H2793     1.0  0.81246  0.27849  0.39349  1.0000
  S   S483      1.0  0.77568  0.11407  0.36062  1.0000
  H   H2794     1.0  0.98087  0.33551  0.41166  1.0000
  C   C3481     1.0  0.85756  0.30818  0.41919  1.0000
  C   C3482     1.0  0.86479  0.31609  0.43369  1.0000
  C   C3483     1.0  0.86206  0.33523  0.43515  1.0000
  C   C3484     1.0  0.85211  0.34651  0.42210  1.0000
  H   H2795     1.0  0.86007  0.29337  0.41830  1.0000
  H   H2796     1.0  0.87299  0.30748  0.44353  1.0000
  H   H2797     1.0  0.86812  0.34146  0.44606  1.0000
  H   H2798     1.0  0.85051  0.36143  0.42299  1.0000
  H   H2799     1.0  0.87726  0.25146  0.38476  1.0000
  C   C3485     1.0  0.88962  0.48919  0.57571  1.0000
  H   H2800     1.0  0.96771  0.30738  0.64169  1.0000
  H   H2801     1.0  0.82295  0.07500  0.42794  1.0000
  Fe  Fe242     1.0  0.89430  0.99388  0.39362  1.0000
  C   C3486     1.0  0.97388  0.28811  0.57797  1.0000
  Fe  Fe243     1.0  0.88958  0.99563  0.57585  1.0000
  P   P117      1.0  0.97744  0.31064  0.56590  1.0000
  C   C3487     1.0  0.95837  0.31719  0.55134  1.0000
  C   C3488     1.0  0.97709  0.32728  0.58304  1.0000
  C   C3489     1.0  0.96014  0.33490  0.59082  1.0000
  C   C3490     1.0  0.95982  0.34717  0.60462  1.0000
  C   C3491     1.0  0.98863  0.07585  0.43273  1.0000
  C   C3492     1.0  0.96671  0.01456  0.38272  1.0000
  C   C3493     1.0  0.96958  0.48036  0.45838  1.0000
  C   C3494     1.0  0.96118  0.32721  0.53393  1.0000
  C   C3495     1.0  0.94633  0.33195  0.52275  1.0000
  C   C3496     1.0  0.92863  0.32669  0.52878  1.0000
  C   C3497     1.0  0.92573  0.31670  0.54602  1.0000
  C   C3498     1.0  0.94044  0.31213  0.55735  1.0000
  H   H2802     1.0  0.81926  0.01212  0.40745  1.0000
  H   H2803     1.0  0.83322  0.05052  0.62868  1.0000
  C   C3499     1.0  0.75584  0.04010  0.61400  1.0000
  C   C3500     1.0  0.96006  0.16407  0.39303  1.0000
  C   C3501     1.0  0.92337  0.43368  0.42755  1.0000
  C   C3502     1.0  0.77311  0.04400  0.39324  1.0000
  H   H2804     1.0  0.77800  0.19046  0.60979  1.0000
  C   C3503     1.0  0.83353  0.08314  0.33270  1.0000
  H   H2805     1.0  0.76131  0.14128  0.64227  1.0000
  H   H2806     1.0  0.96431  0.24023  0.60441  1.0000
  C   C3504     1.0  0.79994  0.08393  0.54099  1.0000
  H   H2807     1.0  0.94708  0.33117  0.58657  1.0000
  H   H2808     1.0  0.94659  0.35272  0.61066  1.0000
  C   C3505     1.0  0.75989  0.05154  0.59770  1.0000
  C   C3506     1.0  0.94599  0.26902  0.39697  1.0000
  C   C3507     1.0  0.81140  0.04985  0.61026  1.0000
  H   H2809     1.0  0.97470  0.33149  0.52884  1.0000
  H   H2810     1.0  0.94851  0.33977  0.50940  1.0000
  H   H2811     1.0  0.91707  0.33058  0.52023  1.0000
  H   H2812     1.0  0.91194  0.31281  0.55078  1.0000
  C   C3508     1.0  0.95638  0.22754  0.34489  1.0000
  H   H2813     1.0  0.76679  0.01298  0.59073  1.0000
  C   C3509     1.0  0.78617  0.08306  0.52875  1.0000
  H   H2814     1.0  0.97144  0.26004  0.38238  1.0000
  H   H2815     1.0  0.78679  0.09131  0.51546  1.0000
  C   C3510     1.0  0.96734  0.25339  0.59687  1.0000
  H   H2816     1.0  0.94730  0.41391  0.39133  1.0000
  H   H2817     1.0  0.87069  0.16113  0.41062  1.0000
  C   C3511     1.0  0.93183  0.23727  0.38616  1.0000
  C   C3512     1.0  0.92047  0.24964  0.39656  1.0000
  H   H2818     1.0  0.93467  0.45044  0.44604  1.0000
  H   H2819     1.0  0.81270  0.01561  0.51696  1.0000
  C   C3513     1.0  0.94157  0.49134  0.52011  1.0000
  C   C3514     1.0  0.80126  0.08636  0.61872  1.0000
  C   C3515     1.0  0.96260  0.20089  0.37774  1.0000
  C   C3516     1.0  0.98066  0.29991  0.64533  1.0000
  H   H2820     1.0  0.90601  0.24735  0.39979  1.0000
  C   C3517     1.0  0.82026  0.02596  0.41154  1.0000
  C   C3518     1.0  0.81044  0.02341  0.57460  1.0000
  C   C3519     1.0  0.88868  0.48199  0.50876  1.0000
  C   C3520     1.0  0.77161  0.07169  0.53373  1.0000
  H   H2821     1.0  0.80007  0.07946  0.36792  1.0000
  H   H2822     1.0  0.86725  0.11426  0.63422  1.0000
  C   C3521     1.0  0.98563  0.07639  0.41387  1.0000
  H   H2823     1.0  0.98488  0.29403  0.60363  1.0000
  H   H2824     1.0  0.97347  0.18862  0.35266  1.0000
  H   H2825     1.0  0.76606  0.02950  0.61912  1.0000
  C   C3522     1.0  0.85583  0.18158  0.42702  1.0000
  H   H2826     1.0  0.86483  0.18342  0.60784  1.0000
  H   H2827     1.0  0.97658  0.46278  0.50226  1.0000
  H   H2828     1.0  0.75020  0.07627  0.58078  1.0000
  H   H2829     1.0  0.82427  0.08290  0.63605  1.0000
  H   H2830     1.0  0.95710  0.99812  0.36267  1.0000
  C   C3523     1.0  0.85566  0.14259  0.63091  1.0000
  C   C3524     1.0  0.98383  0.36629  0.49744  1.0000
  C   C3525     1.0  0.86000  0.08246  0.45711  1.0000
  C   C3526     1.0  0.87029  0.09804  0.45425  1.0000
  C   C3527     1.0  0.88250  0.10140  0.46731  1.0000
  C   C3528     1.0  0.88432  0.08922  0.48333  1.0000
  C   C3529     1.0  0.87390  0.07358  0.48639  1.0000
  C   C3530     1.0  0.86181  0.07023  0.47306  1.0000
  P   P118      1.0  0.87574  0.05836  0.50753  1.0000
  C   C3531     1.0  0.89663  0.04287  0.50641  1.0000
  C   C3532     1.0  0.87626  0.07267  0.52660  1.0000
  C   C3533     1.0  0.88750  0.06698  0.54133  1.0000
  C   C3534     1.0  0.88848  0.07849  0.55562  1.0000
  C   C3535     1.0  0.87811  0.09564  0.55544  1.0000
  C   C3536     1.0  0.86667  0.10127  0.54102  1.0000
  C   C3537     1.0  0.86571  0.08987  0.52664  1.0000
  C   C3538     1.0  0.89729  0.02559  0.51701  1.0000
  C   C3539     1.0  0.91333  0.01350  0.51615  1.0000
  C   C3540     1.0  0.92904  0.01875  0.50521  1.0000
  C   C3541     1.0  0.92869  0.03612  0.49503  1.0000
  C   C3542     1.0  0.91252  0.04811  0.49551  1.0000
  C   C3543     1.0  0.85577  0.04476  0.51082  1.0000
  C   C3544     1.0  0.85581  0.02831  0.50193  1.0000
  C   C3545     1.0  0.84033  0.01786  0.50412  1.0000
  C   C3546     1.0  0.82468  0.02373  0.51518  1.0000
  C   C3547     1.0  0.82442  0.04020  0.52383  1.0000
  C   C3548     1.0  0.83984  0.05079  0.52154  1.0000
  H   H2831     1.0  0.85045  0.08005  0.44699  1.0000
  H   H2832     1.0  0.86857  0.10756  0.44193  1.0000
  H   H2833     1.0  0.89030  0.11361  0.46518  1.0000
  H   H2834     1.0  0.89359  0.09218  0.49350  1.0000
  H   H2835     1.0  0.85352  0.05839  0.47496  1.0000
  H   H2836     1.0  0.89527  0.05355  0.54210  1.0000
  H   H2837     1.0  0.89677  0.07383  0.56721  1.0000
  H   H2838     1.0  0.87841  0.10426  0.56686  1.0000
  H   H2839     1.0  0.85836  0.11440  0.54113  1.0000
  H   H2840     1.0  0.85664  0.09451  0.51566  1.0000
  H   H2841     1.0  0.88548  0.02145  0.52610  1.0000
  H   H2842     1.0  0.91362  0.00007  0.52410  1.0000
  H   H2843     1.0  0.94145  0.00933  0.50472  1.0000
  H   H2844     1.0  0.94089  0.04019  0.48658  1.0000
  H   H2845     1.0  0.91249  0.06136  0.48735  1.0000
  H   H2846     1.0  0.86776  0.02356  0.49322  1.0000
  H   H2847     1.0  0.87804  0.34732  0.34423  1.0000
  C   C3549     1.0  0.87293  0.20911  0.61687  1.0000
  H   H2848     1.0  0.94251  0.46544  0.50770  1.0000
  H   H2849     1.0  0.95639  0.24702  0.57166  1.0000
  C   C3550     1.0  0.96629  0.27446  0.56895  1.0000
  H   H2850     1.0  0.81918  0.24447  0.39531  1.0000
  C   C3551     1.0  0.99070  0.37591  0.52721  1.0000
  C   C3552     1.0  0.86713  0.33784  0.34559  1.0000
  C   C3553     1.0  0.86019  0.33101  0.36321  1.0000
  C   C3554     1.0  0.84748  0.31943  0.40603  1.0000
  C   C3555     1.0  0.84468  0.33865  0.40771  1.0000
  C   C3556     1.0  0.93498  0.01611  0.37435  1.0000
  H   H2851     1.0  0.96755  0.06993  0.39365  1.0000
  H   H2852     1.0  0.82907  0.01555  0.43852  1.0000
  C   C3557     1.0  0.92687  0.42330  0.41221  1.0000
  H   H2853     1.0  0.97610  0.36127  0.62167  1.0000
  C   C3558     1.0  0.84134  0.28461  0.38918  1.0000
  C   C3559     1.0  0.83045  0.25354  0.39327  1.0000
  H   H2854     1.0  0.83698  0.34759  0.39771  1.0000
  H   H2855     1.0  0.97272  0.42894  0.40299  1.0000
  C   C3560     1.0  0.78120  0.01108  0.58571  1.0000
  H   H2856     1.0  0.89586  0.18140  0.39930  1.0000
  H   H2857     1.0  0.86379  0.14587  0.61802  1.0000
  C   C3561     1.0  0.84630  0.31844  0.36509  1.0000
  P   P119      1.0  0.83697  0.30961  0.38774  1.0000
  C   C3562     1.0  0.82673  0.27286  0.39221  1.0000
  C   C3563     1.0  0.84712  0.26053  0.45705  1.0000
  H   H2858     1.0  0.97075  0.15627  0.36605  1.0000
  H   H2859     1.0  0.77126  0.18518  0.41878  1.0000
  H   H2860     1.0  0.77589  0.33854  0.36930  1.0000
  C   C3564     1.0  0.92124  0.42251  0.55094  1.0000
  H   H2861     1.0  0.98606  0.38037  0.54071  1.0000
  C   C3565     1.0  0.83997  0.31231  0.34905  1.0000
  H   H2862     1.0  0.81109  0.30568  0.42017  1.0000
  H   H2863     1.0  0.82983  0.30204  0.35016  1.0000
  C   C3566     1.0  0.97727  0.00674  0.46836  1.0000
  H   H2864     1.0  0.87706  0.39439  0.56995  1.0000
  H   H2865     1.0  0.84242  0.42129  0.51239  1.0000
  C   C3567     1.0  0.81250  0.31638  0.39129  1.0000
  C   C3568     1.0  0.95334  0.00872  0.37217  1.0000
  C   C3569     1.0  0.77461  0.32708  0.39783  1.0000
  H   H2866     1.0  0.76491  0.10374  0.63489  1.0000
  C   C3570     1.0  0.80346  0.31259  0.40891  1.0000
  H   H2867     1.0  0.80869  0.27230  0.43323  1.0000
  P   P120      1.0  0.89834  0.42804  0.56184  1.0000
  H   H2868     1.0  0.76288  0.10060  0.32815  1.0000
  C   C3571     1.0  0.80246  0.32596  0.37707  1.0000
  H   H2869     1.0  0.80908  0.32966  0.36352  1.0000
  H   H2870     1.0  0.78418  0.04985  0.34658  1.0000
  C   C3572     1.0  0.97562  0.06850  0.44606  1.0000
  H   H2871     1.0  0.85222  0.15774  0.49626  1.0000
  H   H2872     1.0  0.74558  0.04895  0.40616  1.0000
  C   C3573     1.0  0.78325  0.19006  0.42430  1.0000
  H   H2873     1.0  0.77769  0.31488  0.42576  1.0000
  C   C3574     1.0  0.81168  0.07513  0.35858  1.0000
  H   H2874     1.0  0.90311  0.09094  0.36506  1.0000
  C   C3575     1.0  0.96983  0.47468  0.50878  1.0000
  C   C3576     1.0  0.93767  0.44245  0.43414  1.0000
  H   H2875     1.0  0.98948  0.38695  0.43430  1.0000
  C   C3577     1.0  0.85317  0.42277  0.52160  1.0000
  H   H2876     1.0  0.86649  0.39558  0.51806  1.0000
  H   H2877     1.0  0.77917  0.04027  0.40637  1.0000
  H   H2878     1.0  0.89929  0.01114  0.47427  1.0000
  C   C3578     1.0  0.77926  0.18065  0.62195  1.0000
  H   H2879     1.0  0.82149  0.22089  0.48352  1.0000
  H   H2880     1.0  0.88269  0.03835  0.45802  1.0000
  C   C3579     1.0  0.95505  0.17880  0.40401  1.0000
  C   C3580     1.0  0.90614  0.04496  0.43920  1.0000
  H   H2881     1.0  0.84268  0.45024  0.52813  1.0000
  C   C3581     1.0  0.78357  0.33118  0.38034  1.0000
  H   H2882     1.0  0.87764  0.48287  0.51963  1.0000
  C   C3582     1.0  0.90639  0.01918  0.46297  1.0000
  C   C3583     1.0  0.95702  0.35484  0.41482  1.0000
  C   C3584     1.0  0.86691  0.40837  0.52459  1.0000
  C   C3585     1.0  0.81623  0.07633  0.62689  1.0000
  C   C3586     1.0  0.85328  0.43901  0.53053  1.0000
  H   H2883     1.0  0.83711  0.17472  0.52202  1.0000
  C   C3587     1.0  0.95013  0.37204  0.42071  1.0000
  H   H2884     1.0  0.96562  0.40594  0.49085  1.0000
  C   C3588     1.0  0.92471  0.01383  0.45716  1.0000
  H   H2885     1.0  0.97114  0.25194  0.33598  1.0000
  C   C3589     1.0  0.81732  0.05945  0.40541  1.0000
  C   C3590     1.0  0.78423  0.04447  0.37648  1.0000
  S   S484      1.0  0.87876  0.29753  0.64282  1.0000
  C   C3591     1.0  0.89709  0.03466  0.45393  1.0000
  P   P121      1.0  0.78289  0.04968  0.58616  1.0000
  C   C3592     1.0  0.78891  0.99311  0.58282  1.0000
  H   H2886     1.0  0.97223  0.03150  0.40392  1.0000
  H   H2887     1.0  0.85739  0.26679  0.46402  1.0000
  C   C3593     1.0  0.98083  0.37790  0.42853  1.0000
  C   C3594     1.0  0.80057  0.19424  0.45064  1.0000
  H   H2888     1.0  0.95120  0.28174  0.40051  1.0000
  C   C3595     1.0  0.88469  0.18639  0.40881  1.0000
  C   C3596     1.0  0.95420  0.48515  0.42965  1.0000
  C   C3597     1.0  0.88109  0.41032  0.53609  1.0000
  H   H2889     1.0  0.81558  0.03569  0.60741  1.0000
  H   H2890     1.0  0.94767  0.34584  0.40976  1.0000
  C   C3598     1.0  0.75031  0.10512  0.63263  1.0000
  C   C3599     1.0  0.84584  0.17983  0.47507  1.0000
  H   H2891     1.0  0.97896  0.26355  0.61998  1.0000
  C   C3600     1.0  0.81640  0.04179  0.39925  1.0000
  C   C3601     1.0  0.88400  0.39674  0.58206  1.0000
  C   C3602     1.0  0.86699  0.44073  0.54265  1.0000
  H   H2892     1.0  0.89172  0.39903  0.53805  1.0000
  H   H2893     1.0  0.93176  0.40512  0.57448  1.0000
  H   H2894     1.0  0.98081  0.00830  0.38154  1.0000
  H   H2895     1.0  0.89761  0.11123  0.41905  1.0000
  C   C3603     1.0  0.78475  0.18877  0.44346  1.0000
  H   H2896     1.0  0.92592  0.22546  0.38139  1.0000
  H   H2897     1.0  0.94976  0.05602  0.45109  1.0000
  C   C3604     1.0  0.85750  0.12474  0.63999  1.0000
  C   C3605     1.0  0.82641  0.04549  0.43534  1.0000
  C   C3606     1.0  0.76761  0.16611  0.62516  1.0000
  H   H2898     1.0  0.77397  0.18275  0.45275  1.0000
  H   H2899     1.0  0.90963  0.43464  0.43463  1.0000
  C   C3607     1.0  0.88101  0.42634  0.54557  1.0000
  C   C3608     1.0  0.79324  0.18203  0.63386  1.0000
  H   H2900     1.0  0.86652  0.45336  0.54958  1.0000
  C   C3609     1.0  0.79751  0.19700  0.41226  1.0000
  H   H2901     1.0  0.79653  0.19758  0.39736  1.0000
  H   H2902     1.0  0.80156  0.19259  0.46552  1.0000
  P   P122      1.0  0.96490  0.22445  0.36784  1.0000
  C   C3610     1.0  0.82129  0.05810  0.62267  1.0000
  H   H2903     1.0  0.94772  0.01934  0.43751  1.0000
  C   C3611     1.0  0.96203  0.38349  0.42760  1.0000
  H   H2904     1.0  0.89846  0.05654  0.43211  1.0000
  C   C3612     1.0  0.93481  0.41138  0.56061  1.0000
  H   H2905     1.0  0.97460  0.27997  0.35309  1.0000
  C   C3613     1.0  0.92463  0.03982  0.43341  1.0000
  C   C3614     1.0  0.87055  0.17496  0.41521  1.0000
  C   C3615     1.0  0.95972  0.06149  0.44055  1.0000
  H   H2906     1.0  0.86905  0.22531  0.42954  1.0000
  C   C3616     1.0  0.88559  0.45655  0.58415  1.0000
  C   C3617     1.0  0.92576  0.42951  0.53260  1.0000
  C   C3618     1.0  0.98084  0.28132  0.65251  1.0000
  C   C3619     1.0  0.89654  0.45175  0.56819  1.0000
  C   C3620     1.0  0.89474  0.41199  0.58231  1.0000
  H   H2907     1.0  0.98792  0.22895  0.39803  1.0000
  C   C3621     1.0  0.81501  0.20116  0.43862  1.0000
  C   C3622     1.0  0.81336  0.20250  0.41935  1.0000
  H   H2908     1.0  0.83248  0.28673  0.44881  1.0000
  C   C3623     1.0  0.83725  0.19775  0.47127  1.0000
  H   H2909     1.0  0.88960  0.11412  0.38632  1.0000
  H   H2910     1.0  0.81900  0.03498  0.57141  1.0000
  C   C3624     1.0  0.90359  0.46602  0.55582  1.0000
  H   H2911     1.0  0.91541  0.43740  0.52452  1.0000
  C   C3625     1.0  0.95049  0.24049  0.38142  1.0000
  C   C3626     1.0  0.83416  0.00864  0.37214  1.0000
  H   H2912     1.0  0.99150  0.99421  0.43183  1.0000
  C   C3627     1.0  0.96177  0.02788  0.39536  1.0000
  C   C3628     1.0  0.96285  0.25726  0.57845  1.0000
  C   C3629     1.0  0.97771  0.37206  0.51494  1.0000
  C   C3630     1.0  0.88246  0.38377  0.59751  1.0000
  C   C3631     1.0  0.90355  0.41418  0.59848  1.0000
  H   H2913     1.0  0.91118  0.46300  0.54290  1.0000
  H   H2914     1.0  0.87466  0.37172  0.59696  1.0000
  C   C3632     1.0  0.95713  0.41545  0.53420  1.0000
  C   C3633     1.0  0.95265  0.40790  0.55226  1.0000
  H   H2915     1.0  0.93550  0.37638  0.42026  1.0000
  H   H2916     1.0  0.91201  0.42572  0.59897  1.0000
  Fe  Fe244     1.0  0.93087  0.28107  0.64998  1.0000
  H   H2917     1.0  0.87388  0.47876  0.60029  1.0000
  C   C3634     1.0  0.81810  0.00548  0.57171  1.0000
  H   H2918     1.0  0.95890  0.14985  0.39886  1.0000
  Fe  Fe245     1.0  0.89356  0.26920  0.63789  1.0000
  C   C3635     1.0  0.86037  0.33210  0.32972  1.0000
  H   H2919     1.0  0.89470  0.21353  0.40857  1.0000
  P   P123      1.0  0.83570  0.20793  0.44763  1.0000
  H   H2920     1.0  0.91582  0.41614  0.40742  1.0000
  H   H2921     1.0  0.88660  0.20322  0.62016  1.0000
  C   C3636     1.0  0.83211  0.15188  0.65465  1.0000
  H   H2922     1.0  0.96295  0.39917  0.55975  1.0000
  S   S485      1.0  0.88411  0.24149  0.62905  1.0000
  H   H2923     1.0  0.82445  0.20740  0.40972  1.0000
  P   P124      1.0  0.93657  0.05243  0.41408  1.0000
  C   C3637     1.0  0.91534  0.08604  0.41649  1.0000
  C   C3638     1.0  0.79139  0.07823  0.60623  1.0000
  C   C3639     1.0  0.86937  0.21114  0.42599  1.0000
  C   C3640     1.0  0.89162  0.38582  0.61332  1.0000
  C   C3641     1.0  0.94367  0.42618  0.52437  1.0000
  C   C3642     1.0  0.83738  0.18129  0.50793  1.0000
  C   C3643     1.0  0.95680  0.06167  0.42160  1.0000
  C   C3644     1.0  0.90201  0.40111  0.61390  1.0000
  C   C3645     1.0  0.82867  0.20729  0.48606  1.0000
  C   C3646     1.0  0.82880  0.19910  0.50430  1.0000
  S   S486      1.0  0.91664  0.31603  0.32887  1.0000
  C   C3647     1.0  0.92243  0.07237  0.40475  1.0000
  C   C3648     1.0  0.90370  0.10114  0.40980  1.0000
  C   C3649     1.0  0.96670  0.16768  0.37454  1.0000
  H   H2924     1.0  0.89090  0.37530  0.62494  1.0000
  C   C3650     1.0  0.92997  0.02930  0.38709  1.0000
  C   C3651     1.0  0.89926  0.10286  0.39130  1.0000
  C   C3652     1.0  0.79647  0.05996  0.60177  1.0000
  C   C3653     1.0  0.94341  0.03577  0.39726  1.0000
  H   H2925     1.0  0.90913  0.40262  0.62619  1.0000
  H   H2926     1.0  0.75715  0.16471  0.61558  1.0000
  H   H2927     1.0  0.97089  0.41265  0.52766  1.0000
  H   H2928     1.0  0.96263  0.27727  0.55470  1.0000
  C   C3654     1.0  0.84595  0.17172  0.49335  1.0000
  C   C3655     1.0  0.95649  0.19715  0.39647  1.0000
  C   C3656     1.0  0.84784  0.24120  0.45679  1.0000
  C   C3657     1.0  0.91848  0.07463  0.38596  1.0000
  C   C3658     1.0  0.82047  0.24434  0.43928  1.0000
  H   H2929     1.0  0.93772  0.30474  0.57085  1.0000
  H   H2930     1.0  0.81277  0.10253  0.34444  1.0000
  C   C3659     1.0  0.98798  0.36071  0.42251  1.0000
  H   H2931     1.0  0.85869  0.23263  0.46365  1.0000
  H   H2932     1.0  0.99080  0.48197  0.41261  1.0000
  C   C3660     1.0  0.75403  0.04888  0.39318  1.0000
  C   C3661     1.0  0.77000  0.15286  0.64023  1.0000
  H   H2933     1.0  0.95662  0.39657  0.43264  1.0000
  C   C3662     1.0  0.90677  0.08970  0.37936  1.0000
  C   C3663     1.0  0.83464  0.23296  0.44770  1.0000
  C   C3664     1.0  0.88403  0.20451  0.41407  1.0000
  C   C3665     1.0  0.83308  0.27176  0.44849  1.0000
  H   H2934     1.0  0.78910  0.01080  0.36123  1.0000
  C   C3666     1.0  0.92756  0.26549  0.40199  1.0000
  C   C3667     1.0  0.96191  0.24219  0.33218  1.0000
  H   H2935     1.0  0.95011  0.17600  0.41841  1.0000
  C   C3668     1.0  0.85517  0.19966  0.43265  1.0000
  C   C3669     1.0  0.75123  0.10073  0.33842  1.0000
  H   H2936     1.0  0.92448  0.01136  0.36645  1.0000
  H   H2937     1.0  0.84476  0.17267  0.43152  1.0000
  H   H2938     1.0  0.81121  0.09283  0.53717  1.0000
  H   H2939     1.0  0.75923  0.05277  0.55482  1.0000
  H   H2940     1.0  0.75054  0.05835  0.34672  1.0000
  C   C3670     1.0  0.98159  0.43671  0.45603  1.0000
  C   C3671     1.0  0.97585  0.34911  0.41583  1.0000
  H   H2941     1.0  0.77985  0.08632  0.59999  1.0000
  C   C3672     1.0  0.97640  0.35191  0.61083  1.0000
  C   C3673     1.0  0.84289  0.15605  0.63812  1.0000
  C   C3674     1.0  0.84687  0.31927  0.33144  1.0000
  C   C3675     1.0  0.81922  0.05658  0.35961  1.0000
  S   S487      1.0  0.90695  0.99966  0.41929  1.0000
  H   H2942     1.0  0.91856  0.27547  0.40940  1.0000
  C   C3676     1.0  0.80325  0.00537  0.36306  1.0000
  C   C3677     1.0  0.77588  0.04932  0.35968  1.0000
  H   H2943     1.0  0.76097  0.07101  0.52418  1.0000
  H   H2944     1.0  0.98863  0.45359  0.53295  1.0000
  C   C3678     1.0  0.88240  0.47516  0.58801  1.0000
  C   C3679     1.0  0.95055  0.47607  0.51188  1.0000
  C   C3680     1.0  0.98919  0.22816  0.36819  1.0000
  C   C3681     1.0  0.79567  0.16887  0.64910  1.0000
  C   C3682     1.0  0.75682  0.05413  0.35969  1.0000
  C   C3683     1.0  0.74591  0.05408  0.37642  1.0000
  C   C3684     1.0  0.78408  0.15412  0.65208  1.0000
  H   H2945     1.0  0.84001  0.03734  0.34704  1.0000
  H   H2946     1.0  0.95075  0.48032  0.41674  1.0000
  C   C3685     1.0  0.94328  0.21601  0.33992  1.0000
  Fe  Fe246     1.0  0.93581  0.29001  0.32652  1.0000
  H   H2947     1.0  0.98716  0.31489  0.48052  1.0000
  C   C3686     1.0  0.98698  0.28958  0.32644  1.0000
  S   S488      1.0  0.96023  0.26951  0.65654  1.0000
  C   C3687     1.0  0.84630  0.12023  0.65607  1.0000
  H   H2948     1.0  0.74268  0.08759  0.65740  1.0000
  Fe  Fe247     1.0  0.96707  0.39222  0.89415  1.0000
  S   S489      1.0  0.93666  0.38716  0.89256  1.0000
  C   C3688     1.0  0.97201  0.34654  0.76308  1.0000
  S   S490      1.0  0.97152  0.41780  0.90810  1.0000
  P   P125      1.0  0.81509  0.16923  0.66314  1.0000
  C   C3689     1.0  0.96509  0.46729  0.76811  1.0000
  S   S491      1.0  0.88377  0.30084  0.69990  1.0000
  Fe  Fe248     1.0  0.86680  0.38042  0.81259  1.0000
  S   S492      1.0  0.86096  0.39717  0.78564  1.0000
  S   S493      1.0  0.89747  0.37833  0.81840  1.0000
  Fe  Fe249     1.0  0.82652  0.36950  0.81910  1.0000
  S   S494      1.0  0.81840  0.38557  0.79250  1.0000
  S   S495      1.0  0.80827  0.35041  0.83878  1.0000
  Fe  Fe250     1.0  0.84527  0.37338  0.77901  1.0000
  S   S496      1.0  0.84670  0.36585  0.74862  1.0000
  Fe  Fe251     1.0  0.83492  0.40812  0.80102  1.0000
  S   S497      1.0  0.82395  0.43849  0.79539  1.0000
  S   S498      1.0  0.85259  0.35591  0.80504  1.0000
  S   S499      1.0  0.84153  0.39284  0.82852  1.0000
  C   C3690     1.0  0.79094  0.24443  0.79807  1.0000
  C   C3691     1.0  0.82700  0.47601  0.79664  1.0000
  C   C3692     1.0  0.83165  0.45802  0.80487  1.0000
  C   C3693     1.0  0.84160  0.45609  0.82077  1.0000
  C   C3694     1.0  0.84684  0.47197  0.82828  1.0000
  H   H2949     1.0  0.81913  0.47767  0.78444  1.0000
  H   H2950     1.0  0.84491  0.44238  0.82747  1.0000
  H   H2951     1.0  0.85409  0.47034  0.84085  1.0000
  C   C3695     1.0  0.75975  0.33306  0.86499  1.0000
  C   C3696     1.0  0.77851  0.33425  0.85825  1.0000
  C   C3697     1.0  0.78421  0.34964  0.84646  1.0000
  C   C3698     1.0  0.77077  0.36389  0.84153  1.0000
  H   H2952     1.0  0.80347  0.24447  0.82404  1.0000
  H   H2953     1.0  0.78871  0.32315  0.86227  1.0000
  H   H2954     1.0  0.77489  0.37592  0.83271  1.0000
  C   C3699     1.0  0.83349  0.13369  0.66330  1.0000
  H   H2955     1.0  0.96553  0.24378  0.71975  1.0000
  C   C3700     1.0  0.87446  0.31960  0.71311  1.0000
  C   C3701     1.0  0.87388  0.31709  0.73267  1.0000
  C   C3702     1.0  0.86574  0.33109  0.74378  1.0000
  C   C3703     1.0  0.85778  0.34778  0.73548  1.0000
  C   C3704     1.0  0.85847  0.35033  0.71592  1.0000
  C   C3705     1.0  0.86684  0.33645  0.70483  1.0000
  H   H2956     1.0  0.87956  0.30408  0.73930  1.0000
  H   H2957     1.0  0.86535  0.32887  0.75875  1.0000
  H   H2958     1.0  0.85235  0.36313  0.70929  1.0000
  H   H2959     1.0  0.86690  0.33855  0.68988  1.0000
  H   H2960     1.0  0.91092  0.47853  0.95793  1.0000
  H   H2961     1.0  0.79053  0.27987  0.76390  1.0000
  C   C3706     1.0  0.90727  0.35488  0.67689  1.0000
  S   S500      1.0  0.98758  0.37386  0.91106  1.0000
  C   C3707     1.0  0.92596  0.38518  0.87173  1.0000
  C   C3708     1.0  0.93634  0.38321  0.85485  1.0000
  C   C3709     1.0  0.92734  0.38125  0.83868  1.0000
  C   C3710     1.0  0.90791  0.38133  0.83915  1.0000
  C   C3711     1.0  0.89750  0.38362  0.85596  1.0000
  C   C3712     1.0  0.90652  0.38546  0.87217  1.0000
  H   H2962     1.0  0.95129  0.38294  0.85433  1.0000
  H   H2963     1.0  0.93550  0.37946  0.82576  1.0000
  H   H2964     1.0  0.88256  0.38363  0.85655  1.0000
  H   H2965     1.0  0.89839  0.38693  0.88518  1.0000
  H   H2966     1.0  0.93391  0.39001  0.68013  1.0000
  H   H2967     1.0  0.95115  0.33466  0.68221  1.0000
  C   C3713     1.0  0.79463  0.44723  0.86924  1.0000
  C   C3714     1.0  0.88193  0.38483  0.68459  1.0000
  C   C3715     1.0  0.98139  0.26484  0.70472  1.0000
  C   C3716     1.0  0.94278  0.46085  0.79404  1.0000
  C   C3717     1.0  0.91301  0.44860  0.91380  1.0000
  C   C3718     1.0  0.83306  0.29463  0.73182  1.0000
  C   C3719     1.0  0.82891  0.31172  0.72187  1.0000
  C   C3720     1.0  0.81954  0.32634  0.73088  1.0000
  C   C3721     1.0  0.81417  0.32387  0.74983  1.0000
  C   C3722     1.0  0.81787  0.30660  0.75987  1.0000
  C   C3723     1.0  0.82757  0.29205  0.75075  1.0000
  P   P126      1.0  0.81122  0.30319  0.78444  1.0000
  C   C3724     1.0  0.80371  0.28000  0.78968  1.0000
  C   C3725     1.0  0.83062  0.30602  0.79783  1.0000
  C   C3726     1.0  0.82746  0.31072  0.81623  1.0000
  C   C3727     1.0  0.84237  0.31249  0.82687  1.0000
  C   C3728     1.0  0.86055  0.30958  0.81925  1.0000
  C   C3729     1.0  0.86383  0.30494  0.80093  1.0000
  C   C3730     1.0  0.84894  0.30312  0.79025  1.0000
  H   H2968     1.0  0.75566  0.42378  0.89489  1.0000
  H   H2969     1.0  0.77957  0.24851  0.77130  1.0000
  H   H2970     1.0  0.74441  0.17052  0.69535  1.0000
  C   C3731     1.0  0.96305  0.39362  0.67869  1.0000
  C   C3732     1.0  0.80717  0.26989  0.80670  1.0000
  C   C3733     1.0  0.79232  0.31981  0.79082  1.0000
  C   C3734     1.0  0.79587  0.33826  0.79279  1.0000
  C   C3735     1.0  0.78145  0.35109  0.79819  1.0000
  C   C3736     1.0  0.76345  0.34559  0.80194  1.0000
  C   C3737     1.0  0.75980  0.32726  0.80010  1.0000
  C   C3738     1.0  0.77413  0.31441  0.79448  1.0000
  H   H2971     1.0  0.84094  0.28357  0.72489  1.0000
  H   H2972     1.0  0.83357  0.31381  0.70730  1.0000
  H   H2973     1.0  0.81703  0.33982  0.72332  1.0000
  H   H2974     1.0  0.80741  0.33560  0.75651  1.0000
  H   H2975     1.0  0.83113  0.27879  0.75830  1.0000
  H   H2976     1.0  0.81347  0.31317  0.82239  1.0000
  H   H2977     1.0  0.83974  0.31660  0.84089  1.0000
  H   H2978     1.0  0.87206  0.31134  0.82742  1.0000
  H   H2979     1.0  0.87792  0.30299  0.79494  1.0000
  H   H2980     1.0  0.85182  0.29961  0.77610  1.0000
  C   C3739     1.0  0.78736  0.25444  0.78114  1.0000
  H   H2981     1.0  0.79293  0.42754  0.82089  1.0000
  C   C3740     1.0  0.91402  0.41718  0.92894  1.0000
  H   H2982     1.0  0.77130  0.16496  0.71898  1.0000
  H   H2983     1.0  0.81460  0.27566  0.81690  1.0000
  H   H2984     1.0  0.80984  0.34266  0.79045  1.0000
  H   H2985     1.0  0.78436  0.36517  0.80010  1.0000
  H   H2986     1.0  0.82458  0.12980  0.67545  1.0000
  C   C3741     1.0  0.87785  0.48908  0.78119  1.0000
  H   H2987     1.0  0.77093  0.30028  0.79337  1.0000
  C   C3742     1.0  0.79928  0.40169  0.86434  1.0000
  C   C3743     1.0  0.95966  0.45636  0.78421  1.0000
  H   H2988     1.0  0.91926  0.42075  0.84914  1.0000
  C   C3744     1.0  0.96572  0.36276  0.70477  1.0000
  C   C3745     1.0  0.94963  0.47188  0.98234  1.0000
  H   H2989     1.0  0.82868  0.15036  0.72813  1.0000
  C   C3746     1.0  0.94750  0.30632  0.69208  1.0000
  C   C3747     1.0  0.92406  0.32060  0.72063  1.0000
  C   C3748     1.0  0.93120  0.47638  0.78791  1.0000
  C   C3749     1.0  0.77769  0.37542  0.88441  1.0000
  H   H2990     1.0  0.74590  0.32292  0.80338  1.0000
  C   C3750     1.0  0.94457  0.43455  0.84517  1.0000
  H   H2991     1.0  0.81506  0.46294  0.87948  1.0000
  C   C3751     1.0  0.95361  0.48267  0.76183  1.0000
  C   C3752     1.0  0.92682  0.30139  0.71952  1.0000
  C   C3753     1.0  0.90010  0.46091  0.81045  1.0000
  C   C3754     1.0  0.80083  0.25216  0.81084  1.0000
  H   H2992     1.0  0.88257  0.44569  0.95210  1.0000
  C   C3755     1.0  0.95142  0.40861  0.97376  1.0000
  H   H2993     1.0  0.89380  0.46854  0.92719  1.0000
  H   H2994     1.0  0.95609  0.30073  0.68068  1.0000
  C   C3756     1.0  0.93326  0.37293  0.74066  1.0000
  H   H2995     1.0  0.87484  0.47485  0.78538  1.0000
  C   C3757     1.0  0.80770  0.38501  0.87212  1.0000
  C   C3758     1.0  0.95480  0.42680  0.97667  1.0000
  H   H2996     1.0  0.96866  0.45004  0.84508  1.0000
  C   C3759     1.0  0.94838  0.36919  0.69834  1.0000
  Fe  Fe252     1.0  0.89370  0.29625  0.66938  1.0000
  H   H2997     1.0  0.87189  0.39622  0.68779  1.0000
  C   C3760     1.0  0.85101  0.21029  0.66099  1.0000
  H   H2998     1.0  0.79487  0.43693  0.88105  1.0000
  H   H2999     1.0  0.89399  0.46797  0.86889  1.0000
  C   C3761     1.0  0.76922  0.39203  0.87654  1.0000
  C   C3762     1.0  0.95503  0.44762  0.85162  1.0000
  H   H3000     1.0  0.99058  0.37103  0.96908  1.0000
  H   H3001     1.0  0.96695  0.35081  0.71484  1.0000
  C   C3763     1.0  0.92727  0.43107  0.85398  1.0000
  C   C3764     1.0  0.78332  0.44565  0.85469  1.0000
  H   H3002     1.0  0.89103  0.47072  0.83709  1.0000
  C   C3765     1.0  0.74631  0.34727  0.86000  1.0000
  H   H3003     1.0  0.78627  0.14330  0.66320  1.0000
  C   C3766     1.0  0.94713  0.38472  0.68526  1.0000
  C   C3767     1.0  0.92125  0.36417  0.73054  1.0000
  C   C3768     1.0  0.93306  0.33288  0.70744  1.0000
  S   S501      1.0  0.90678  0.26735  0.66528  1.0000
  C   C3769     1.0  0.76209  0.40787  0.79740  1.0000
  C   C3770     1.0  0.77999  0.40548  0.86680  1.0000
  C   C3771     1.0  0.74814  0.40527  0.81160  1.0000
  C   C3772     1.0  0.94070  0.47610  0.90553  1.0000
  C   C3773     1.0  0.92055  0.44039  0.86944  1.0000
  C   C3774     1.0  0.88004  0.37493  0.66928  1.0000
  H   H3004     1.0  0.86589  0.21129  0.66036  1.0000
  C   C3775     1.0  0.90350  0.36080  0.73853  1.0000
  C   C3776     1.0  0.77805  0.41617  0.80080  1.0000
  H   H3005     1.0  0.91433  0.32568  0.73138  1.0000
  H   H3006     1.0  0.95001  0.42679  0.83363  1.0000
  H   H3007     1.0  0.83706  0.15697  0.69464  1.0000
  C   C3777     1.0  0.79692  0.37191  0.88220  1.0000
  C   C3778     1.0  0.78013  0.42179  0.81838  1.0000
  C   C3779     1.0  0.89947  0.45423  0.92747  1.0000
  H   H3008     1.0  0.96858  0.44448  0.78917  1.0000
  C   C3780     1.0  0.96369  0.47584  0.92816  1.0000
  H   H3009     1.0  0.77947  0.17173  0.68545  1.0000
  C   C3781     1.0  0.98025  0.38719  0.68525  1.0000
  P   P127      1.0  0.90969  0.48232  0.80115  1.0000
  H   H3010     1.0  0.95039  0.40486  0.95977  1.0000
  C   C3782     1.0  0.89648  0.37976  0.69607  1.0000
  H   H3011     1.0  0.89352  0.41769  0.79820  1.0000
  H   H3012     1.0  0.90533  0.37852  0.78003  1.0000
  C   C3783     1.0  0.89785  0.36584  0.75634  1.0000
  H   H3013     1.0  0.98196  0.31916  0.69595  1.0000
  H   H3014     1.0  0.88405  0.36322  0.76235  1.0000
  H   H3015     1.0  0.94670  0.45341  0.92645  1.0000
  H   H3016     1.0  0.86962  0.49207  0.86015  1.0000
  H   H3017     1.0  0.91914  0.29204  0.72919  1.0000
  H   H3018     1.0  0.80340  0.35867  0.88754  1.0000
  H   H3019     1.0  0.90742  0.43691  0.87649  1.0000
  C   C3784     1.0  0.96318  0.33366  0.75438  1.0000
  C   C3785     1.0  0.95724  0.48885  0.97673  1.0000
  H   H3020     1.0  0.94160  0.48015  0.82449  1.0000
  H   H3021     1.0  0.82251  0.38185  0.86971  1.0000
  C   C3786     1.0  0.92386  0.48141  0.96317  1.0000
  C   C3787     1.0  0.78560  0.16302  0.71356  1.0000
  C   C3788     1.0  0.78296  0.45950  0.83979  1.0000
  H   H3022     1.0  0.98773  0.46468  0.96695  1.0000
  P   P128      1.0  0.92793  0.35778  0.70728  1.0000
  H   H3023     1.0  0.76929  0.36481  0.89140  1.0000
  P   P129      1.0  0.92223  0.46540  0.89625  1.0000
  H   H3024     1.0  0.74913  0.18322  0.66242  1.0000
  H   H3025     1.0  0.89546  0.41278  0.95329  1.0000
  C   C3789     1.0  0.89314  0.44135  0.94166  1.0000
  C   C3790     1.0  0.76595  0.41977  0.83255  1.0000
  H   H3026     1.0  0.95693  0.46681  0.87196  1.0000
  H   H3027     1.0  0.93884  0.45231  0.80656  1.0000
  H   H3028     1.0  0.96633  0.31189  0.73607  1.0000
  C   C3791     1.0  0.82457  0.19165  0.66167  1.0000
  C   C3792     1.0  0.84379  0.19292  0.66173  1.0000
  C   C3793     1.0  0.90985  0.37447  0.76630  1.0000
  C   C3794     1.0  0.90040  0.42282  0.94237  1.0000
  H   H3029     1.0  0.92616  0.45570  0.98043  1.0000
  H   H3030     1.0  0.93113  0.42534  0.90470  1.0000
  C   C3795     1.0  0.88503  0.44235  0.83598  1.0000
  C   C3796     1.0  0.88561  0.42745  0.82499  1.0000
  C   C3797     1.0  0.89324  0.42927  0.80669  1.0000
  C   C3798     1.0  0.90038  0.44597  0.79938  1.0000
  H   H3031     1.0  0.90605  0.44724  0.78511  1.0000
  C   C3799     1.0  0.89210  0.45910  0.82868  1.0000
  H   H3032     1.0  0.93669  0.38489  0.76627  1.0000
  C   C3800     1.0  0.93090  0.45366  0.87598  1.0000
  H   H3033     1.0  0.91968  0.40280  0.92933  1.0000
  H   H3034     1.0  0.95635  0.43691  0.96480  1.0000
  C   C3801     1.0  0.92753  0.37803  0.75849  1.0000
  P   P130      1.0  0.76902  0.42630  0.85546  1.0000
  C   C3802     1.0  0.94471  0.32555  0.69307  1.0000
  C   C3803     1.0  0.79942  0.15699  0.72564  1.0000
  H   H3035     1.0  0.89398  0.35437  0.73083  1.0000
  H   H3036     1.0  0.87880  0.44098  0.85005  1.0000
  H   H3037     1.0  0.87995  0.41454  0.83055  1.0000
  H   H3038     1.0  0.98589  0.33941  0.66683  1.0000
  H   H3039     1.0  0.97939  0.26012  0.69133  1.0000
  H   H3040     1.0  0.94693  0.37604  0.73490  1.0000
  H   H3041     1.0  0.79460  0.48449  0.82716  1.0000
  C   C3804     1.0  0.94994  0.46714  0.92058  1.0000
  C   C3805     1.0  0.97354  0.32149  0.74297  1.0000
  C   C3806     1.0  0.94828  0.45714  0.86697  1.0000
  C   C3807     1.0  0.80599  0.46201  0.86848  1.0000
  H   H3042     1.0  0.75426  0.39401  0.87741  1.0000
  H   H3043     1.0  0.94000  0.27941  0.70387  1.0000
  H   H3044     1.0  0.97089  0.46880  0.93963  1.0000
  H   H3045     1.0  0.97008  0.25422  0.75062  1.0000
  H   H3046     1.0  0.75572  0.32115  0.87407  1.0000
  H   H3047     1.0  0.80778  0.41133  0.85593  1.0000
  C   C3808     1.0  0.75006  0.41116  0.82914  1.0000
  H   H3048     1.0  0.78900  0.41810  0.78988  1.0000
  C   C3809     1.0  0.80877  0.16406  0.68749  1.0000
  H   H3049     1.0  0.79581  0.15419  0.74036  1.0000
  H   H3050     1.0  0.78595  0.23074  0.80137  1.0000
  C   C3810     1.0  0.75200  0.36263  0.84817  1.0000
  C   C3811     1.0  0.81793  0.15480  0.71875  1.0000
  C   C3812     1.0  0.82262  0.15845  0.69976  1.0000
  C   C3813     1.0  0.93848  0.29425  0.70522  1.0000
  C   C3814     1.0  0.92040  0.43002  0.91481  1.0000
  H   H3051     1.0  0.97821  0.46388  0.76055  1.0000
  H   H3052     1.0  0.85329  0.18059  0.66218  1.0000
  C   C3815     1.0  0.90916  0.36457  0.69243  1.0000
  C   C3816     1.0  0.90381  0.48287  0.89019  1.0000
  C   C3817     1.0  0.79438  0.47422  0.83905  1.0000
  C   C3818     1.0  0.93261  0.46844  0.97582  1.0000
  H   H3053     1.0  0.75244  0.35541  0.80671  1.0000
  C   C3819     1.0  0.93166  0.49114  0.82875  1.0000
  H   H3054     1.0  0.94825  0.33308  0.75652  1.0000
  H   H3055     1.0  0.76070  0.40326  0.78381  1.0000
  H   H3056     1.0  0.89761  0.38757  0.70790  1.0000
  H   H3057     1.0  0.91680  0.34320  0.67368  1.0000
  C   C3820     1.0  0.97604  0.26152  0.73815  1.0000
  C   C3821     1.0  0.97351  0.25560  0.72080  1.0000
  C   C3822     1.0  0.79367  0.27217  0.77696  1.0000
  C   C3823     1.0  0.98156  0.37184  0.69838  1.0000
  C   C3824     1.0  0.89278  0.36001  0.66539  1.0000
  H   H3058     1.0  0.96996  0.49209  0.98210  1.0000
  C   C3825     1.0  0.89225  0.48036  0.87615  1.0000
  H   H3059     1.0  0.77416  0.45878  0.82852  1.0000
  S   S502      1.0  0.98776  0.39847  0.87019  1.0000
  C   C3826     1.0  0.79026  0.16668  0.69456  1.0000
  H   H3060     1.0  0.96396  0.35576  0.77214  1.0000
  H   H3061     1.0  0.98811  0.28126  0.75294  1.0000
  C   C3827     1.0  0.80595  0.47543  0.85332  1.0000
  H   H3062     1.0  0.94850  0.38079  0.98639  1.0000
  C   C3828     1.0  0.84258  0.48993  0.81983  1.0000
  H   H3063     1.0  0.81507  0.48665  0.85248  1.0000
  H   H3064     1.0  0.96201  0.40556  0.66854  1.0000
  C   C3829     1.0  0.95045  0.39503  0.98873  1.0000
  H   H3065     1.0  0.95780  0.49118  0.74937  1.0000
  C   C3830     1.0  0.93673  0.48722  0.77166  1.0000
  H   H3066     1.0  0.84737  0.10619  0.66267  1.0000
  C   C3831     1.0  0.74706  0.43319  0.86740  1.0000
  C   C3832     1.0  0.98624  0.27685  0.73939  1.0000
  C   C3833     1.0  0.99170  0.28012  0.70589  1.0000
  C   C3834     1.0  0.99119  0.34752  0.76007  1.0000
  H   H3067     1.0  0.81085  0.23796  0.66007  1.0000
  H   H3068     1.0  0.84492  0.23992  0.65916  1.0000
  C   C3835     1.0  0.81999  0.22535  0.66072  1.0000
  C   C3836     1.0  0.81269  0.20798  0.66159  1.0000
  C   C3837     1.0  0.83915  0.22649  0.66035  1.0000
  H   H3069     1.0  0.79782  0.20733  0.66197  1.0000
  C   C3838     1.0  0.83251  0.49189  0.80401  1.0000
  H   H3070     1.0  0.86857  0.37863  0.66059  1.0000
  C   C3839     1.0  0.74453  0.43027  0.88683  1.0000
  H   H3071     1.0  0.99257  0.39409  0.68014  1.0000
  H   H3072     1.0  0.91775  0.75012  0.27113  1.0000
  H   H3073     1.0  0.95016  0.59379  0.05644  1.0000
  H   H3074     1.0  0.94856  0.74481  0.28369  1.0000
  H   H3075     1.0  0.75610  0.61805  0.11160  1.0000
  Fe  Fe253     1.0  0.98040  0.58020  0.09252  1.0000
  S   S503      1.0  0.95084  0.59325  0.09522  1.0000
  S   S504      1.0  0.90931  0.69209  0.31248  1.0000
  H   H3076     1.0  0.88615  0.50312  0.01092  1.0000
  Fe  Fe254     1.0  0.83902  0.55382  0.19844  1.0000
  S   S505      1.0  0.84496  0.56256  0.16831  1.0000
  S   S506      1.0  0.83327  0.52400  0.20975  1.0000
  Fe  Fe255     1.0  0.84633  0.59273  0.21077  1.0000
  S   S507      1.0  0.85231  0.60396  0.18089  1.0000
  S   S508      1.0  0.84513  0.60889  0.23724  1.0000
  Fe  Fe256     1.0  0.82759  0.58912  0.17394  1.0000
  S   S509      1.0  0.80815  0.60264  0.15170  1.0000
  Fe  Fe257     1.0  0.86882  0.57657  0.17730  1.0000
  S   S510      1.0  0.89848  0.56894  0.16637  1.0000
  S   S511      1.0  0.82043  0.57973  0.20398  1.0000
  S   S512      1.0  0.86400  0.56607  0.20740  1.0000
  S   S513      1.0  0.90086  0.64838  0.28421  1.0000
  C   C3840     1.0  0.78459  0.60164  0.14620  1.0000
  C   C3841     1.0  0.77883  0.61062  0.12929  1.0000
  C   C3842     1.0  0.76016  0.61124  0.12472  1.0000
  C   C3843     1.0  0.77130  0.59312  0.15845  1.0000
  H   H3077     1.0  0.78889  0.61726  0.11966  1.0000
  H   H3078     1.0  0.77538  0.58627  0.17156  1.0000
  C   C3844     1.0  0.86105  0.61952  0.25016  1.0000
  C   C3845     1.0  0.87956  0.62169  0.24380  1.0000
  C   C3846     1.0  0.89135  0.63055  0.25435  1.0000
  C   C3847     1.0  0.88504  0.63732  0.27154  1.0000
  C   C3848     1.0  0.86658  0.63498  0.27802  1.0000
  C   C3849     1.0  0.85474  0.62626  0.26740  1.0000
  H   H3079     1.0  0.88477  0.61669  0.23065  1.0000
  H   H3080     1.0  0.90554  0.63216  0.24908  1.0000
  H   H3081     1.0  0.86143  0.63973  0.29127  1.0000
  H   H3082     1.0  0.84053  0.62467  0.27259  1.0000
  H   H3083     1.0  0.87975  0.78783  0.21750  1.0000
  H   H3084     1.0  0.81040  0.50753  0.13338  1.0000
  H   H3085     1.0  0.83298  0.51824  0.17017  1.0000
  H   H3086     1.0  0.84067  0.51563  0.11878  1.0000
  C   C3850     1.0  0.93596  0.58594  0.11458  1.0000
  C   C3851     1.0  0.91803  0.59476  0.11708  1.0000
  C   C3852     1.0  0.90614  0.58958  0.13270  1.0000
  C   C3853     1.0  0.91217  0.57554  0.14593  1.0000
  C   C3854     1.0  0.92991  0.56642  0.14317  1.0000
  C   C3855     1.0  0.94174  0.57156  0.12758  1.0000
  H   H3087     1.0  0.91345  0.60587  0.10707  1.0000
  H   H3088     1.0  0.89252  0.59669  0.13470  1.0000
  H   H3089     1.0  0.93463  0.55549  0.15330  1.0000
  H   H3090     1.0  0.95543  0.56458  0.12575  1.0000
  H   H3091     1.0  0.97909  0.55940  0.01704  1.0000
  C   C3856     1.0  0.77280  0.65782  0.20609  1.0000
  C   C3857     1.0  0.80681  0.55377  0.13961  1.0000
  C   C3858     1.0  0.91563  0.50328  0.01268  1.0000
  C   C3859     1.0  0.76072  0.53841  0.13704  1.0000
  S   S514      1.0  0.96255  0.69662  0.32146  1.0000
  H   H3092     1.0  0.75280  0.67790  0.19408  1.0000
  C   C3860     1.0  0.77820  0.66232  0.13343  1.0000
  H   H3093     1.0  0.79787  0.54802  0.21105  1.0000
  H   H3094     1.0  0.89147  0.71844  0.26551  1.0000
  C   C3861     1.0  0.75909  0.65702  0.10257  1.0000
  H   H3095     1.0  0.85846  0.60148  0.31991  1.0000
  P   P131      1.0  0.94896  0.54621  0.99830  1.0000
  C   C3862     1.0  0.83301  0.50384  0.19744  1.0000
  H   H3096     1.0  0.77412  0.56271  0.12454  1.0000
  C   C3863     1.0  0.77838  0.65718  0.10089  1.0000
  C   C3864     1.0  0.77942  0.50495  0.15665  1.0000
  C   C3865     1.0  0.83935  0.78598  0.32422  1.0000
  C   C3866     1.0  0.78991  0.54120  0.18469  1.0000
  C   C3867     1.0  0.96640  0.57681  0.03742  1.0000
  H   H3097     1.0  0.92015  0.58718  0.04550  1.0000
  H   H3098     1.0  0.81777  0.77471  0.31097  1.0000
  H   H3099     1.0  0.88240  0.53605  0.99798  1.0000
  H   H3100     1.0  0.77331  0.66502  0.21846  1.0000
  C   C3868     1.0  0.83255  0.77458  0.31220  1.0000
  H   H3101     1.0  0.94443  0.50721  0.01300  1.0000
  C   C3869     1.0  0.77667  0.49369  0.14248  1.0000
  C   C3870     1.0  0.90549  0.52120  0.18744  1.0000
  C   C3871     1.0  0.84485  0.76302  0.30176  1.0000
  H   H3102     1.0  0.75169  0.65470  0.09066  1.0000
  C   C3872     1.0  0.74418  0.52939  0.13843  1.0000
  C   C3873     1.0  0.88676  0.60343  0.30962  1.0000
  H   H3103     1.0  0.88398  0.60171  0.29542  1.0000
  C   C3874     1.0  0.78392  0.64133  0.20400  1.0000
  C   C3875     1.0  0.94985  0.58470  0.04543  1.0000
  C   C3876     1.0  0.97708  0.52159  0.01293  1.0000
  H   H3104     1.0  0.82758  0.57263  0.12998  1.0000
  C   C3877     1.0  0.88134  0.71336  0.27612  1.0000
  C   C3878     1.0  0.75039  0.70300  0.14896  1.0000
  C   C3879     1.0  0.87532  0.51802  0.14985  1.0000
  C   C3880     1.0  0.91864  0.74689  0.28590  1.0000
  C   C3881     1.0  0.93256  0.56936  0.02486  1.0000
  H   H3105     1.0  0.77147  0.63197  0.16193  1.0000
  H   H3106     1.0  0.74615  0.54899  0.17004  1.0000
  C   C3882     1.0  0.74933  0.65928  0.11971  1.0000
  H   H3107     1.0  0.78594  0.65500  0.08769  1.0000
  C   C3883     1.0  0.74682  0.60300  0.13707  1.0000
  C   C3884     1.0  0.88603  0.49586  0.19634  1.0000
  C   C3885     1.0  0.91142  0.54033  0.99813  1.0000
  H   H3108     1.0  0.89599  0.79950  0.24244  1.0000
  H   H3109     1.0  0.79781  0.56445  0.14590  1.0000
  H   H3110     1.0  0.74263  0.51695  0.14775  1.0000
  C   C3886     1.0  0.81385  0.52180  0.13275  1.0000
  C   C3887     1.0  0.77172  0.63923  0.17423  1.0000
  C   C3888     1.0  0.76065  0.65585  0.17605  1.0000
  H   H3111     1.0  0.86296  0.52333  0.15757  1.0000
  H   H3112     1.0  0.93400  0.51352  0.17932  1.0000
  C   C3889     1.0  0.96762  0.51761  0.14730  1.0000
  C   C3890     1.0  0.92071  0.50850  0.18434  1.0000
  C   C3891     1.0  0.96608  0.56519  0.02314  1.0000
  C   C3892     1.0  0.75461  0.55659  0.19571  1.0000
  H   H3113     1.0  0.86289  0.74191  0.25484  1.0000
  C   C3893     1.0  0.93107  0.51377  0.00965  1.0000
  C   C3894     1.0  0.94918  0.56125  0.01681  1.0000
  C   C3895     1.0  0.83110  0.52635  0.12433  1.0000
  H   H3114     1.0  0.87621  0.52484  0.19514  1.0000
  H   H3115     1.0  0.97954  0.57972  0.04227  1.0000
  C   C3896     1.0  0.78793  0.65983  0.11632  1.0000
  H   H3116     1.0  0.96382  0.50174  0.09641  1.0000
  H   H3117     1.0  0.90953  0.55469  0.99249  1.0000
  H   H3118     1.0  0.85488  0.72611  0.31448  1.0000
  H   H3119     1.0  0.97399  0.53068  0.14688  1.0000
  H   H3120     1.0  0.96959  0.52274  0.02634  1.0000
  C   C3897     1.0  0.76911  0.55640  0.20734  1.0000
  C   C3898     1.0  0.87961  0.49886  0.14969  1.0000
  C   C3899     1.0  0.78668  0.54855  0.20189  1.0000
  H   H3121     1.0  0.77342  0.49991  0.12884  1.0000
  C   C3900     1.0  0.97050  0.53164  0.99693  1.0000
  C   C3901     1.0  0.74568  0.72191  0.15066  1.0000
  C   C3902     1.0  0.93293  0.58097  0.03919  1.0000
  C   C3903     1.0  0.74693  0.56232  0.11539  1.0000
  C   C3904     1.0  0.90431  0.73975  0.31676  1.0000
  C   C3905     1.0  0.78333  0.63202  0.18808  1.0000
  C   C3906     1.0  0.93773  0.73884  0.31187  1.0000
  C   C3907     1.0  0.80154  0.53551  0.14049  1.0000
  C   C3908     1.0  0.95450  0.51551  0.13469  1.0000
  C   C3909     1.0  0.75765  0.54877  0.17871  1.0000
  C   C3910     1.0  0.87981  0.78023  0.23109  1.0000
  C   C3911     1.0  0.83302  0.50485  0.17809  1.0000
  C   C3912     1.0  0.89600  0.52980  0.00119  1.0000
  P   P132      1.0  0.77928  0.52989  0.15164  1.0000
  H   H3122     1.0  0.90590  0.51981  0.09299  1.0000
  C   C3913     1.0  0.88739  0.53042  0.14069  1.0000
  C   C3914     1.0  0.90371  0.52372  0.13118  1.0000
  H   H3123     1.0  0.80368  0.53529  0.18070  1.0000
  H   H3124     1.0  0.76677  0.56231  0.22059  1.0000
  H   H3125     1.0  0.74773  0.57543  0.10693  1.0000
  H   H3126     1.0  0.86318  0.75905  0.22387  1.0000
  Fe  Fe258     1.0  0.90518  0.66154  0.31150  1.0000
  C   C3915     1.0  0.93439  0.50976  0.09714  1.0000
  C   C3916     1.0  0.95272  0.50971  0.08942  1.0000
  C   C3917     1.0  0.95693  0.52018  0.07269  1.0000
  C   C3918     1.0  0.94288  0.53076  0.06355  1.0000
  C   C3919     1.0  0.92450  0.53053  0.07089  1.0000
  C   C3920     1.0  0.92021  0.51991  0.08755  1.0000
  H   H3127     1.0  0.91932  0.56684  0.02018  1.0000
  C   C3921     1.0  0.89811  0.51127  0.00847  1.0000
  C   C3922     1.0  0.90257  0.74527  0.29788  1.0000
  C   C3923     1.0  0.88812  0.51492  0.19322  1.0000
  H   H3128     1.0  0.95059  0.52723  0.12501  1.0000
  P   P133      1.0  0.92928  0.49607  0.11871  1.0000
  C   C3924     1.0  0.85687  0.69906  0.30453  1.0000
  H   H3129     1.0  0.83943  0.75438  0.29236  1.0000
  H   H3130     1.0  0.88435  0.54527  0.14137  1.0000
  H   H3131     1.0  0.91318  0.53359  0.12467  1.0000
  C   C3925     1.0  0.99117  0.63780  0.29918  1.0000
  C   C3926     1.0  0.82376  0.55841  0.13065  1.0000
  H   H3132     1.0  0.79203  0.61928  0.18633  1.0000
  C   C3927     1.0  0.83602  0.54467  0.12321  1.0000
  H   H3133     1.0  0.78589  0.66435  0.14520  1.0000
  H   H3134     1.0  0.90715  0.53593  0.18524  1.0000
  H   H3135     1.0  0.94631  0.53927  0.05092  1.0000
  H   H3136     1.0  0.91364  0.53883  0.06380  1.0000
  H   H3137     1.0  0.84808  0.69334  0.31604  1.0000
  H   H3138     1.0  0.79311  0.63577  0.21464  1.0000
  H   H3139     1.0  0.86251  0.67303  0.29224  1.0000
  H   H3140     1.0  0.84939  0.54824  0.11679  1.0000
  C   C3928     1.0  0.87075  0.77436  0.31532  1.0000
  C   C3929     1.0  0.77535  0.54097  0.17307  1.0000
  H   H3141     1.0  0.89603  0.78234  0.27352  1.0000
  C   C3930     1.0  0.90464  0.60667  0.31373  1.0000
  C   C3931     1.0  0.76193  0.55500  0.12546  1.0000
  H   H3142     1.0  0.91556  0.60767  0.30268  1.0000
  H   H3143     1.0  0.98609  0.67882  0.27259  1.0000
  H   H3144     1.0  0.97118  0.52028  0.06697  1.0000
  C   C3932     1.0  0.88901  0.78677  0.24512  1.0000
  H   H3145     1.0  0.80293  0.65965  0.11511  1.0000
  C   C3933     1.0  0.87051  0.76400  0.23468  1.0000
  C   C3934     1.0  0.87054  0.75420  0.25223  1.0000
  C   C3935     1.0  0.88025  0.76037  0.26621  1.0000
  C   C3936     1.0  0.88909  0.77697  0.26268  1.0000
  P   P134      1.0  0.87981  0.74841  0.28918  1.0000
  C   C3937     1.0  0.87292  0.72505  0.28927  1.0000
  H   H3146     1.0  0.96846  0.65877  0.29583  1.0000
  C   C3938     1.0  0.87725  0.69476  0.27699  1.0000
  H   H3147     1.0  0.88407  0.68561  0.26709  1.0000
  C   C3939     1.0  0.86403  0.76261  0.30346  1.0000
  C   C3940     1.0  0.93615  0.74380  0.29294  1.0000
  C   C3941     1.0  0.90784  0.50449  0.13045  1.0000
  C   C3942     1.0  0.86076  0.71773  0.30356  1.0000
  H   H3148     1.0  0.76187  0.69897  0.13935  1.0000
  C   C3943     1.0  0.86507  0.68761  0.29123  1.0000
  C   C3944     1.0  0.76118  0.66509  0.19219  1.0000
  C   C3945     1.0  0.94681  0.49839  0.13447  1.0000
  S   S515      1.0  0.98621  0.55382  0.07853  1.0000
  H   H3149     1.0  0.78715  0.50461  0.18505  1.0000
  H   H3150     1.0  0.98370  0.50428  0.16913  1.0000
  C   C3946     1.0  0.75881  0.66188  0.13533  1.0000
  C   C3947     1.0  0.98268  0.65444  0.29142  1.0000
  C   C3948     1.0  0.92912  0.53240  0.00232  1.0000
  C   C3949     1.0  0.97311  0.50270  0.15981  1.0000
  C   C3950     1.0  0.75261  0.59382  0.15390  1.0000
  H   H3151     1.0  0.75346  0.73224  0.14237  1.0000
  H   H3152     1.0  0.88546  0.77471  0.31664  1.0000
  H   H3153     1.0  0.98346  0.62921  0.30955  1.0000
  C   C3951     1.0  0.78433  0.49648  0.17399  1.0000
  H   H3154     1.0  0.95132  0.73609  0.31724  1.0000
  P   P135      1.0  0.74628  0.66510  0.15752  1.0000
  C   C3952     1.0  0.87235  0.60317  0.32360  1.0000
  H   H3155     1.0  0.74268  0.84577  0.31639  1.0000
  C   C3953     1.0  0.92182  0.73668  0.32375  1.0000
  H   H3156     1.0  0.74315  0.77479  0.19731  1.0000
  Fe  Fe259     1.0  0.90391  0.54624  0.50026  1.0000
  S   S516      1.0  0.91554  0.55164  0.47077  1.0000
  S   S517      1.0  0.88980  0.51979  0.51061  1.0000
  Fe  Fe260     1.0  0.91772  0.58205  0.51272  1.0000
  S   S518      1.0  0.93136  0.58896  0.48421  1.0000
  S   S519      1.0  0.92221  0.60471  0.53156  1.0000
  Fe  Fe261     1.0  0.90522  0.58156  0.47329  1.0000
  S   S520      1.0  0.89054  0.60261  0.45295  1.0000
  Fe  Fe262     1.0  0.94055  0.55877  0.48425  1.0000
  S   S521      1.0  0.96904  0.54869  0.47290  1.0000
  S   S522      1.0  0.89101  0.57573  0.50179  1.0000
  S   S523      1.0  0.92954  0.55219  0.51364  1.0000
  Fe  Fe263     1.0  0.89889  0.95194  0.40280  1.0000
  C   C3954     1.0  0.81431  0.95983  0.61918  1.0000
  S   S524      1.0  0.89635  0.92168  0.39780  1.0000
  Fe  Fe264     1.0  0.88982  0.97774  0.43346  1.0000
  H   H3157     1.0  0.83297  0.84677  0.48300  1.0000
  C   C3955     1.0  0.97262  0.95241  0.53839  1.0000
  H   H3158     1.0  0.89683  0.56264  0.39966  1.0000
  S   S525      1.0  0.87528  0.97332  0.40822  1.0000
  S   S526      1.0  0.91208  0.95489  0.42933  1.0000
  H   H3159     1.0  0.92308  0.73209  0.33828  1.0000
  S   S527      1.0  0.92017  0.94871  0.58077  1.0000
  S   S528      1.0  0.92419  0.95687  0.52739  1.0000
  Fe  Fe265     1.0  0.89027  0.95432  0.59076  1.0000
  S   S529      1.0  0.87143  0.93271  0.60516  1.0000
  C   C3956     1.0  0.78163  0.76352  0.36466  1.0000
  Fe  Fe266     1.0  0.90486  0.68378  0.64127  1.0000
  C   C3957     1.0  0.81998  0.87681  0.65000  1.0000
  S   S530      1.0  0.89792  0.71492  0.63225  1.0000
  Fe  Fe267     1.0  0.90548  0.64320  0.63177  1.0000
  S   S531      1.0  0.89425  0.62268  0.61411  1.0000
  S   S532      1.0  0.92318  0.66650  0.62170  1.0000
  Fe  Fe268     1.0  0.83287  0.83874  0.57485  1.0000
  S   S533      1.0  0.80724  0.84369  0.55925  1.0000
  S   S534      1.0  0.85363  0.86083  0.56712  1.0000
  Fe  Fe269     1.0  0.82327  0.79877  0.58910  1.0000
  S   S535      1.0  0.79678  0.80198  0.57395  1.0000
  S   S536      1.0  0.82899  0.76958  0.60445  1.0000
  Fe  Fe270     1.0  0.81373  0.81527  0.54964  1.0000
  S   S537      1.0  0.81889  0.80815  0.51932  1.0000
  Fe  Fe271     1.0  0.79223  0.83043  0.58487  1.0000
  S   S538      1.0  0.76459  0.84743  0.59176  1.0000
  S   S539      1.0  0.84024  0.81058  0.56422  1.0000
  S   S540      1.0  0.81780  0.82680  0.60120  1.0000
  Fe  Fe272     1.0  0.81472  0.85588  0.38548  1.0000
  S   S541      1.0  0.78458  0.85397  0.39457  1.0000
  S   S542      1.0  0.82232  0.88606  0.38147  1.0000
  Fe  Fe273     1.0  0.82104  0.81330  0.38270  1.0000
  S   S543      1.0  0.79098  0.80886  0.39149  1.0000
  S   S544      1.0  0.84597  0.79193  0.37656  1.0000
  Fe  Fe274     1.0  0.78353  0.83466  0.37235  1.0000
  S   S545      1.0  0.76264  0.83926  0.34942  1.0000
  Fe  Fe275     1.0  0.79397  0.82885  0.41322  1.0000
  S   S546      1.0  0.78001  0.82792  0.44278  1.0000
  S   S547      1.0  0.81349  0.83771  0.36213  1.0000
  S   S548      1.0  0.82419  0.83206  0.40556  1.0000
  Fe  Fe276     1.0  0.89369  0.69016  0.34078  1.0000
  S   S549      1.0  0.88842  0.65981  0.33904  1.0000
  S   S550      1.0  0.86830  0.70994  0.34968  1.0000
  C   C3958     1.0  0.76776  0.90342  0.58258  1.0000
  C   C3959     1.0  0.88020  0.97483  0.49757  1.0000
  C   C3960     1.0  0.74575  0.89753  0.34711  1.0000
  C   C3961     1.0  0.92792  0.70386  0.55488  1.0000
  Fe  Fe277     1.0  0.91556  0.65328  0.35240  1.0000
  S   S551      1.0  0.92557  0.62916  0.37261  1.0000
  C   C3962     1.0  0.97455  0.62292  0.36184  1.0000
  S   S552      1.0  0.91974  0.68312  0.35600  1.0000
  C   C3963     1.0  0.96093  0.68537  0.38300  1.0000
  H   H3160     1.0  0.89331  0.77996  0.45753  1.0000
  H   H3161     1.0  0.75587  0.90047  0.55681  1.0000
  H   H3162     1.0  0.95996  0.61081  0.40823  1.0000
  C   C3964     1.0  0.85177  0.76887  0.36952  1.0000
  C   C3965     1.0  0.83838  0.75726  0.36554  1.0000
  C   C3966     1.0  0.84373  0.73942  0.35948  1.0000
  C   C3967     1.0  0.86254  0.73274  0.35740  1.0000
  C   C3968     1.0  0.87594  0.74428  0.36160  1.0000
  C   C3969     1.0  0.87058  0.76216  0.36753  1.0000
  H   H3163     1.0  0.82392  0.76205  0.36714  1.0000
  H   H3164     1.0  0.95151  0.59361  0.43828  1.0000
  H   H3165     1.0  0.89044  0.73942  0.36036  1.0000
  H   H3166     1.0  0.88113  0.77091  0.37056  1.0000
  C   C3970     1.0  0.80770  0.81405  0.49828  1.0000
  C   C3971     1.0  0.78987  0.82301  0.49785  1.0000
  C   C3972     1.0  0.78154  0.82698  0.48079  1.0000
  C   C3973     1.0  0.79111  0.82254  0.46391  1.0000
  C   C3974     1.0  0.80901  0.81376  0.46435  1.0000
  C   C3975     1.0  0.81709  0.80929  0.48143  1.0000
  H   H3167     1.0  0.78236  0.82655  0.51067  1.0000
  H   H3168     1.0  0.76765  0.83366  0.48063  1.0000
  H   H3169     1.0  0.81651  0.81014  0.45154  1.0000
  H   H3170     1.0  0.83070  0.80200  0.48155  1.0000
  C   C3976     1.0  0.87870  0.72956  0.62375  1.0000
  C   C3977     1.0  0.86089  0.72346  0.62392  1.0000
  C   C3978     1.0  0.84595  0.73587  0.61796  1.0000
  C   C3979     1.0  0.84860  0.75448  0.61138  1.0000
  C   C3980     1.0  0.86653  0.76042  0.61072  1.0000
  C   C3981     1.0  0.88139  0.74810  0.61700  1.0000
  C   C3982     1.0  0.90132  0.94440  0.63845  1.0000
  H   H3171     1.0  0.83221  0.73103  0.61849  1.0000
  H   H3172     1.0  0.86890  0.77462  0.60573  1.0000
  Fe  Fe278     1.0  0.91238  0.96604  0.55493  1.0000
  H   H3173     1.0  0.79603  0.87451  0.44435  1.0000
  H   H3174     1.0  0.94194  0.66257  0.57545  1.0000
  H   H3175     1.0  0.86047  0.80303  0.41295  1.0000
  C   C3983     1.0  0.80042  0.89358  0.58361  1.0000
  S   S553      1.0  0.87408  0.98236  0.46089  1.0000
  H   H3176     1.0  0.83133  0.96586  0.35731  1.0000
  H   H3177     1.0  0.95915  0.61853  0.33869  1.0000
  C   C3984     1.0  0.85701  0.88129  0.57775  1.0000
  C   C3985     1.0  0.86749  0.89481  0.56767  1.0000
  C   C3986     1.0  0.87165  0.91075  0.57580  1.0000
  C   C3987     1.0  0.86550  0.91331  0.59419  1.0000
  C   C3988     1.0  0.85466  0.90001  0.60419  1.0000
  C   C3989     1.0  0.85045  0.88404  0.59604  1.0000
  H   H3178     1.0  0.87270  0.89275  0.55357  1.0000
  H   H3179     1.0  0.88000  0.92088  0.56806  1.0000
  H   H3180     1.0  0.84978  0.90189  0.61842  1.0000
  H   H3181     1.0  0.84249  0.87369  0.60404  1.0000
  H   H3182     1.0  0.94470  0.51748  0.53080  1.0000
  C   C3990     1.0  0.98206  0.69804  0.51379  1.0000
  C   C3991     1.0  0.87561  0.91199  0.39335  1.0000
  C   C3992     1.0  0.85987  0.92317  0.38817  1.0000
  C   C3993     1.0  0.84368  0.91497  0.38470  1.0000
  C   C3994     1.0  0.84305  0.89553  0.38625  1.0000
  C   C3995     1.0  0.85878  0.88433  0.39139  1.0000
  C   C3996     1.0  0.87498  0.89253  0.39489  1.0000
  H   H3183     1.0  0.86020  0.93813  0.38673  1.0000
  H   H3184     1.0  0.83161  0.92374  0.38063  1.0000
  H   H3185     1.0  0.85854  0.86936  0.39242  1.0000
  H   H3186     1.0  0.88713  0.88374  0.39866  1.0000
  H   H3187     1.0  0.95921  0.95453  0.54594  1.0000
  H   H3188     1.0  0.83566  0.95600  0.48979  1.0000
  H   H3189     1.0  0.86361  0.79467  0.33517  1.0000
  H   H3190     1.0  0.83463  0.90927  0.43577  1.0000
  C   C3997     1.0  0.91014  0.96410  0.50904  1.0000
  C   C3998     1.0  0.91798  0.96467  0.49078  1.0000
  C   C3999     1.0  0.90696  0.97041  0.47597  1.0000
  H   H3191     1.0  0.93262  0.96097  0.48808  1.0000
  H   H3192     1.0  0.91327  0.97145  0.46200  1.0000
  C   C4000     1.0  0.90069  0.61012  0.43082  1.0000
  C   C4001     1.0  0.91541  0.59967  0.42222  1.0000
  C   C4002     1.0  0.92262  0.60559  0.40427  1.0000
  C   C4003     1.0  0.91546  0.62217  0.39489  1.0000
  C   C4004     1.0  0.90081  0.63270  0.40350  1.0000
  C   C4005     1.0  0.89333  0.62659  0.42133  1.0000
  H   H3193     1.0  0.92085  0.58675  0.42921  1.0000
  H   H3194     1.0  0.93372  0.59719  0.39753  1.0000
  H   H3195     1.0  0.89525  0.64554  0.39643  1.0000
  H   H3196     1.0  0.88183  0.63466  0.42783  1.0000
  C   C4006     1.0  0.91479  0.60873  0.55486  1.0000
  C   C4007     1.0  0.90099  0.59892  0.56500  1.0000
  C   C4008     1.0  0.89492  0.60333  0.58314  1.0000
  C   C4009     1.0  0.90264  0.61747  0.59137  1.0000
  C   C4010     1.0  0.91652  0.62718  0.58128  1.0000
  C   C4011     1.0  0.92252  0.62287  0.56310  1.0000
  H   H3197     1.0  0.89482  0.58814  0.55878  1.0000
  H   H3198     1.0  0.88412  0.59579  0.59081  1.0000
  H   H3199     1.0  0.92250  0.63805  0.58750  1.0000
  H   H3200     1.0  0.93319  0.63055  0.55535  1.0000
  C   C4012     1.0  0.86666  0.80456  0.42585  1.0000
  H   H3201     1.0  0.96871  0.55692  0.51105  1.0000
  H   H3202     1.0  0.83317  0.73071  0.35640  1.0000
  H   H3203     1.0  0.98571  0.98054  0.62327  1.0000
  C   C4013     1.0  0.81604  0.85851  0.64832  1.0000
  C   C4014     1.0  0.84270  0.67152  0.61945  1.0000
  S   S554      1.0  0.91724  0.97216  0.38601  1.0000
  H   H3204     1.0  0.91176  0.88704  0.61703  1.0000
  H   H3205     1.0  0.90498  0.49563  0.54967  1.0000
  C   C4015     1.0  0.83547  0.65944  0.34735  1.0000
  C   C4016     1.0  0.96890  0.66758  0.56212  1.0000
  C   C4017     1.0  0.85077  0.63081  0.36097  1.0000
  C   C4018     1.0  0.85443  0.92912  0.43828  1.0000
  C   C4019     1.0  0.83992  0.64027  0.34733  1.0000
  H   H3206     1.0  0.98870  0.56999  0.36392  1.0000
  H   H3207     1.0  0.94574  0.52291  0.45460  1.0000
  P   P136      1.0  0.85740  0.60633  0.36003  1.0000
  H   H3208     1.0  0.80859  0.65350  0.65066  1.0000
  S   S555      1.0  0.95121  0.97809  0.60676  1.0000
  C   C4020     1.0  0.93345  0.70571  0.57261  1.0000
  C   C4021     1.0  0.92075  0.70377  0.58801  1.0000
  H   H3209     1.0  0.94749  0.70884  0.57449  1.0000
  H   H3210     1.0  0.92489  0.70561  0.60174  1.0000
  Fe  Fe279     1.0  0.93507  0.68291  0.32776  1.0000
  C   C4022     1.0  0.87703  0.78955  0.43447  1.0000
  H   H3211     1.0  0.83584  0.66618  0.63239  1.0000
  H   H3212     1.0  0.95090  0.67018  0.50081  1.0000
  C   C4023     1.0  0.91852  0.89113  0.60360  1.0000
  P   P137      1.0  0.97894  0.63835  0.49742  1.0000
  C   C4024     1.0  0.95883  0.63710  0.48438  1.0000
  C   C4025     1.0  0.97667  0.62292  0.51840  1.0000
  C   C4026     1.0  0.96917  0.60574  0.51799  1.0000
  C   C4027     1.0  0.96607  0.59438  0.53442  1.0000
  C   C4028     1.0  0.97057  0.59993  0.55132  1.0000
  H   H3213     1.0  0.79397  0.96614  0.64139  1.0000
  C   C4029     1.0  0.95179  0.50547  0.52482  1.0000
  C   C4030     1.0  0.94124  0.63610  0.49387  1.0000
  C   C4031     1.0  0.92548  0.63548  0.48410  1.0000
  C   C4032     1.0  0.92709  0.63579  0.46476  1.0000
  C   C4033     1.0  0.94449  0.63683  0.45518  1.0000
  C   C4034     1.0  0.96033  0.63742  0.46491  1.0000
  H   H3214     1.0  0.84379  0.61051  0.39866  1.0000
  H   H3215     1.0  0.92195  0.61227  0.33509  1.0000
  C   C4035     1.0  0.84202  0.66932  0.36082  1.0000
  C   C4036     1.0  0.98305  0.64698  0.59312  1.0000
  C   C4037     1.0  0.90820  0.60937  0.33190  1.0000
  C   C4038     1.0  0.95681  0.66015  0.57630  1.0000
  C   C4039     1.0  0.99184  0.93183  0.60589  1.0000
  C   C4040     1.0  0.95211  0.67051  0.39250  1.0000
  C   C4041     1.0  0.93986  0.94075  0.63944  1.0000
  H   H3216     1.0  0.96515  0.60133  0.50511  1.0000
  H   H3217     1.0  0.95939  0.58159  0.53410  1.0000
  H   H3218     1.0  0.75025  0.81387  0.38281  1.0000
  H   H3219     1.0  0.95474  0.91423  0.58278  1.0000
  C   C4042     1.0  0.75981  0.90993  0.62609  1.0000
  H   H3220     1.0  0.93968  0.63557  0.50889  1.0000
  H   H3221     1.0  0.91206  0.63410  0.49158  1.0000
  H   H3222     1.0  0.91489  0.63482  0.45725  1.0000
  H   H3223     1.0  0.94566  0.63686  0.44019  1.0000
  H   H3224     1.0  0.97361  0.63786  0.45714  1.0000
  H   H3225     1.0  0.85683  0.93227  0.42347  1.0000
  H   H3226     1.0  0.83183  0.59799  0.64085  1.0000
  C   C4043     1.0  0.97107  0.50424  0.52158  1.0000
  H   H3227     1.0  0.93733  0.67198  0.39619  1.0000
  H   H3228     1.0  0.82992  0.79481  0.33255  1.0000
  C   C4044     1.0  0.88803  0.97531  0.47933  1.0000
  C   C4045     1.0  0.78748  0.77673  0.35064  1.0000
  H   H3229     1.0  0.95474  0.93967  0.64017  1.0000
  H   H3230     1.0  0.76606  0.87810  0.35996  1.0000
  H   H3231     1.0  0.81280  0.89072  0.59111  1.0000
  H   H3232     1.0  0.96552  0.92563  0.50026  1.0000
  C   C4046     1.0  0.77338  0.92252  0.34323  1.0000
  H   H3233     1.0  0.81407  0.88400  0.55845  1.0000
  C   C4047     1.0  0.96975  0.94704  0.45643  1.0000
  C   C4048     1.0  0.98862  0.94883  0.54804  1.0000
  C   C4049     1.0  0.99118  0.95094  0.50911  1.0000
  H   H3234     1.0  0.90418  0.91902  0.62532  1.0000
  C   C4050     1.0  0.96264  0.92988  0.48603  1.0000
  S   S556      1.0  0.88226  0.96969  0.56412  1.0000
  C   C4051     1.0  0.85766  0.64092  0.37419  1.0000
  H   H3235     1.0  0.88507  0.96884  0.52637  1.0000
  H   H3236     1.0  0.83880  0.70739  0.58609  1.0000
  H   H3237     1.0  0.79132  0.75227  0.36959  1.0000
  H   H3238     1.0  0.85603  0.57091  0.34412  1.0000
  C   C4052     1.0  0.98109  0.65103  0.39083  1.0000
  C   C4053     1.0  0.76319  0.89209  0.35359  1.0000
  H   H3239     1.0  0.96845  0.58473  0.33973  1.0000
  S   S557      1.0  0.89573  0.98052  0.60351  1.0000
  H   H3240     1.0  0.79056  0.90027  0.35672  1.0000
  S   S558      1.0  0.95701  0.98299  0.42202  1.0000
  H   H3241     1.0  0.85865  0.70926  0.62891  1.0000
  C   C4054     1.0  0.98752  0.61561  0.41524  1.0000
  C   C4055     1.0  0.74801  0.84930  0.61121  1.0000
  H   H3242     1.0  0.78225  0.86668  0.61807  1.0000
  H   H3243     1.0  0.81334  0.90564  0.64198  1.0000
  H   H3244     1.0  0.86698  0.63420  0.38414  1.0000
  C   C4056     1.0  0.96235  0.49800  0.46302  1.0000
  H   H3245     1.0  0.75462  0.90837  0.58913  1.0000
  C   C4057     1.0  0.97981  0.68319  0.37752  1.0000
  C   C4058     1.0  0.81450  0.94605  0.54022  1.0000
  H   H3246     1.0  0.91241  0.88934  0.55783  1.0000
  C   C4059     1.0  0.81216  0.96383  0.53103  1.0000
  C   C4060     1.0  0.95125  0.50924  0.45093  1.0000
  C   C4061     1.0  0.75093  0.77984  0.36665  1.0000
  C   C4062     1.0  0.97860  0.61670  0.55175  1.0000
  C   C4063     1.0  0.92961  0.95607  0.64650  1.0000
  C   C4064     1.0  0.86504  0.59560  0.38191  1.0000
  H   H3247     1.0  0.89670  0.61155  0.35983  1.0000
  H   H3248     1.0  0.89508  0.75303  0.61676  1.0000
  H   H3249     1.0  0.79755  0.56570  0.34410  1.0000
  C   C4065     1.0  0.77511  0.79140  0.34449  1.0000
  H   H3250     1.0  0.96517  0.50304  0.47603  1.0000
  C   C4066     1.0  0.81109  0.93140  0.60502  1.0000
  C   C4067     1.0  0.97811  0.98305  0.57750  1.0000
  H   H3251     1.0  0.98800  0.64098  0.53603  1.0000
  C   C4068     1.0  0.85315  0.66007  0.37420  1.0000
  C   C4069     1.0  0.98201  0.89927  0.62680  1.0000
  C   C4070     1.0  0.81976  0.96725  0.51284  1.0000
  C   C4071     1.0  0.94227  0.85470  0.64972  1.0000
  H   H3252     1.0  0.78417  0.93214  0.34176  1.0000
  H   H3253     1.0  0.95292  0.70195  0.50936  1.0000
  C   C4072     1.0  0.76841  0.89898  0.56416  1.0000
  C   C4073     1.0  0.95521  0.93944  0.44897  1.0000
  H   H3254     1.0  0.80165  0.85886  0.47543  1.0000
  H   H3255     1.0  0.87878  0.77641  0.42827  1.0000
  C   C4074     1.0  0.96390  0.64989  0.59179  1.0000
  H   H3256     1.0  0.91738  0.50932  0.48120  1.0000
  C   C4075     1.0  0.83176  0.86374  0.52068  1.0000
  C   C4076     1.0  0.81363  0.86363  0.51550  1.0000
  C   C4077     1.0  0.80483  0.87975  0.50708  1.0000
  C   C4078     1.0  0.81434  0.89583  0.50339  1.0000
  C   C4079     1.0  0.83290  0.89574  0.50768  1.0000
  C   C4080     1.0  0.84142  0.87971  0.51679  1.0000
  P   P138      1.0  0.84518  0.91637  0.50175  1.0000
  C   C4081     1.0  0.86833  0.91361  0.50965  1.0000
  C   C4082     1.0  0.84818  0.92142  0.47683  1.0000
  C   C4083     1.0  0.86093  0.93422  0.46953  1.0000
  C   C4084     1.0  0.86403  0.93798  0.45037  1.0000
  C   C4085     1.0  0.96412  0.67427  0.50426  1.0000
  C   C4086     1.0  0.84188  0.91622  0.44531  1.0000
  C   C4087     1.0  0.83884  0.91221  0.46451  1.0000
  C   C4088     1.0  0.87335  0.92374  0.52383  1.0000
  C   C4089     1.0  0.89178  0.92266  0.52846  1.0000
  C   C4090     1.0  0.90532  0.91156  0.51900  1.0000
  C   C4091     1.0  0.90042  0.90131  0.50499  1.0000
  C   C4092     1.0  0.88200  0.90240  0.50029  1.0000
  C   C4093     1.0  0.83208  0.93503  0.51291  1.0000
  C   C4094     1.0  0.82441  0.93168  0.53120  1.0000
  C   C4095     1.0  0.96835  0.61212  0.34893  1.0000
  H   H3257     1.0  0.98181  0.62111  0.56488  1.0000
  H   H3258     1.0  0.85880  0.66791  0.38417  1.0000
  C   C4096     1.0  0.97335  0.94265  0.47510  1.0000
  H   H3259     1.0  0.83822  0.85143  0.52792  1.0000
  H   H3260     1.0  0.80639  0.85106  0.51820  1.0000
  H   H3261     1.0  0.79067  0.87969  0.50332  1.0000
  H   H3262     1.0  0.80736  0.90825  0.49683  1.0000
  H   H3263     1.0  0.85537  0.87946  0.52114  1.0000
  H   H3264     1.0  0.86852  0.94137  0.47863  1.0000
  H   H3265     1.0  0.94778  0.86655  0.62179  1.0000
  H   H3266     1.0  0.96743  0.59140  0.56407  1.0000
  H   H3267     1.0  0.85427  0.59576  0.42858  1.0000
  H   H3268     1.0  0.82942  0.90177  0.46943  1.0000
  H   H3269     1.0  0.86330  0.93284  0.53111  1.0000
  H   H3270     1.0  0.89569  0.93091  0.53904  1.0000
  H   H3271     1.0  0.91964  0.91129  0.52235  1.0000
  H   H3272     1.0  0.91092  0.89286  0.49748  1.0000
  H   H3273     1.0  0.87842  0.89495  0.48899  1.0000
  H   H3274     1.0  0.82629  0.91801  0.53859  1.0000
  C   C4097     1.0  0.94715  0.50282  0.43427  1.0000
  H   H3275     1.0  0.96338  0.67561  0.55017  1.0000
  C   C4098     1.0  0.87591  0.60558  0.34196  1.0000
  H   H3276     1.0  0.83523  0.63290  0.33645  1.0000
  P   P139      1.0  0.78349  0.90693  0.61610  1.0000
  C   C4099     1.0  0.87192  0.82359  0.45059  1.0000
  C   C4100     1.0  0.86424  0.82153  0.43379  1.0000
  P   P140      1.0  0.86906  0.84574  0.46056  1.0000
  C   C4101     1.0  0.87199  0.84218  0.48525  1.0000
  C   C4102     1.0  0.88574  0.86098  0.44918  1.0000
  C   C4103     1.0  0.90162  0.85382  0.43910  1.0000
  C   C4104     1.0  0.91401  0.86587  0.42971  1.0000
  C   C4105     1.0  0.91065  0.88508  0.43039  1.0000
  C   C4106     1.0  0.89499  0.89228  0.44055  1.0000
  C   C4107     1.0  0.88258  0.88030  0.44994  1.0000
  C   C4108     1.0  0.86320  0.82798  0.49616  1.0000
  C   C4109     1.0  0.86536  0.82514  0.51523  1.0000
  C   C4110     1.0  0.87619  0.83656  0.52363  1.0000
  C   C4111     1.0  0.88525  0.85053  0.51286  1.0000
  C   C4112     1.0  0.88333  0.85323  0.49371  1.0000
  C   C4113     1.0  0.84608  0.85622  0.45625  1.0000
  C   C4114     1.0  0.84282  0.86571  0.43886  1.0000
  C   C4115     1.0  0.82486  0.87239  0.43467  1.0000
  C   C4116     1.0  0.81004  0.86996  0.44786  1.0000
  C   C4117     1.0  0.81322  0.86111  0.46537  1.0000
  C   C4118     1.0  0.83112  0.85418  0.46958  1.0000
  H   H3277     1.0  0.88940  0.80991  0.47152  1.0000
  H   H3278     1.0  0.85639  0.83297  0.42670  1.0000
  H   H3279     1.0  0.90429  0.83901  0.43813  1.0000
  H   H3280     1.0  0.92595  0.86036  0.42148  1.0000
  H   H3281     1.0  0.91984  0.89448  0.42252  1.0000
  H   H3282     1.0  0.89215  0.90722  0.44050  1.0000
  H   H3283     1.0  0.87029  0.88611  0.45740  1.0000
  H   H3284     1.0  0.85450  0.81916  0.49000  1.0000
  H   H3285     1.0  0.85822  0.81434  0.52356  1.0000
  H   H3286     1.0  0.89362  0.85936  0.51945  1.0000
  H   H3287     1.0  0.89072  0.86388  0.48560  1.0000
  H   H3288     1.0  0.85404  0.86742  0.42826  1.0000
  H   H3289     1.0  0.82237  0.87907  0.42099  1.0000
  C   C4119     1.0  0.88517  0.79158  0.45094  1.0000
  H   H3290     1.0  0.89290  0.69858  0.59792  1.0000
  H   H3291     1.0  0.96352  0.98164  0.47525  1.0000
  C   C4120     1.0  0.96993  0.60872  0.41870  1.0000
  H   H3292     1.0  0.84170  0.76558  0.53864  1.0000
  C   C4121     1.0  0.75691  0.79291  0.35239  1.0000
  C   C4122     1.0  0.88278  0.80857  0.45890  1.0000
  C   C4123     1.0  0.82976  0.95295  0.50380  1.0000
  H   H3293     1.0  0.87383  0.94787  0.44486  1.0000
  C   C4124     1.0  0.90258  0.69971  0.58580  1.0000
  H   H3294     1.0  0.86626  0.59635  0.63793  1.0000
  C   C4125     1.0  0.89127  0.96932  0.51240  1.0000
  H   H3295     1.0  0.93925  0.91322  0.48725  1.0000
  C   C4126     1.0  0.89677  0.49829  0.50121  1.0000
  H   H3296     1.0  0.89840  0.87918  0.58894  1.0000
  H   H3297     1.0  0.81663  0.92172  0.59519  1.0000
  C   C4127     1.0  0.88703  0.66300  0.54624  1.0000
  H   H3298     1.0  0.95462  0.64197  0.40279  1.0000
  H   H3299     1.0  0.78057  0.98134  0.58600  1.0000
  H   H3300     1.0  0.82729  0.66672  0.33667  1.0000
  H   H3301     1.0  0.86415  0.64918  0.61965  1.0000
  C   C4128     1.0  0.94409  0.92738  0.46011  1.0000
  H   H3302     1.0  0.80871  0.94335  0.55435  1.0000
  H   H3303     1.0  0.94060  0.90699  0.55491  1.0000
  C   C4129     1.0  0.78512  0.89221  0.55539  1.0000
  C   C4130     1.0  0.87180  0.67588  0.54959  1.0000
  C   C4131     1.0  0.87963  0.58157  0.38235  1.0000
  H   H3304     1.0  0.81347  0.97639  0.57397  1.0000
  C   C4132     1.0  0.91154  0.92920  0.63114  1.0000
  H   H3305     1.0  0.88063  0.57190  0.42915  1.0000
  H   H3306     1.0  0.78553  0.88851  0.54125  1.0000
  C   C4133     1.0  0.85882  0.66201  0.61235  1.0000
  H   H3307     1.0  0.93765  0.70573  0.54291  1.0000
  H   H3308     1.0  0.84270  0.68267  0.54552  1.0000
  C   C4134     1.0  0.97393  0.95383  0.51899  1.0000
  C   C4135     1.0  0.84791  0.75198  0.54341  1.0000
  H   H3309     1.0  0.85276  0.76014  0.57031  1.0000
  C   C4136     1.0  0.89701  0.69751  0.56811  1.0000
  C   C4137     1.0  0.83557  0.68785  0.60987  1.0000
  C   C4138     1.0  0.86817  0.66904  0.59595  1.0000
  H   H3310     1.0  0.88074  0.66145  0.59075  1.0000
  H   H3311     1.0  0.84038  0.65733  0.52540  1.0000
  C   C4139     1.0  0.93470  0.90218  0.56851  1.0000
  C   C4140     1.0  0.78385  0.90095  0.59240  1.0000
  C   C4141     1.0  0.94423  0.86950  0.63606  1.0000
  H   H3312     1.0  0.96276  0.93773  0.60242  1.0000
  S   S559      1.0  0.97157  0.65116  0.64024  1.0000
  C   C4142     1.0  0.97407  0.98134  0.59672  1.0000
  C   C4143     1.0  0.94787  0.92253  0.47861  1.0000
  H   H3313     1.0  0.97428  0.58740  0.46212  1.0000
  C   C4144     1.0  0.90970  0.69998  0.55260  1.0000
  C   C4145     1.0  0.86131  0.68563  0.58639  1.0000
  H   H3314     1.0  0.82305  0.69526  0.61534  1.0000
  H   H3315     1.0  0.79112  0.59548  0.35861  1.0000
  H   H3316     1.0  0.93255  0.92188  0.45437  1.0000
  H   H3317     1.0  0.93833  0.51150  0.42504  1.0000
  S   S560      1.0  0.92339  0.63227  0.65495  1.0000
  S   S561      1.0  0.88588  0.66098  0.64992  1.0000
  C   C4146     1.0  0.91881  0.89233  0.57012  1.0000
  C   C4147     1.0  0.94264  0.90636  0.58446  1.0000
  H   H3318     1.0  0.75327  0.83187  0.40944  1.0000
  C   C4148     1.0  0.97324  0.92781  0.60830  1.0000
  C   C4149     1.0  0.84473  0.69482  0.59331  1.0000
  C   C4150     1.0  0.85346  0.65909  0.53103  1.0000
  C   C4151     1.0  0.85487  0.67350  0.54231  1.0000
  C   C4152     1.0  0.93094  0.92738  0.63130  1.0000
  H   H3319     1.0  0.75437  0.93720  0.61176  1.0000
  C   C4153     1.0  0.84192  0.57653  0.34712  1.0000
  H   H3320     1.0  0.98286  0.71205  0.51761  1.0000
  C   C4154     1.0  0.87603  0.57816  0.41595  1.0000
  H   H3321     1.0  0.87732  0.83470  0.53854  1.0000
  C   C4155     1.0  0.79630  0.88812  0.62886  1.0000
  P   P141      1.0  0.87321  0.69402  0.56481  1.0000
  H   H3322     1.0  0.90542  0.69905  0.53876  1.0000
  H   H3323     1.0  0.76127  0.82792  0.62934  1.0000
  H   H3324     1.0  0.88681  0.57727  0.36963  1.0000
  C   C4156     1.0  0.93448  0.90106  0.60218  1.0000
  C   C4157     1.0  0.96816  0.91147  0.61878  1.0000
  H   H3325     1.0  0.95460  0.64440  0.60303  1.0000
  H   H3326     1.0  0.97345  0.95980  0.39274  1.0000
  C   C4158     1.0  0.98251  0.55827  0.50464  1.0000
  C   C4159     1.0  0.86885  0.64674  0.52725  1.0000
  H   H3327     1.0  0.86776  0.63542  0.51869  1.0000
  C   C4160     1.0  0.88522  0.57306  0.39933  1.0000
  H   H3328     1.0  0.82185  0.97196  0.62020  1.0000
  C   C4161     1.0  0.80739  0.99030  0.57596  1.0000
  C   C4162     1.0  0.98986  0.66613  0.38140  1.0000
  C   C4163     1.0  0.75198  0.89590  0.63821  1.0000
  Fe  Fe280     1.0  0.92870  0.97665  0.41318  1.0000
  C   C4164     1.0  0.82059  0.94720  0.60624  1.0000
  C   C4165     1.0  0.80115  0.88963  0.56508  1.0000
  C   C4166     1.0  0.99099  0.59554  0.37631  1.0000
  C   C4167     1.0  0.96516  0.59872  0.43560  1.0000
  C   C4168     1.0  0.88558  0.64867  0.53491  1.0000
  C   C4169     1.0  0.86322  0.71659  0.55618  1.0000
  H   H3329     1.0  0.85919  0.70914  0.52855  1.0000
  H   H3330     1.0  0.86673  0.72928  0.58146  1.0000
  C   C4170     1.0  0.98182  0.62808  0.53535  1.0000
  C   C4171     1.0  0.85755  0.71994  0.53799  1.0000
  C   C4172     1.0  0.86191  0.73137  0.56758  1.0000
  H   H3331     1.0  0.89990  0.66364  0.55267  1.0000
  H   H3332     1.0  0.89734  0.63877  0.53235  1.0000
  C   C4173     1.0  0.80530  0.59025  0.35531  1.0000
  P   P142      1.0  0.94395  0.90699  0.62308  1.0000
  C   C4174     1.0  0.91086  0.88665  0.58766  1.0000
  H   H3333     1.0  0.88674  0.50366  0.57842  1.0000
  H   H3334     1.0  0.90246  0.96999  0.65109  1.0000
  H   H3335     1.0  0.75975  0.88288  0.64186  1.0000
  H   H3336     1.0  0.83004  0.55345  0.33701  1.0000
  C   C4175     1.0  0.83969  0.99060  0.36757  1.0000
  C   C4176     1.0  0.96210  0.65341  0.39636  1.0000
  C   C4177     1.0  0.96519  0.69233  0.50921  1.0000
  C   C4178     1.0  0.84978  0.73754  0.53172  1.0000
  H   H3337     1.0  0.84515  0.74005  0.51779  1.0000
  C   C4179     1.0  0.86114  0.59168  0.41561  1.0000
  C   C4180     1.0  0.85547  0.60019  0.39866  1.0000
  Fe  Fe281     1.0  0.92533  0.97606  0.59101  1.0000
  H   H3338     1.0  0.82368  0.84704  0.65577  1.0000
  C   C4181     1.0  0.85412  0.74891  0.56127  1.0000
  H   H3339     1.0  0.94418  0.84050  0.64596  1.0000
  C   C4182     1.0  0.98651  0.55472  0.48611  1.0000
  H   H3340     1.0  0.98819  0.63952  0.60556  1.0000
  H   H3341     1.0  0.79911  0.84081  0.63572  1.0000
  H   H3342     1.0  0.97817  0.95641  0.44762  1.0000
  Fe  Fe282     1.0  0.94013  0.65693  0.64614  1.0000
  H   H3343     1.0  0.97857  0.88672  0.63516  1.0000
  H   H3344     1.0  0.85387  0.98501  0.36926  1.0000
  H   H3345     1.0  0.86558  0.97864  0.50027  1.0000
  H   H3346     1.0  0.81794  0.98100  0.50568  1.0000
  C   C4183     1.0  0.83838  0.59366  0.35481  1.0000
  H   H3347     1.0  0.88637  0.94589  0.63789  1.0000
  H   H3348     1.0  0.98651  0.69448  0.36952  1.0000
  C   C4184     1.0  0.74951  0.83801  0.62784  1.0000
  H   H3349     1.0  0.95244  0.94317  0.43457  1.0000
  C   C4185     1.0  0.97803  0.59515  0.44904  1.0000
  C   C4186     1.0  0.82701  0.97988  0.36080  1.0000
  H   H3350     1.0  0.83898  0.68425  0.36058  1.0000
  C   C4187     1.0  0.81998  0.60028  0.35923  1.0000
  H   H3351     1.0  0.83317  0.94941  0.59746  1.0000
  C   C4188     1.0  0.77701  0.90457  0.35168  1.0000
  C   C4189     1.0  0.79517  0.92801  0.61681  1.0000
  C   C4190     1.0  0.91096  0.49696  0.48710  1.0000
  C   C4191     1.0  0.80892  0.57344  0.34719  1.0000
  H   H3352     1.0  0.97000  0.63756  0.36117  1.0000
  C   C4192     1.0  0.80229  0.85497  0.63697  1.0000
  H   H3353     1.0  0.75346  0.94195  0.33017  1.0000
  C   C4193     1.0  0.97678  0.98768  0.47353  1.0000
  H   H3354     1.0  0.83701  0.70964  0.65711  1.0000
  C   C4194     1.0  0.97349  0.59307  0.34963  1.0000
  H   H3355     1.0  0.79900  0.97894  0.35326  1.0000
  C   C4195     1.0  0.98485  0.58478  0.36329  1.0000
  C   C4196     1.0  0.98808  0.66468  0.56342  1.0000
  C   C4197     1.0  0.91035  0.95792  0.64597  1.0000
  C   C4198     1.0  0.94150  0.88794  0.64080  1.0000
  C   C4199     1.0  0.98591  0.61470  0.37567  1.0000
  C   C4200     1.0  0.75593  0.92800  0.33663  1.0000
  H   H3356     1.0  0.81693  0.61312  0.36579  1.0000
  H   H3357     1.0  0.96146  0.95726  0.51170  1.0000
  H   H3358     1.0  0.95303  0.69838  0.37937  1.0000
  C   C4201     1.0  0.98002  0.66179  0.50370  1.0000
  C   C4202     1.0  0.79267  0.86968  0.62704  1.0000
  C   C4203     1.0  0.74328  0.82145  0.41046  1.0000
  H   H3359     1.0  0.89210  0.73742  0.32596  1.0000
  C   C4204     1.0  0.98447  0.96571  0.39888  1.0000
  H   H3360     1.0  0.75948  0.75492  0.38381  1.0000
  C   C4205     1.0  0.78921  0.94060  0.63008  1.0000
  H   H3361     1.0  0.77750  0.93799  0.63990  1.0000
  H   H3362     1.0  0.97857  0.51576  0.52461  1.0000
  H   H3363     1.0  0.80449  0.97498  0.53799  1.0000
  H   H3364     1.0  0.99111  0.89421  0.42535  1.0000
  C   C4206     1.0  0.79862  0.95653  0.63109  1.0000
  S   S562      1.0  0.93209  0.65290  0.32482  1.0000
  C   C4207     1.0  0.98014  0.97753  0.41306  1.0000
  C   C4208     1.0  0.99140  0.65971  0.64864  1.0000
  H   H3365     1.0  0.96704  0.98307  0.56833  1.0000
  H   H3366     1.0  0.77595  0.66006  0.64326  1.0000
  C   C4209     1.0  0.98531  0.68729  0.32655  1.0000
  C   C4210     1.0  0.81008  0.89160  0.64041  1.0000
  C   C4211     1.0  0.85851  0.60536  0.64741  1.0000
  C   C4212     1.0  0.76347  0.76508  0.37270  1.0000
  H   H3367     1.0  0.97783  0.65968  0.33550  1.0000
  H   H3368     1.0  0.93668  0.96677  0.65193  1.0000
  C   C4213     1.0  0.89387  0.60893  0.34593  1.0000
  H   H3369     1.0  0.77970  0.80201  0.33398  1.0000
  H   H3370     1.0  0.74770  0.80466  0.34773  1.0000
  C   C4214     1.0  0.80881  0.98726  0.35853  1.0000
  H   H3371     1.0  0.80168  0.77579  0.34478  1.0000
  H   H3372     1.0  0.98376  0.88861  0.56053  1.0000
  H   H3373     1.0  0.98762  0.94796  0.56307  1.0000
  C   C4215     1.0  0.74881  0.92635  0.62136  1.0000
  C   C4216     1.0  0.98903  0.66875  0.33331  1.0000
  H   H3374     1.0  0.74943  0.83476  0.55928  1.0000
  C   C4217     1.0  0.82722  0.56655  0.34318  1.0000
  C   C4218     1.0  0.83914  0.60646  0.64895  1.0000
  C   C4219     1.0  0.98868  0.98167  0.60837  1.0000
  C   C4220     1.0  0.85842  0.78593  0.32569  1.0000
  H   H3375     1.0  0.88305  0.61484  0.65714  1.0000
  H   H3376     1.0  0.92663  0.49248  0.52243  1.0000
  C   C4221     1.0  0.77934  0.65756  0.65761  1.0000
  H   H3377     1.0  0.95495  0.51440  0.95904  1.0000
  H   H3378     1.0  0.90547  0.59538  0.93082  1.0000
  H   H3379     1.0  0.87459  0.59645  0.88264  1.0000
  H   H3380     1.0  0.90331  0.58794  0.89845  1.0000
  Fe  Fe283     1.0  0.97647  0.55874  0.90129  1.0000
  S   S563      1.0  0.94659  0.55256  0.89730  1.0000
  Fe  Fe284     1.0  0.82359  0.57671  0.81974  1.0000
  S   S564      1.0  0.82976  0.55574  0.79839  1.0000
  S   S565      1.0  0.79310  0.58815  0.82415  1.0000
  Fe  Fe285     1.0  0.86476  0.57533  0.82780  1.0000
  S   S566      1.0  0.87346  0.55428  0.80736  1.0000
  S   S567      1.0  0.88592  0.58888  0.84285  1.0000
  Fe  Fe286     1.0  0.85463  0.57181  0.78805  1.0000
  S   S568      1.0  0.86255  0.57649  0.75655  1.0000
  Fe  Fe287     1.0  0.84806  0.54001  0.81904  1.0000
  S   S569      1.0  0.84950  0.50931  0.83017  1.0000
  S   S570      1.0  0.84717  0.59374  0.80789  1.0000
  S   S571      1.0  0.84064  0.56006  0.84098  1.0000
  H   H3381     1.0  0.86481  0.52078  0.87637  1.0000
  H   H3382     1.0  0.84959  0.62017  0.93196  1.0000
  H   H3383     1.0  0.87134  0.63061  0.87134  1.0000
  Fe  Fe288     1.0  0.90508  0.65126  0.67262  1.0000
  S   S572      1.0  0.89553  0.64430  0.70350  1.0000
  C   C4222     1.0  0.86543  0.50026  0.77032  1.0000
  C   C4223     1.0  0.87549  0.51013  0.88048  1.0000
  C   C4224     1.0  0.83170  0.68245  0.67028  1.0000
  H   H3384     1.0  0.92678  0.52422  0.85950  1.0000
  H   H3385     1.0  0.75091  0.66101  0.66856  1.0000
  C   C4225     1.0  0.87211  0.59541  0.74215  1.0000
  C   C4226     1.0  0.87589  0.59375  0.72297  1.0000
  C   C4227     1.0  0.88307  0.60840  0.71095  1.0000
  C   C4228     1.0  0.88653  0.62509  0.71790  1.0000
  C   C4229     1.0  0.88263  0.62679  0.73706  1.0000
  C   C4230     1.0  0.87557  0.61210  0.74909  1.0000
  H   H3386     1.0  0.87325  0.58100  0.71734  1.0000
  H   H3387     1.0  0.88600  0.60673  0.69633  1.0000
  H   H3388     1.0  0.88521  0.63957  0.74268  1.0000
  H   H3389     1.0  0.87272  0.61374  0.76373  1.0000
  H   H3390     1.0  0.90836  0.52137  0.78611  1.0000
  H   H3391     1.0  0.82892  0.50563  0.79748  1.0000
  C   C4231     1.0  0.77928  0.59574  0.84388  1.0000
  C   C4232     1.0  0.76055  0.60203  0.84204  1.0000
  C   C4233     1.0  0.75666  0.60926  0.87437  1.0000
  H   H3392     1.0  0.92816  0.49922  0.76651  1.0000
  C   C4234     1.0  0.77523  0.60249  0.87630  1.0000
  C   C4235     1.0  0.78638  0.59558  0.86125  1.0000
  H   H3393     1.0  0.75480  0.60202  0.82873  1.0000
  H   H3394     1.0  0.78102  0.60260  0.88956  1.0000
  H   H3395     1.0  0.80053  0.59027  0.86297  1.0000
  C   C4236     1.0  0.93191  0.49798  0.95711  1.0000
  C   C4237     1.0  0.93073  0.56230  0.88093  1.0000
  C   C4238     1.0  0.93359  0.57868  0.86963  1.0000
  C   C4239     1.0  0.91990  0.58642  0.85775  1.0000
  C   C4240     1.0  0.90346  0.57766  0.85666  1.0000
  C   C4241     1.0  0.90071  0.56118  0.86784  1.0000
  C   C4242     1.0  0.91421  0.55368  0.88000  1.0000
  H   H3396     1.0  0.94614  0.58559  0.87034  1.0000
  H   H3397     1.0  0.92204  0.59933  0.84938  1.0000
  H   H3398     1.0  0.88792  0.55459  0.86755  1.0000
  H   H3399     1.0  0.91185  0.54116  0.88885  1.0000
  C   C4243     1.0  0.84169  0.69827  0.66685  1.0000
  H   H3400     1.0  0.84093  0.58258  0.87463  1.0000
  H   H3401     1.0  0.82913  0.60741  0.70234  1.0000
  C   C4244     1.0  0.86317  0.63437  0.84343  1.0000
  C   C4245     1.0  0.82652  0.59560  0.89789  1.0000
  C   C4246     1.0  0.82739  0.63594  0.70954  1.0000
  H   H3402     1.0  0.83124  0.67732  0.92036  1.0000
  C   C4247     1.0  0.94856  0.50170  0.96394  1.0000
  H   H3403     1.0  0.81582  0.61742  0.86328  1.0000
  H   H3404     1.0  0.89673  0.53083  0.84503  1.0000
  C   C4248     1.0  0.82432  0.66629  0.91532  1.0000
  C   C4249     1.0  0.86133  0.61349  0.92435  1.0000
  H   H3405     1.0  0.78119  0.65518  0.90707  1.0000
  H   H3406     1.0  0.94892  0.49862  0.84935  1.0000
  H   H3407     1.0  0.82326  0.55454  0.87931  1.0000
  C   C4250     1.0  0.82879  0.62000  0.74626  1.0000
  H   H3408     1.0  0.82757  0.64809  0.75388  1.0000
  H   H3409     1.0  0.97660  0.67971  0.66556  1.0000
  C   C4251     1.0  0.83471  0.65060  0.90917  1.0000
  C   C4252     1.0  0.89160  0.59508  0.90569  1.0000
  H   H3410     1.0  0.88629  0.54087  0.76693  1.0000
  C   C4253     1.0  0.85819  0.62792  0.67004  1.0000
  P   P143      1.0  0.83916  0.61620  0.89424  1.0000
  C   C4254     1.0  0.92334  0.51591  0.84877  1.0000
  C   C4255     1.0  0.82911  0.60864  0.73170  1.0000
  H   H3411     1.0  0.79274  0.57605  0.92682  1.0000
  H   H3412     1.0  0.83072  0.87955  0.65872  1.0000
  H   H3413     1.0  0.75871  0.65544  0.70143  1.0000
  C   C4256     1.0  0.86026  0.60991  0.90577  1.0000
  C   C4257     1.0  0.90064  0.49900  0.89974  1.0000
  H   H3414     1.0  0.86607  0.71131  0.67247  1.0000
  H   H3415     1.0  0.93227  0.54137  0.96352  1.0000
  C   C4258     1.0  0.89358  0.49646  0.78686  1.0000
  C   C4259     1.0  0.79613  0.65388  0.90781  1.0000
  C   C4260     1.0  0.90647  0.51968  0.84059  1.0000
  C   C4261     1.0  0.82669  0.64730  0.72430  1.0000
  H   H3416     1.0  0.82573  0.66229  0.72170  1.0000
  H   H3417     1.0  0.83052  0.59365  0.73460  1.0000
  C   C4262     1.0  0.83040  0.58130  0.88604  1.0000
  C   C4263     1.0  0.80649  0.63822  0.90162  1.0000
  C   C4264     1.0  0.90217  0.50921  0.82649  1.0000
  C   C4265     1.0  0.76236  0.55105  0.86579  1.0000
  C   C4266     1.0  0.89280  0.59927  0.92395  1.0000
  C   C4267     1.0  0.88409  0.52633  0.77076  1.0000
  H   H3418     1.0  0.93613  0.84673  0.67878  1.0000
  C   C4268     1.0  0.82050  0.56538  0.88870  1.0000
  C   C4269     1.0  0.89655  0.51521  0.78161  1.0000
  C   C4270     1.0  0.94596  0.49354  0.89775  1.0000
  C   C4271     1.0  0.76963  0.65497  0.69037  1.0000
  H   H3419     1.0  0.82996  0.61374  0.76035  1.0000
  C   C4272     1.0  0.80678  0.56359  0.90324  1.0000
  C   C4273     1.0  0.94702  0.56074  0.97677  1.0000
  C   C4274     1.0  0.78069  0.54476  0.86093  1.0000
  C   C4275     1.0  0.98092  0.53030  0.97990  1.0000
  C   C4276     1.0  0.80502  0.66786  0.91477  1.0000
  H   H3420     1.0  0.88435  0.52511  0.90205  1.0000
  H   H3421     1.0  0.85869  0.52771  0.75711  1.0000
  C   C4277     1.0  0.95449  0.58852  0.95713  1.0000
  C   C4278     1.0  0.94583  0.58232  0.94258  1.0000
  C   C4279     1.0  0.93762  0.56543  0.94509  1.0000
  C   C4280     1.0  0.93827  0.55462  0.96207  1.0000
  S   S573      1.0  0.92301  0.67550  0.66523  1.0000
  C   C4281     1.0  0.78812  0.65125  0.69467  1.0000
  H   H3422     1.0  0.86590  0.63571  0.67841  1.0000
  C   C4282     1.0  0.95524  0.57774  0.97413  1.0000
  H   H3423     1.0  0.94594  0.59036  0.92919  1.0000
  C   C4283     1.0  0.83204  0.62694  0.83885  1.0000
  C   C4284     1.0  0.82919  0.62179  0.85784  1.0000
  H   H3424     1.0  0.85150  0.63663  0.81682  1.0000
  H   H3425     1.0  0.80065  0.52109  0.86007  1.0000
  H   H3426     1.0  0.93512  0.90542  0.66352  1.0000
  C   C4285     1.0  0.87824  0.49395  0.87126  1.0000
  H   H3427     1.0  0.87847  0.61138  0.94758  1.0000
  C   C4286     1.0  0.80332  0.57747  0.91549  1.0000
  H   H3428     1.0  0.81057  0.60382  0.92273  1.0000
  C   C4287     1.0  0.74923  0.60851  0.85723  1.0000
  C   C4288     1.0  0.93522  0.87651  0.67308  1.0000
  C   C4289     1.0  0.81332  0.59331  0.91299  1.0000
  H   H3429     1.0  0.96135  0.60137  0.95503  1.0000
  C   C4290     1.0  0.84348  0.62236  0.86970  1.0000
  H   H3430     1.0  0.87648  0.63887  0.83776  1.0000
  C   C4291     1.0  0.86030  0.62931  0.86246  1.0000
  H   H3431     1.0  0.79118  0.64894  0.70911  1.0000
  H   H3432     1.0  0.93122  0.56049  0.93366  1.0000
  H   H3433     1.0  0.77850  0.49884  0.87500  1.0000
  H   H3434     1.0  0.88893  0.51228  0.82050  1.0000
  H   H3435     1.0  0.82109  0.62589  0.82972  1.0000
  H   H3436     1.0  0.84968  0.64983  0.90922  1.0000
  H   H3437     1.0  0.96386  0.51557  0.89932  1.0000
  H   H3438     1.0  0.79938  0.62781  0.89580  1.0000
  C   C4292     1.0  0.82581  0.63619  0.90279  1.0000
  C   C4293     1.0  0.80237  0.65048  0.68043  1.0000
  H   H3439     1.0  0.79884  0.55145  0.90502  1.0000
  H   H3440     1.0  0.92540  0.50786  0.94698  1.0000
  C   C4294     1.0  0.87533  0.60014  0.89670  1.0000
  C   C4295     1.0  0.86850  0.51889  0.76519  1.0000
  C   C4296     1.0  0.83786  0.66758  0.68275  1.0000
  C   C4297     1.0  0.95974  0.50217  0.90539  1.0000
  C   C4298     1.0  0.82848  0.61653  0.71340  1.0000
  H   H3441     1.0  0.85319  0.49457  0.76621  1.0000
  C   C4299     1.0  0.85384  0.66912  0.69203  1.0000
  C   C4300     1.0  0.86393  0.68483  0.68839  1.0000
  C   C4301     1.0  0.85797  0.69934  0.67566  1.0000
  C   C4302     1.0  0.79782  0.65382  0.66186  1.0000
  H   H3442     1.0  0.74519  0.88354  0.78316  1.0000
  C   C4303     1.0  0.76524  0.65811  0.67186  1.0000
  P   P144      1.0  0.82634  0.64613  0.68589  1.0000
  C   C4304     1.0  0.93774  0.85821  0.66822  1.0000
  H   H3443     1.0  0.81431  0.61872  0.66218  1.0000
  C   C4305     1.0  0.84910  0.63308  0.83161  1.0000
  H   H3444     1.0  0.97656  0.53832  0.96750  1.0000
  S   S574      1.0  0.98561  0.54822  0.92959  1.0000
  C   C4306     1.0  0.87762  0.60835  0.93333  1.0000
  H   H3445     1.0  0.85881  0.65796  0.70179  1.0000
  H   H3446     1.0  0.87667  0.68547  0.69515  1.0000
  H   H3447     1.0  0.90908  0.50120  0.91089  1.0000
  C   C4307     1.0  0.82755  0.63933  0.74258  1.0000
  H   H3448     1.0  0.75824  0.56575  0.86354  1.0000
  C   C4308     1.0  0.93584  0.50153  0.84298  1.0000
  H   H3449     1.0  0.79037  0.55453  0.85458  1.0000
  H   H3450     1.0  0.96275  0.58248  0.98492  1.0000
  H   H3451     1.0  0.93170  0.87923  0.68743  1.0000
  H   H3452     1.0  0.79697  0.68002  0.91952  1.0000
  C   C4309     1.0  0.96838  0.49348  0.92077  1.0000
  H   H3453     1.0  0.93939  0.50054  0.88586  1.0000
  C   C4310     1.0  0.78647  0.52592  0.86405  1.0000
  C   C4311     1.0  0.83874  0.62980  0.67106  1.0000
  H   H3454     1.0  0.97902  0.50026  0.92666  1.0000
  C   C4312     1.0  0.88656  0.51257  0.89485  1.0000
  C   C4313     1.0  0.75558  0.51966  0.87712  1.0000
  C   C4314     1.0  0.77396  0.51340  0.87234  1.0000
  C   C4315     1.0  0.86801  0.61587  0.65817  1.0000
  H   H3455     1.0  0.74615  0.50985  0.88378  1.0000
  C   C4316     1.0  0.99011  0.67379  0.66074  1.0000
  S   S575      1.0  0.99152  0.58488  0.90039  1.0000
  C   C4317     1.0  0.91492  0.49514  0.82012  1.0000
  C   C4318     1.0  0.74949  0.53845  0.87331  1.0000
  H   H3456     1.0  0.81939  0.68191  0.66300  1.0000
  C   C4319     1.0  0.82927  0.61846  0.66089  1.0000
  S   S576      1.0  0.74383  0.61918  0.89354  1.0000
  C   C4320     1.0  0.93713  0.89135  0.65945  1.0000
