data_image0
_chemical_formula_structural       SFeS2FeS2FeSFeS3HSC2HCFeS2CFeC6H4C6HCH4SH2C2H2C7H5C6PC4HC13H7C2H12CH2C3H2C3HCHCHC4PC2HPC5H2SC6H12CH5C5HCHC4H5CH2C2H2C2FeHCH2C2HC2HSHC2PHC4HCH3CH2C7H3CHC2H2FeCSH2C2HCSFeS2FeS2FeSFeS3CSCH2C3HC2HSH2C6H4PHC3PHC7H4C6PC16H10CH5C3H2C6PC18H8CH8C2HC2H2CH2C8H3CHCFeCHC2H3C2H6CHCH2CH2SCH5C5HFeCH2C2HC2HCH2C2PHCH5CHC7HCH3C2HC3HC3H2C3H3CH2C2H3SCHC2H2CH4CHCHCHCH2SFeS2FeS2FeSFeS3CHC2HCHSC13H2CHC6H6CHC3HC6H7C4PC19HC2H3C2H10CHC2HCH2CHPHC10H10CH2C3H2CHC2H3SCH2FeCHCHC4H2C2HC2HCHC2H2C2PHCHC2HC2HFeH4C3HCH3CH2PH5SC2HC2H3CH3CPCH3CH2CHC3SFeS2FeS2FeS2FeSFeS3CHC3HC2H2CHC9H4C3H2C8H4CHCH2C6H3CH2CH2C2HC2HC2HC2HC3HCHFeH2CSFeC2HC3HC5H3CHCHC3H5CH6CH2C8PC4HC2H5C6H5CSH3PHC3H2CH2PCH3C9H2C2HCH2CH3SH2SHC2H3CHC4HCHC5HCH2CHCHCHCSH2SFeSFeS2C2S2FeS2FeSHFe2SHSFeS2C6H4CH6C3H2C6H4C6H2CH2CSH2C6PC18H6C2H12FeH3SHC2H2CH2C2HC2HCHC3HC2H2FeCSC3HC3H3SCH2CHC4HCH2CHC2HC5PC15H2CH5CH9CH3C3HC3SHCHC8H2CHFePH4C6H3CH2C4HC2H4PC7H2CHC2HS2HPCHFeHC2SCFeC2H2CHC2HC2H2C4HFeCSFeCSFeSCS2FeS2FeSHFeS2Fe2S3CS2HC7H5C2H2C2H3C6H4CH4C6H4CHC2HC5HPHCHC4H2C2H2SH2C2HC3HC5HCHC2SH2C5HSCHC5H4C2HC2HSHCH2C2H3C2H2CH2C2FeHPHCSH2C5PC16H11C2H2C6PC15H16CH7C2H2C2H2C2HCHCHFeH2CHC2HCHC3HCHC3PHCH3C2H3C3HC2FeC2SC3HC2H2S2C2SFeSFeSH2CHFeHC2FeS2FeS2FeS2FeSFeS2FeS2C8H4PC7H4C6H4C5HC6HCHC2H3PHC2H2CHCPHC3H2C2HCHCHC3HC6HCFeHSHC2HSH3CH2CH2C3H2C2HC5H2CH2C4H2CHC2H2CPC3HC2H2C2H2SCH2SCH2C3H2CHC6HC2HC2H2CHC3H4C3H4CHC3HSC2HCHC2H4FeHCH2C2HCSHCH2CSCHFeS2FeHSFeS3CH2CH2FeS2FeSFeS2FeSFeS3C2SC2H2C7H6CHC6H4CH4C6H4C2HSH5C2H4C2H5C2H2CHC3HC2HCHCHC2H2C2FeCHCHCHPHCH2CHPHCPHCHCH2SHC3HPC2HCH2C9HC3HCH4C3HCHC3HCHC6H2C3PHC4H2C2HCHC7H3C2HCHCH3CSH2C2H4CHC3HC4FeHCHCH2C2SH2CSH2CH4C2HC2H2FeH2CSHCFeSC2FeS2FeS2FeSHFeS2HCHC2HFeSC7H6C2HC2HCHC7H2C6H5CH2SHCH2C2HPC5HCH2C2HCHCH3SCHSH3FeHPHC2HC3H2PHC5H2CHC7HCH4CH2C3H3C2H2C7H4SCHCHCHCHCH2C3HC4SHCHC3SH2CHCHSHCH3SCSC3HSHC8HCH2CHC3FeH3C4HCH3C2H2CHCHC7FeCHC3HC3H3PHCHCH2FeH3CFeCHPCH2C2SH2C3HCH4C2FeSHSHCS2HS2H2CFeS2FeS2FeSHFeS2FeS2CH2C6H5C5SH2CHC2HC3HCH4C7H5C5PC11HC5H7CH2C4HC4HCH2CHCHC3H4C3H3CHCHC5HC3H3FeHC4FeHC2HSH3C2HCHCPH3C2HC5SC3H4CPSC2PH5CH2C5H3C5HC2H2CHC2HC5H3C2FeHFeCH6CHC3SH2CH2C4H4C3S2HSHC2HCSFeS2FeSCFeS2HSCH2CFeS2C2H2C6H4SCHC6H2CHSH2C6H4CH3C3HCFeCFeH5CH2FeC2HC2HC5SHCH3CHCHCH2SH2C4HC5H2FeC7PHCHC7HC4H5CHCH2C2H5C6PC16H19C2HC3PHC2FeC2H2CHFeS2CH2C4H3PH2PC2H3FeS2C2HC2SHSFe3SHSCFeS2HCFeSH2FeS2FeSFeS3C2HC3HC6H4C6H3CH2SH2CHC2H2C7H4C2H2CHCH2CHC2HCHC4SCHCH2SHCPH2C2HC2H2C3H2CSH2C2PCH3CHSC7PC16H19C2H2CH2CH3CHC8PCH2FeC5HC6HCH2CH2CH3C3H5C2HC3FeSH2CHFeHCHSHCHC2H2C2HC6H2C4FeSHCFeS2FeS2FeSFeS3FeS2H2FeHCH2FeC2H3SHC8HCH2C4HC6H4C8H5C6HCHC2S2PCH2C2HC2HCHCH3CHC9HC4H3C2HCH3C2H2C2HCH3C2H3CHPC5H5CH2CHCH2C2HCH2CHCH2CH2C2H4C2H9CH2C2HC6PC18H7CPC2SC2HCHPH5C3SC2SC2HCHCHSFeS2FeS2FeSFeS3FeS2H2C2HCHC7HCH2CHCH2C6H4C6H5C6PC2HC10HC4H15CH2CHCHC3H2C2H2C2H2CH3CHC2HCFeC6PC9HC9H11PH10C5HCSC3H2CSCHSCH3C4HC3HCH6CHFeCHC2FeSHCFeS2FeS2FeSFeS3CHC3HFeS2HC12H4CHCHC7H4CH3C6H6C2HCSH5C2HCH5CH2C2SC4PC7HC7H2CSH3CH5C2HC4H3CHC2HCHC2H3CHCH2C4PC2HCH4C3PC15HCH10C2H3SC4HPC7H3CHCH2C2H10CHC3HC4HC2HCHC2H2C4H2SC2FeH2C2FeSCFeS2FeS2FeS2FeSFeS3C2SC7H4CHC2HC8H5C8H4CHC4HC3HC3HC2H2C7H2CH5CHSH4CH4C3HCHC3HCHC4HPH4C7PCHSC4H3C2H5C2HC4HC2HPC2H2CH4CH2CH2C2HFeCH2CHCH3C7HSHCH2CHC2H4PH2C6PC8HC2HC4H2CH8C3H7C5H2CH2C2SC2HC4H2CH2CHCPCS
_chemical_formula_sum              "S288 Fe144 H1728 C2160 P72"
_cell_length_a       54.9319
_cell_length_b       54.884
_cell_length_c       55.1784
_cell_angle_alpha    89.5217
_cell_angle_beta     90.0602
_cell_angle_gamma    89.8772

_space_group_name_H-M_alt    "P 1"
_space_group_IT_number       1

loop_
  _space_group_symop_operation_xyz
  'x, y, z'

loop_
  _atom_site_type_symbol
  _atom_site_label
  _atom_site_symmetry_multiplicity
  _atom_site_fract_x
  _atom_site_fract_y
  _atom_site_fract_z
  _atom_site_occupancy
  S   S1        1.0  0.21411  0.34425  0.14851  1.0000
  Fe  Fe1       1.0  0.14772  0.27890  0.26382  1.0000
  S   S2        1.0  0.12250  0.25037  0.24947  1.0000
  S   S3        1.0  0.18333  0.28732  0.24453  1.0000
  Fe  Fe2       1.0  0.12414  0.27675  0.31472  1.0000
  S   S4        1.0  0.09768  0.24760  0.30351  1.0000
  S   S5        1.0  0.12533  0.28470  0.35506  1.0000
  Fe  Fe3       1.0  0.12972  0.23058  0.28455  1.0000
  S   S6        1.0  0.13972  0.19045  0.28380  1.0000
  Fe  Fe4       1.0  0.09287  0.27027  0.26975  1.0000
  S   S7        1.0  0.05637  0.28045  0.25224  1.0000
  S   S8        1.0  0.15618  0.25799  0.29802  1.0000
  S   S9        1.0  0.11788  0.30066  0.28192  1.0000
  H   H1        1.0  0.08233  0.30794  0.33550  1.0000
  S   S10       1.0  0.08311  0.36863  0.46982  1.0000
  C   C1        1.0  0.23149  0.20816  0.24914  1.0000
  C   C2        1.0  0.04372  0.31187  0.46907  1.0000
  H   H2        1.0  0.21471  0.06081  0.36940  1.0000
  C   C3        1.0  0.22648  0.17644  0.21935  1.0000
  Fe  Fe5       1.0  0.11182  0.38882  0.44904  1.0000
  S   S11       1.0  0.11598  0.38652  0.40821  1.0000
  S   S12       1.0  0.09967  0.42562  0.46188  1.0000
  C   C4        1.0  0.19977  0.36148  0.32162  1.0000
  Fe  Fe6       1.0  0.24580  0.32822  0.12754  1.0000
  C   C5        1.0  0.12180  0.31324  0.36920  1.0000
  C   C6        1.0  0.12184  0.33510  0.35600  1.0000
  C   C7        1.0  0.11978  0.35745  0.36818  1.0000
  C   C8        1.0  0.11761  0.35808  0.39355  1.0000
  C   C9        1.0  0.11702  0.33620  0.40667  1.0000
  C   C10       1.0  0.11919  0.31388  0.39451  1.0000
  H   H3        1.0  0.12373  0.33479  0.33650  1.0000
  H   H4        1.0  0.12015  0.37434  0.35793  1.0000
  H   H5        1.0  0.11532  0.33650  0.42620  1.0000
  H   H6        1.0  0.11914  0.29702  0.40480  1.0000
  C   C11       1.0  0.17072  0.18284  0.28868  1.0000
  C   C12       1.0  0.18564  0.19699  0.30352  1.0000
  C   C13       1.0  0.21019  0.19053  0.30715  1.0000
  C   C14       1.0  0.22023  0.17026  0.29547  1.0000
  C   C15       1.0  0.20537  0.15616  0.28054  1.0000
  C   C16       1.0  0.18058  0.16204  0.27772  1.0000
  H   H7        1.0  0.17816  0.21261  0.31267  1.0000
  C   C17       1.0  0.22639  0.24638  0.17986  1.0000
  H   H8        1.0  0.21286  0.14050  0.27148  1.0000
  H   H9        1.0  0.16914  0.15059  0.26676  1.0000
  H   H10       1.0  0.22567  0.08448  0.20319  1.0000
  H   H11       1.0  0.19191  0.12534  0.32631  1.0000
  S   S13       1.0  0.03645  0.42038  0.49049  1.0000
  H   H12       1.0  0.01240  0.37915  0.33689  1.0000
  H   H13       1.0  0.23458  0.16208  0.20873  1.0000
  C   C18       1.0  0.02559  0.25134  0.28008  1.0000
  C   C19       1.0  0.02754  0.27021  0.26301  1.0000
  H   H14       1.0  0.20101  0.42456  0.19677  1.0000
  H   H15       1.0  0.04187  0.24273  0.28714  1.0000
  C   C20       1.0  0.23454  0.07208  0.30808  1.0000
  C   C21       1.0  0.20497  0.32783  0.17465  1.0000
  C   C22       1.0  0.22152  0.31299  0.18708  1.0000
  C   C23       1.0  0.21462  0.30143  0.20880  1.0000
  C   C24       1.0  0.19071  0.30333  0.21758  1.0000
  C   C25       1.0  0.17391  0.31781  0.20493  1.0000
  C   C26       1.0  0.18117  0.33035  0.18371  1.0000
  H   H16       1.0  0.21292  0.07028  0.27560  1.0000
  H   H17       1.0  0.22775  0.29037  0.21854  1.0000
  H   H18       1.0  0.15552  0.31956  0.21166  1.0000
  H   H19       1.0  0.16829  0.34191  0.17422  1.0000
  H   H20       1.0  0.08499  0.26031  0.37736  1.0000
  C   C27       1.0  0.10672  0.20912  0.11122  1.0000
  C   C28       1.0  0.12198  0.18972  0.10508  1.0000
  C   C29       1.0  0.14695  0.19116  0.10970  1.0000
  C   C30       1.0  0.15667  0.21187  0.12068  1.0000
  C   C31       1.0  0.14142  0.23127  0.12724  1.0000
  C   C32       1.0  0.11640  0.22988  0.12211  1.0000
  P   P1        1.0  0.15409  0.25914  0.13892  1.0000
  C   C33       1.0  0.13259  0.27301  0.15949  1.0000
  C   C34       1.0  0.18206  0.25278  0.15512  1.0000
  C   C35       1.0  0.18255  0.25147  0.18054  1.0000
  C   C36       1.0  0.20463  0.24823  0.19273  1.0000
  H   H21       1.0  0.20109  0.37994  0.19008  1.0000
  C   C37       1.0  0.22601  0.24732  0.15461  1.0000
  C   C38       1.0  0.20398  0.25035  0.14224  1.0000
  C   C39       1.0  0.12982  0.29843  0.16040  1.0000
  C   C40       1.0  0.11356  0.30889  0.17685  1.0000
  C   C41       1.0  0.09989  0.29409  0.19242  1.0000
  C   C42       1.0  0.10244  0.26880  0.19154  1.0000
  C   C43       1.0  0.11887  0.25829  0.17533  1.0000
  C   C44       1.0  0.16145  0.27911  0.11373  1.0000
  C   C45       1.0  0.17744  0.29866  0.11724  1.0000
  C   C46       1.0  0.18503  0.31300  0.09761  1.0000
  C   C47       1.0  0.17691  0.30780  0.07424  1.0000
  C   C48       1.0  0.16069  0.28860  0.07057  1.0000
  C   C49       1.0  0.15290  0.27432  0.09022  1.0000
  H   H22       1.0  0.08740  0.20818  0.10733  1.0000
  H   H23       1.0  0.11449  0.17369  0.09650  1.0000
  H   H24       1.0  0.15884  0.17630  0.10462  1.0000
  H   H25       1.0  0.17608  0.21274  0.12378  1.0000
  H   H26       1.0  0.10442  0.24502  0.12620  1.0000
  H   H27       1.0  0.16622  0.25381  0.19121  1.0000
  H   H28       1.0  0.20500  0.24856  0.21231  1.0000
  C   C50       1.0  0.02801  0.48527  0.44344  1.0000
  C   C51       1.0  0.03849  0.29301  0.45284  1.0000
  H   H29       1.0  0.20418  0.25142  0.12264  1.0000
  H   H30       1.0  0.14043  0.31028  0.14878  1.0000
  H   H31       1.0  0.11182  0.32852  0.17779  1.0000
  H   H32       1.0  0.08748  0.30214  0.20542  1.0000
  H   H33       1.0  0.09194  0.25745  0.20385  1.0000
  H   H34       1.0  0.12121  0.23871  0.17549  1.0000
  H   H35       1.0  0.18455  0.30244  0.13512  1.0000
  H   H36       1.0  0.19773  0.32780  0.10046  1.0000
  H   H37       1.0  0.18351  0.31846  0.05897  1.0000
  H   H38       1.0  0.15453  0.28454  0.05239  1.0000
  H   H39       1.0  0.14068  0.25933  0.08680  1.0000
  H   H40       1.0  0.22023  0.12668  0.18879  1.0000
  C   C52       1.0  0.23304  0.38126  0.24309  1.0000
  H   H41       1.0  0.06053  0.33285  0.42089  1.0000
  H   H42       1.0  0.22158  0.16708  0.10192  1.0000
  C   C53       1.0  0.19147  0.32537  0.29824  1.0000
  C   C54       1.0  0.02405  0.31082  0.31510  1.0000
  C   C55       1.0  0.05690  0.27744  0.39856  1.0000
  H   H43       1.0  0.01388  0.26190  0.34499  1.0000
  H   H44       1.0  0.03687  0.33010  0.46592  1.0000
  C   C56       1.0  0.20990  0.38742  0.20598  1.0000
  C   C57       1.0  0.01680  0.27843  0.38023  1.0000
  C   C58       1.0  0.19250  0.08397  0.22384  1.0000
  H   H45       1.0  0.18080  0.30908  0.29513  1.0000
  C   C59       1.0  0.18639  0.34016  0.31808  1.0000
  H   H46       1.0  0.23172  0.19956  0.13113  1.0000
  C   C60       1.0  0.06736  0.28410  0.49402  1.0000
  H   H47       1.0  0.22057  0.44154  0.23353  1.0000
  C   C61       1.0  0.21941  0.18505  0.13637  1.0000
  C   C62       1.0  0.20986  0.18434  0.15984  1.0000
  C   C63       1.0  0.19449  0.16526  0.16704  1.0000
  C   C64       1.0  0.18839  0.14715  0.15025  1.0000
  P   P2        1.0  0.18258  0.16371  0.19754  1.0000
  C   C65       1.0  0.18595  0.13230  0.20760  1.0000
  C   C66       1.0  0.20158  0.18193  0.21726  1.0000
  H   H48       1.0  0.02465  0.40005  0.40290  1.0000
  P   P3        1.0  0.02009  0.29884  0.42628  1.0000
  C   C67       1.0  0.06335  0.31317  0.33475  1.0000
  C   C68       1.0  0.20693  0.21427  0.24674  1.0000
  C   C69       1.0  0.19210  0.20151  0.23062  1.0000
  C   C70       1.0  0.16866  0.12120  0.22285  1.0000
  C   C71       1.0  0.17202  0.09721  0.23102  1.0000
  H   H49       1.0  0.24355  0.24452  0.18944  1.0000
  H   H50       1.0  0.17191  0.33518  0.33053  1.0000
  S   S14       1.0  0.24446  0.30622  0.04061  1.0000
  C   C72       1.0  0.15099  0.17349  0.19798  1.0000
  C   C73       1.0  0.13838  0.17842  0.17632  1.0000
  C   C74       1.0  0.11417  0.18645  0.17688  1.0000
  C   C75       1.0  0.10242  0.18988  0.19905  1.0000
  C   C76       1.0  0.11476  0.18490  0.22064  1.0000
  C   C77       1.0  0.13878  0.17653  0.22007  1.0000
  H   H51       1.0  0.03711  0.36730  0.49303  1.0000
  H   H52       1.0  0.21494  0.19836  0.17248  1.0000
  H   H53       1.0  0.17653  0.13226  0.15547  1.0000
  H   H54       1.0  0.05638  0.29252  0.30262  1.0000
  H   H55       1.0  0.18542  0.10404  0.28747  1.0000
  H   H56       1.0  0.00310  0.33740  0.49435  1.0000
  H   H57       1.0  0.19926  0.22886  0.25751  1.0000
  H   H58       1.0  0.17338  0.20724  0.22891  1.0000
  H   H59       1.0  0.15270  0.13092  0.22878  1.0000
  H   H60       1.0  0.15884  0.08894  0.24311  1.0000
  H   H61       1.0  0.19815  0.05817  0.41084  1.0000
  H   H62       1.0  0.21345  0.32029  0.26660  1.0000
  C   C78       1.0  0.02367  0.38075  0.40700  1.0000
  H   H63       1.0  0.14713  0.17615  0.15900  1.0000
  H   H64       1.0  0.10453  0.19018  0.16015  1.0000
  H   H65       1.0  0.08379  0.19642  0.19958  1.0000
  H   H66       1.0  0.10589  0.18769  0.23798  1.0000
  H   H67       1.0  0.14803  0.17292  0.23698  1.0000
  C   C79       1.0  0.04719  0.26943  0.45785  1.0000
  C   C80       1.0  0.23827  0.08393  0.33025  1.0000
  C   C81       1.0  0.20987  0.41255  0.20975  1.0000
  C   C82       1.0  0.00606  0.28115  0.25410  1.0000
  C   C83       1.0  0.04377  0.34275  0.41734  1.0000
  H   H68       1.0  0.19390  0.13343  0.11417  1.0000
  C   C84       1.0  0.00116  0.36892  0.40746  1.0000
  H   H69       1.0  0.03276  0.48053  0.49294  1.0000
  C   C85       1.0  0.05813  0.30742  0.48952  1.0000
  C   C86       1.0  0.20952  0.09464  0.20833  1.0000
  C   C87       1.0  0.19812  0.14780  0.12683  1.0000
  C   C88       1.0  0.02874  0.33440  0.35167  1.0000
  H   H70       1.0  0.24047  0.41412  0.26327  1.0000
  H   H71       1.0  0.24733  0.02458  0.36332  1.0000
  H   H72       1.0  0.24280  0.21765  0.26206  1.0000
  H   H73       1.0  0.22413  0.06829  0.44615  1.0000
  H   H74       1.0  0.22149  0.20145  0.31886  1.0000
  C   C89       1.0  0.21013  0.33165  0.28216  1.0000
  H   H75       1.0  0.06891  0.24696  0.48178  1.0000
  H   H76       1.0  0.06481  0.33418  0.36741  1.0000
  C   C90       1.0  0.20637  0.11868  0.20031  1.0000
  C   C91       1.0  0.22098  0.42208  0.23041  1.0000
  H   H77       1.0  0.05736  0.24975  0.34356  1.0000
  H   H78       1.0  0.06964  0.45130  0.41252  1.0000
  C   C92       1.0  0.22110  0.37181  0.22276  1.0000
  C   C93       1.0  0.21368  0.16673  0.11991  1.0000
  Fe  Fe7       1.0  0.07355  0.40499  0.48513  1.0000
  H   H79       1.0  0.02590  0.45252  0.42176  1.0000
  C   C94       1.0  0.23238  0.40649  0.24713  1.0000
  H   H80       1.0  0.24293  0.24621  0.14465  1.0000
  H   H81       1.0  0.00124  0.22797  0.30024  1.0000
  C   C95       1.0  0.21541  0.07922  0.29284  1.0000
  C   C96       1.0  0.03210  0.28356  0.39996  1.0000
  H   H82       1.0  0.00674  0.34902  0.28512  1.0000
  C   C97       1.0  0.05338  0.32794  0.35268  1.0000
  C   C98       1.0  0.21684  0.06384  0.40809  1.0000
  H   H83       1.0  0.06253  0.37668  0.41128  1.0000
  S   S15       1.0  0.14040  0.38470  0.47825  1.0000
  H   H84       1.0  0.06943  0.28232  0.41287  1.0000
  C   C99       1.0  0.06585  0.26506  0.37838  1.0000
  C   C100      1.0  0.05028  0.25912  0.35928  1.0000
  P   P4        1.0  0.24762  0.36097  0.26459  1.0000
  H   H85       1.0  0.22033  0.35235  0.21990  1.0000
  C   C101      1.0  0.22426  0.35247  0.28605  1.0000
  C   C102      1.0  0.00248  0.24301  0.28751  1.0000
  C   C103      1.0  0.19989  0.09817  0.29955  1.0000
  C   C104      1.0  0.06226  0.46616  0.42308  1.0000
  H   H86       1.0  0.19544  0.06553  0.23047  1.0000
  C   C105      1.0  0.04867  0.30446  0.31612  1.0000
  H   H87       1.0  0.02122  0.34550  0.36586  1.0000
  H   H88       1.0  0.04297  0.25454  0.44580  1.0000
  H   H89       1.0  0.10413  0.48873  0.34838  1.0000
  C   C106      1.0  0.20350  0.11011  0.32151  1.0000
  H   H90       1.0  0.22519  0.11261  0.35370  1.0000
  H   H91       1.0  0.00351  0.41937  0.35432  1.0000
  C   C107      1.0  0.01852  0.37361  0.49317  1.0000
  C   C108      1.0  0.03741  0.46679  0.42864  1.0000
  C   C109      1.0  0.04499  0.36761  0.41177  1.0000
  C   C110      1.0  0.06176  0.26505  0.47829  1.0000
  C   C111      1.0  0.07784  0.48404  0.43207  1.0000
  C   C112      1.0  0.02114  0.33090  0.41862  1.0000
  C   C113      1.0  0.01342  0.39860  0.49287  1.0000
  H   H92       1.0  0.09722  0.48294  0.42854  1.0000
  H   H93       1.0  0.24140  0.36119  0.03905  1.0000
  H   H94       1.0  0.23982  0.31078  0.18024  1.0000
  C   C114      1.0  0.02579  0.26596  0.36012  1.0000
  H   H95       1.0  0.22830  0.38462  0.30822  1.0000
  C   C115      1.0  0.01405  0.32650  0.33244  1.0000
  C   C116      1.0  0.22252  0.10296  0.33687  1.0000
  H   H96       1.0  0.00734  0.29584  0.24098  1.0000
  H   H97       1.0  0.19546  0.37315  0.33678  1.0000
  Fe  Fe8       1.0  0.12559  0.42023  0.49267  1.0000
  C   C117      1.0  0.24129  0.18941  0.23528  1.0000
  S   S16       1.0  0.24360  0.29063  0.11227  1.0000
  H   H98       1.0  0.24649  0.05756  0.30222  1.0000
  H   H99       1.0  0.01288  0.30341  0.30080  1.0000
  C   C118      1.0  0.22627  0.06546  0.38460  1.0000
  C   C119      1.0  0.21847  0.36779  0.30551  1.0000
  H   H100      1.0  0.00116  0.43275  0.45192  1.0000
  C   C120      1.0  0.23148  0.06952  0.42797  1.0000
  S   S17       1.0  0.20078  0.29026  0.84868  1.0000
  Fe  Fe9       1.0  0.14015  0.29510  0.71491  1.0000
  S   S18       1.0  0.11823  0.26028  0.71396  1.0000
  S   S19       1.0  0.15901  0.31708  0.74413  1.0000
  Fe  Fe10      1.0  0.13646  0.30290  0.65987  1.0000
  S   S20       1.0  0.11585  0.26832  0.65457  1.0000
  S   S21       1.0  0.14510  0.33228  0.63217  1.0000
  Fe  Fe11      1.0  0.09367  0.27976  0.68692  1.0000
  S   S22       1.0  0.05332  0.28312  0.67729  1.0000
  Fe  Fe12      1.0  0.14200  0.25180  0.68167  1.0000
  S   S23       1.0  0.15749  0.21372  0.67646  1.0000
  S   S24       1.0  0.11356  0.31510  0.69095  1.0000
  S   S25       1.0  0.16473  0.28553  0.68389  1.0000
  C   C121      1.0  0.22915  0.36990  0.59181  1.0000
  S   S26       1.0  0.11119  0.33202  0.52220  1.0000
  C   C122      1.0  0.22975  0.24219  0.81116  1.0000
  H   H101      1.0  0.11399  0.42879  0.70413  1.0000
  H   H102      1.0  0.22341  0.37336  0.89870  1.0000
  C   C123      1.0  0.18840  0.20654  0.68304  1.0000
  C   C124      1.0  0.19579  0.18198  0.68422  1.0000
  C   C125      1.0  0.22040  0.17570  0.68830  1.0000
  H   H103      1.0  0.23446  0.40823  0.59825  1.0000
  C   C126      1.0  0.23057  0.21848  0.68930  1.0000
  C   C127      1.0  0.20590  0.22475  0.68599  1.0000
  H   H104      1.0  0.18250  0.16774  0.68161  1.0000
  S   S27       1.0  0.09832  0.40222  0.51706  1.0000
  H   H105      1.0  0.22269  0.10643  0.71701  1.0000
  H   H106      1.0  0.20056  0.24370  0.68520  1.0000
  C   C128      1.0  0.13460  0.33200  0.60197  1.0000
  C   C129      1.0  0.12393  0.31134  0.59188  1.0000
  C   C130      1.0  0.11692  0.31152  0.56734  1.0000
  C   C131      1.0  0.12000  0.33252  0.55295  1.0000
  C   C132      1.0  0.13027  0.35330  0.56321  1.0000
  C   C133      1.0  0.13785  0.35288  0.58754  1.0000
  H   H107      1.0  0.12166  0.29504  0.60279  1.0000
  H   H108      1.0  0.10921  0.29531  0.55943  1.0000
  H   H109      1.0  0.13290  0.36951  0.55225  1.0000
  H   H110      1.0  0.14647  0.36873  0.59517  1.0000
  P   P5        1.0  0.02928  0.22447  0.61534  1.0000
  H   H111      1.0  0.24627  0.30681  0.53721  1.0000
  C   C134      1.0  0.03454  0.34817  0.59476  1.0000
  C   C135      1.0  0.02637  0.26981  0.71819  1.0000
  C   C136      1.0  0.02637  0.27956  0.69468  1.0000
  P   P6        1.0  0.22115  0.32070  0.58247  1.0000
  H   H112      1.0  0.04342  0.26492  0.72677  1.0000
  C   C137      1.0  0.04318  0.15112  0.57755  1.0000
  C   C138      1.0  0.19048  0.29646  0.81879  1.0000
  C   C139      1.0  0.20064  0.31525  0.80489  1.0000
  C   C140      1.0  0.19119  0.32078  0.78178  1.0000
  C   C141      1.0  0.17189  0.30725  0.77202  1.0000
  C   C142      1.0  0.16214  0.28795  0.78560  1.0000
  C   C143      1.0  0.17123  0.28281  0.80903  1.0000
  H   H113      1.0  0.21522  0.32609  0.81227  1.0000
  H   H114      1.0  0.19863  0.33592  0.77155  1.0000
  H   H115      1.0  0.14689  0.27780  0.77857  1.0000
  H   H116      1.0  0.16306  0.26857  0.81988  1.0000
  C   C144      1.0  0.07359  0.34737  0.65068  1.0000
  C   C145      1.0  0.05759  0.34973  0.67015  1.0000
  C   C146      1.0  0.05831  0.37059  0.68446  1.0000
  C   C147      1.0  0.07513  0.38905  0.67940  1.0000
  C   C148      1.0  0.09124  0.38688  0.65977  1.0000
  C   C149      1.0  0.09028  0.36589  0.64543  1.0000
  P   P7        1.0  0.11535  0.40888  0.65513  1.0000
  C   C150      1.0  0.10608  0.43822  0.66671  1.0000
  C   C151      1.0  0.14210  0.39923  0.67184  1.0000
  C   C152      1.0  0.14433  0.37513  0.68021  1.0000
  C   C153      1.0  0.16408  0.36813  0.69467  1.0000
  C   C154      1.0  0.18195  0.38509  0.70071  1.0000
  C   C155      1.0  0.18016  0.40907  0.69211  1.0000
  C   C156      1.0  0.16029  0.41616  0.67776  1.0000
  C   C157      1.0  0.10763  0.44282  0.69169  1.0000
  C   C158      1.0  0.23990  0.25781  0.79381  1.0000
  C   C159      1.0  0.00405  0.28601  0.68392  1.0000
  C   C160      1.0  0.09777  0.45679  0.65105  1.0000
  C   C161      1.0  0.12181  0.41216  0.62313  1.0000
  C   C162      1.0  0.10268  0.41163  0.60621  1.0000
  C   C163      1.0  0.10719  0.41633  0.58168  1.0000
  C   C164      1.0  0.15001  0.42151  0.59041  1.0000
  C   C165      1.0  0.14556  0.41698  0.61501  1.0000
  H   H117      1.0  0.07372  0.33067  0.64033  1.0000
  H   H118      1.0  0.04512  0.33506  0.67457  1.0000
  H   H119      1.0  0.04634  0.37204  0.69998  1.0000
  H   H120      1.0  0.07582  0.40459  0.69124  1.0000
  H   H121      1.0  0.10308  0.36341  0.63076  1.0000
  H   H122      1.0  0.13081  0.36167  0.67575  1.0000
  H   H123      1.0  0.16543  0.34949  0.70131  1.0000
  H   H124      1.0  0.19709  0.37955  0.71213  1.0000
  H   H125      1.0  0.19401  0.42221  0.69687  1.0000
  H   H126      1.0  0.15892  0.43489  0.67157  1.0000
  C   C166      1.0  0.03041  0.15190  0.59943  1.0000
  H   H127      1.0  0.09649  0.45396  0.63172  1.0000
  H   H128      1.0  0.08417  0.40814  0.61202  1.0000
  H   H129      1.0  0.16065  0.41737  0.62755  1.0000
  H   H130      1.0  0.01056  0.36856  0.63507  1.0000
  H   H131      1.0  0.17322  0.30021  0.59177  1.0000
  C   C167      1.0  0.04498  0.22149  0.64401  1.0000
  C   C168      1.0  0.03990  0.25046  0.59811  1.0000
  C   C169      1.0  0.09283  0.48395  0.68511  1.0000
  H   H132      1.0  0.20925  0.40848  0.63562  1.0000
  H   H133      1.0  0.00363  0.36251  0.67898  1.0000
  C   C170      1.0  0.11028  0.16375  0.81326  1.0000
  C   C171      1.0  0.12427  0.15750  0.83356  1.0000
  C   C172      1.0  0.14879  0.15128  0.83078  1.0000
  C   C173      1.0  0.15920  0.15092  0.80769  1.0000
  C   C174      1.0  0.14499  0.15600  0.78710  1.0000
  C   C175      1.0  0.12063  0.16321  0.79011  1.0000
  P   P8        1.0  0.15846  0.15492  0.75727  1.0000
  C   C176      1.0  0.13488  0.15041  0.73501  1.0000
  C   C177      1.0  0.17333  0.18398  0.75252  1.0000
  C   C178      1.0  0.15925  0.20540  0.75192  1.0000
  C   C179      1.0  0.17040  0.22815  0.74897  1.0000
  C   C180      1.0  0.19565  0.22971  0.74666  1.0000
  C   C181      1.0  0.20976  0.20852  0.74716  1.0000
  C   C182      1.0  0.19872  0.18577  0.75014  1.0000
  C   C183      1.0  0.11737  0.13211  0.73846  1.0000
  C   C184      1.0  0.09916  0.12848  0.72110  1.0000
  C   C185      1.0  0.09857  0.14285  0.70005  1.0000
  C   C186      1.0  0.11630  0.16070  0.69630  1.0000
  C   C187      1.0  0.13438  0.16441  0.71369  1.0000
  C   C188      1.0  0.17814  0.12867  0.75398  1.0000
  C   C189      1.0  0.17605  0.10850  0.76972  1.0000
  C   C190      1.0  0.19112  0.08815  0.76686  1.0000
  C   C191      1.0  0.20803  0.08755  0.74800  1.0000
  C   C192      1.0  0.20961  0.10710  0.73172  1.0000
  C   C193      1.0  0.19441  0.12737  0.73440  1.0000
  H   H134      1.0  0.09142  0.16914  0.81546  1.0000
  H   H135      1.0  0.11626  0.15798  0.85149  1.0000
  H   H136      1.0  0.15985  0.14706  0.84654  1.0000
  H   H137      1.0  0.17825  0.14638  0.80587  1.0000
  H   H138      1.0  0.10958  0.16844  0.77465  1.0000
  H   H139      1.0  0.13964  0.20456  0.75357  1.0000
  H   H140      1.0  0.15954  0.24464  0.74832  1.0000
  H   H141      1.0  0.20425  0.24732  0.74420  1.0000
  C   C194      1.0  0.08283  0.21528  0.66616  1.0000
  H   H142      1.0  0.21023  0.16982  0.75046  1.0000
  H   H143      1.0  0.11781  0.12068  0.75456  1.0000
  H   H144      1.0  0.08558  0.11445  0.72390  1.0000
  H   H145      1.0  0.08454  0.14003  0.68655  1.0000
  H   H146      1.0  0.11629  0.17162  0.67983  1.0000
  H   H147      1.0  0.14809  0.17807  0.71037  1.0000
  H   H148      1.0  0.16267  0.10818  0.78406  1.0000
  H   H149      1.0  0.18967  0.07273  0.77916  1.0000
  C   C195      1.0  0.20630  0.40471  0.94884  1.0000
  C   C196      1.0  0.07004  0.21518  0.68802  1.0000
  H   H150      1.0  0.19538  0.14204  0.72121  1.0000
  C   C197      1.0  0.24727  0.38313  0.92799  1.0000
  C   C198      1.0  0.22725  0.22397  0.87792  1.0000
  H   H151      1.0  0.13428  0.42526  0.55475  1.0000
  H   H152      1.0  0.00388  0.29440  0.66614  1.0000
  C   C199      1.0  0.02619  0.17423  0.61072  1.0000
  H   H153      1.0  0.22595  0.15678  0.68873  1.0000
  H   H154      1.0  0.22989  0.41460  0.97811  1.0000
  C   C200      1.0  0.15354  0.21843  0.81578  1.0000
  C   C201      1.0  0.14079  0.21621  0.83757  1.0000
  C   C202      1.0  0.15258  0.20720  0.85826  1.0000
  C   C203      1.0  0.17724  0.20087  0.85727  1.0000
  C   C204      1.0  0.19048  0.20436  0.83577  1.0000
  C   C205      1.0  0.17826  0.21242  0.81483  1.0000
  C   C206      1.0  0.22968  0.13268  0.79952  1.0000
  C   C207      1.0  0.04772  0.19503  0.57832  1.0000
  H   H155      1.0  0.17753  0.28545  0.51264  1.0000
  H   H156      1.0  0.07979  0.21342  0.70503  1.0000
  H   H157      1.0  0.01815  0.24200  0.56654  1.0000
  C   C208      1.0  0.10723  0.48166  0.50326  1.0000
  H   H158      1.0  0.09230  0.41638  0.56878  1.0000
  C   C209      1.0  0.18213  0.30200  0.52214  1.0000
  Fe  Fe13      1.0  0.11041  0.36721  0.50031  1.0000
  C   C210      1.0  0.20218  0.32239  0.55566  1.0000
  H   H159      1.0  0.03482  0.21814  0.70492  1.0000
  C   C211      1.0  0.03219  0.22091  0.66606  1.0000
  C   C212      1.0  0.01806  0.37077  0.56053  1.0000
  H   H160      1.0  0.19036  0.41286  0.95702  1.0000
  H   H161      1.0  0.04649  0.13380  0.56883  1.0000
  H   H162      1.0  0.23108  0.24425  0.91103  1.0000
  C   C213      1.0  0.21124  0.29484  0.60044  1.0000
  C   C214      1.0  0.13225  0.48022  0.50783  1.0000
  H   H163      1.0  0.01652  0.17457  0.62784  1.0000
  H   H164      1.0  0.14446  0.22554  0.79978  1.0000
  H   H165      1.0  0.12180  0.22151  0.83841  1.0000
  H   H166      1.0  0.14268  0.20543  0.87515  1.0000
  H   H167      1.0  0.18610  0.19392  0.87345  1.0000
  H   H168      1.0  0.18797  0.21472  0.79793  1.0000
  C   C215      1.0  0.05557  0.26764  0.60850  1.0000
  H   H169      1.0  0.07998  0.36999  0.55873  1.0000
  C   C216      1.0  0.22878  0.40560  0.96076  1.0000
  H   H170      1.0  0.08505  0.49387  0.64803  1.0000
  H   H171      1.0  0.24808  0.31104  0.95157  1.0000
  C   C217      1.0  0.19293  0.34477  0.54714  1.0000
  H   H172      1.0  0.19576  0.33214  0.62811  1.0000
  H   H173      1.0  0.21175  0.23472  0.87194  1.0000
  S   S28       1.0  0.14783  0.45198  0.50639  1.0000
  C   C218      1.0  0.09122  0.47955  0.66025  1.0000
  H   H174      1.0  0.17100  0.36290  0.52003  1.0000
  H   H175      1.0  0.24712  0.28447  0.61346  1.0000
  H   H176      1.0  0.18974  0.37021  0.65002  1.0000
  H   H177      1.0  0.07511  0.30111  0.60329  1.0000
  H   H178      1.0  0.10227  0.46898  0.72010  1.0000
  C   C219      1.0  0.22547  0.14856  0.84735  1.0000
  C   C220      1.0  0.10098  0.46557  0.70082  1.0000
  C   C221      1.0  0.03834  0.27507  0.56124  1.0000
  C   C222      1.0  0.21185  0.39173  0.62570  1.0000
  C   C223      1.0  0.04169  0.37561  0.55242  1.0000
  H   H179      1.0  0.07384  0.34586  0.59612  1.0000
  Fe  Fe14      1.0  0.23908  0.30147  0.85952  1.0000
  C   C224      1.0  0.13082  0.42137  0.57378  1.0000
  H   H180      1.0  0.16832  0.42531  0.58416  1.0000
  H   H181      1.0  0.02876  0.46728  0.53505  1.0000
  C   C225      1.0  0.22787  0.28049  0.61370  1.0000
  C   C226      1.0  0.17819  0.26950  0.61550  1.0000
  H   H182      1.0  0.15892  0.26548  0.61647  1.0000
  C   C227      1.0  0.01430  0.35750  0.58209  1.0000
  C   C228      1.0  0.20423  0.34855  0.62122  1.0000
  H   H183      1.0  0.21975  0.07179  0.74585  1.0000
  C   C229      1.0  0.23682  0.20538  0.86335  1.0000
  H   H184      1.0  0.00421  0.25864  0.74871  1.0000
  H   H185      1.0  0.07903  0.28096  0.50962  1.0000
  C   C230      1.0  0.04473  0.21782  0.68795  1.0000
  C   C231      1.0  0.18636  0.28919  0.60153  1.0000
  P   P9        1.0  0.22272  0.19786  0.83478  1.0000
  H   H186      1.0  0.03141  0.27821  0.54307  1.0000
  C   C232      1.0  0.20097  0.37023  0.63392  1.0000
  H   H187      1.0  0.22930  0.20969  0.74472  1.0000
  H   H188      1.0  0.22643  0.17025  0.78944  1.0000
  H   H189      1.0  0.05522  0.21136  0.57019  1.0000
  H   H190      1.0  0.06042  0.30746  0.56102  1.0000
  H   H191      1.0  0.04449  0.38611  0.53592  1.0000
  C   C233      1.0  0.06171  0.36669  0.56535  1.0000
  H   H192      1.0  0.10250  0.21353  0.66624  1.0000
  C   C234      1.0  0.22709  0.15751  0.80438  1.0000
  C   C235      1.0  0.01251  0.46971  0.52414  1.0000
  C   C236      1.0  0.03439  0.19601  0.60001  1.0000
  C   C237      1.0  0.06293  0.28806  0.59513  1.0000
  C   C238      1.0  0.22567  0.16574  0.82835  1.0000
  C   C239      1.0  0.05453  0.29169  0.57144  1.0000
  C   C240      1.0  0.21797  0.34829  0.59984  1.0000
  H   H193      1.0  0.06192  0.26560  0.62700  1.0000
  C   C241      1.0  0.05816  0.35304  0.58651  1.0000
  H   H194      1.0  0.08056  0.21850  0.62744  1.0000
  H   H195      1.0  0.20349  0.28352  0.54923  1.0000
  H   H196      1.0  0.03211  0.33686  0.61075  1.0000
  C   C242      1.0  0.22604  0.39155  0.60469  1.0000
  C   C243      1.0  0.03095  0.25459  0.57456  1.0000
  H   H197      1.0  0.02386  0.13518  0.60771  1.0000
  C   C244      1.0  0.19481  0.25523  0.62849  1.0000
  C   C245      1.0  0.24950  0.39474  0.95046  1.0000
  C   C246      1.0  0.00413  0.26614  0.73053  1.0000
  H   H198      1.0  0.06215  0.17201  0.55030  1.0000
  C   C247      1.0  0.17309  0.32434  0.51379  1.0000
  C   C248      1.0  0.22483  0.38241  0.91605  1.0000
  C   C249      1.0  0.07036  0.21829  0.64422  1.0000
  H   H199      1.0  0.18693  0.39229  0.91724  1.0000
  H   H200      1.0  0.21641  0.24927  0.82364  1.0000
  C   C250      1.0  0.05192  0.17266  0.56708  1.0000
  C   C251      1.0  0.20434  0.39314  0.92647  1.0000
  C   C252      1.0  0.19671  0.30100  0.54293  1.0000
  H   H201      1.0  0.00274  0.37727  0.54983  1.0000
  H   H202      1.0  0.19623  0.36152  0.55669  1.0000
  H   H203      1.0  0.23992  0.37008  0.57538  1.0000
  C   C253      1.0  0.17853  0.34568  0.52624  1.0000
  H   H204      1.0  0.23151  0.32100  0.99224  1.0000
  H   H205      1.0  0.22839  0.11055  0.85723  1.0000
  C   C254      1.0  0.23684  0.21765  0.81252  1.0000
  C   C255      1.0  0.23824  0.22957  0.90007  1.0000
  H   H206      1.0  0.23162  0.12657  0.78099  1.0000
  H   H207      1.0  0.01263  0.22317  0.66661  1.0000
  H   H208      1.0  0.23807  0.42499  0.88242  1.0000
  S   S29       1.0  0.24885  0.32326  0.89262  1.0000
  C   C256      1.0  0.23796  0.19397  0.69057  1.0000
  H   H209      1.0  0.23270  0.09657  0.81474  1.0000
  C   C257      1.0  0.22790  0.12368  0.84246  1.0000
  C   C258      1.0  0.24719  0.30915  0.99081  1.0000
  H   H210      1.0  0.06246  0.32220  0.50171  1.0000
  H   H211      1.0  0.24955  0.01752  0.72515  1.0000
  C   C259      1.0  0.23023  0.11577  0.81855  1.0000
  H   H212      1.0  0.18838  0.23999  0.63933  1.0000
  H   H213      1.0  0.22375  0.15438  0.86598  1.0000
  H   H214      1.0  0.23971  0.45130  0.91865  1.0000
  H   H215      1.0  0.23452  0.27681  0.79317  1.0000
  C   C260      1.0  0.21963  0.26074  0.62767  1.0000
  H   H216      1.0  0.23239  0.24974  0.63807  1.0000
  C   C261      1.0  0.24514  0.45860  0.90118  1.0000
  H   H217      1.0  0.24402  0.23274  0.69091  1.0000
  C   C262      1.0  0.24398  0.44379  0.88074  1.0000
  H   H218      1.0  0.00403  0.26431  0.63797  1.0000
  C   C263      1.0  0.01469  0.47751  0.50004  1.0000
  H   H219      1.0  0.09710  0.46535  0.49910  1.0000
  H   H220      1.0  0.16133  0.32509  0.49799  1.0000
  S   S30       1.0  0.20171  0.71549  0.16323  1.0000
  Fe  Fe15      1.0  0.15455  0.72301  0.29697  1.0000
  S   S31       1.0  0.13115  0.75127  0.27882  1.0000
  S   S32       1.0  0.18320  0.70110  0.27665  1.0000
  Fe  Fe16      1.0  0.13280  0.73313  0.34745  1.0000
  S   S33       1.0  0.10885  0.76299  0.33245  1.0000
  S   S34       1.0  0.12436  0.72673  0.38739  1.0000
  Fe  Fe17      1.0  0.10063  0.73717  0.30235  1.0000
  S   S35       1.0  0.06259  0.72423  0.29204  1.0000
  Fe  Fe18      1.0  0.14169  0.77427  0.31078  1.0000
  S   S36       1.0  0.15283  0.81347  0.30404  1.0000
  S   S37       1.0  0.12336  0.70673  0.31815  1.0000
  S   S38       1.0  0.16640  0.74665  0.32813  1.0000
  C   C264      1.0  0.07281  0.57325  0.42568  1.0000
  H   H221      1.0  0.24016  0.83160  0.04113  1.0000
  C   C265      1.0  0.22214  0.77458  0.16348  1.0000
  C   C266      1.0  0.20959  0.73503  0.06494  1.0000
  H   H222      1.0  0.22970  0.78272  0.12620  1.0000
  C   C267      1.0  0.17963  0.74023  0.45743  1.0000
  H   H223      1.0  0.00973  0.57719  0.45755  1.0000
  S   S39       1.0  0.16136  0.64345  0.45910  1.0000
  C   C268      1.0  0.22053  0.83183  0.04314  1.0000
  C   C269      1.0  0.10813  0.60031  0.39642  1.0000
  C   C270      1.0  0.20656  0.73550  0.41443  1.0000
  C   C271      1.0  0.09825  0.62170  0.40630  1.0000
  C   C272      1.0  0.12962  0.54020  0.44003  1.0000
  C   C273      1.0  0.19911  0.71752  0.08021  1.0000
  C   C274      1.0  0.01418  0.65931  0.39389  1.0000
  C   C275      1.0  0.18386  0.82160  0.30720  1.0000
  C   C276      1.0  0.19903  0.80958  0.32382  1.0000
  C   C277      1.0  0.22322  0.81735  0.32708  1.0000
  C   C278      1.0  0.23266  0.83677  0.31330  1.0000
  C   C279      1.0  0.21763  0.84857  0.29637  1.0000
  C   C280      1.0  0.19322  0.84122  0.29362  1.0000
  H   H224      1.0  0.19194  0.79474  0.33466  1.0000
  H   H225      1.0  0.06071  0.73962  0.46672  1.0000
  C   C281      1.0  0.08146  0.51228  0.36984  1.0000
  H   H226      1.0  0.18157  0.85077  0.28093  1.0000
  C   C282      1.0  0.13444  0.70240  0.40600  1.0000
  C   C283      1.0  0.15527  0.68877  0.40065  1.0000
  C   C284      1.0  0.16337  0.67057  0.41696  1.0000
  C   C285      1.0  0.15044  0.66563  0.43840  1.0000
  C   C286      1.0  0.12934  0.67887  0.44340  1.0000
  C   C287      1.0  0.12162  0.69743  0.42746  1.0000
  H   H227      1.0  0.16542  0.69262  0.38428  1.0000
  H   H228      1.0  0.17974  0.66038  0.41301  1.0000
  H   H229      1.0  0.11916  0.67501  0.45974  1.0000
  H   H230      1.0  0.10556  0.70794  0.43171  1.0000
  H   H231      1.0  0.09030  0.78944  0.22362  1.0000
  H   H232      1.0  0.09546  0.66082  0.40327  1.0000
  C   C288      1.0  0.10305  0.64437  0.39563  1.0000
  H   H233      1.0  0.17566  0.69226  0.47798  1.0000
  C   C289      1.0  0.03567  0.74206  0.29102  1.0000
  C   C290      1.0  0.03615  0.76752  0.28968  1.0000
  C   C291      1.0  0.20412  0.73278  0.45820  1.0000
  H   H234      1.0  0.05343  0.77694  0.28954  1.0000
  C   C292      1.0  0.19731  0.71181  0.19487  1.0000
  C   C293      1.0  0.21177  0.69595  0.20871  1.0000
  C   C294      1.0  0.20730  0.69290  0.23372  1.0000
  C   C295      1.0  0.18836  0.70566  0.24515  1.0000
  C   C296      1.0  0.17391  0.72151  0.23124  1.0000
  C   C297      1.0  0.17836  0.72454  0.20626  1.0000
  H   H235      1.0  0.22612  0.68570  0.20004  1.0000
  H   H236      1.0  0.21844  0.68045  0.24423  1.0000
  H   H237      1.0  0.15909  0.73120  0.23962  1.0000
  H   H238      1.0  0.16694  0.73671  0.19569  1.0000
  H   H239      1.0  0.21276  0.77102  0.20090  1.0000
  H   H240      1.0  0.23668  0.77147  0.29461  1.0000
  H   H241      1.0  0.01468  0.80041  0.28600  1.0000
  C   C298      1.0  0.02942  0.58193  0.42402  1.0000
  C   C299      1.0  0.21222  0.78287  0.18515  1.0000
  C   C300      1.0  0.20201  0.80625  0.18635  1.0000
  C   C301      1.0  0.20062  0.82066  0.16523  1.0000
  P   P10       1.0  0.18974  0.81722  0.21448  1.0000
  C   C302      1.0  0.15769  0.81010  0.21648  1.0000
  C   C303      1.0  0.20548  0.80194  0.23906  1.0000
  C   C304      1.0  0.19551  0.78086  0.24969  1.0000
  C   C305      1.0  0.20700  0.76964  0.26942  1.0000
  C   C306      1.0  0.22863  0.77922  0.27849  1.0000
  C   C307      1.0  0.05210  0.58065  0.41259  1.0000
  C   C308      1.0  0.09181  0.72065  0.48132  1.0000
  C   C309      1.0  0.14564  0.81247  0.23872  1.0000
  C   C310      1.0  0.12139  0.80526  0.24122  1.0000
  C   C311      1.0  0.10896  0.79548  0.22149  1.0000
  C   C312      1.0  0.12079  0.79304  0.19920  1.0000
  C   C313      1.0  0.14509  0.80029  0.19667  1.0000
  C   C314      1.0  0.19568  0.84954  0.21703  1.0000
  C   C315      1.0  0.17955  0.86503  0.22928  1.0000
  C   C316      1.0  0.18542  0.88958  0.23264  1.0000
  C   C317      1.0  0.20736  0.89887  0.22374  1.0000
  C   C318      1.0  0.22335  0.88366  0.21126  1.0000
  C   C319      1.0  0.21751  0.85917  0.20786  1.0000
  C   C320      1.0  0.00305  0.67776  0.34451  1.0000
  H   H242      1.0  0.23628  0.82674  0.23972  1.0000
  C   C321      1.0  0.20792  0.81037  0.04903  1.0000
  C   C322      1.0  0.18252  0.85427  0.04189  1.0000
  H   H243      1.0  0.19228  0.83855  0.16570  1.0000
  H   H244      1.0  0.17864  0.77322  0.24311  1.0000
  H   H245      1.0  0.19876  0.75385  0.27800  1.0000
  C   C323      1.0  0.15831  0.57741  0.45897  1.0000
  C   C324      1.0  0.18468  0.74939  0.10660  1.0000
  H   H246      1.0  0.23879  0.74350  0.22430  1.0000
  H   H247      1.0  0.15528  0.81928  0.25435  1.0000
  H   H248      1.0  0.11254  0.80674  0.25872  1.0000
  H   H249      1.0  0.11125  0.78509  0.18402  1.0000
  H   H250      1.0  0.15405  0.79767  0.17944  1.0000
  H   H251      1.0  0.16269  0.85827  0.23674  1.0000
  H   H252      1.0  0.17315  0.90129  0.24259  1.0000
  H   H253      1.0  0.21218  0.91774  0.22680  1.0000
  H   H254      1.0  0.15011  0.83319  0.04842  1.0000
  H   H255      1.0  0.14993  0.75062  0.43337  1.0000
  C   C325      1.0  0.21747  0.73033  0.43678  1.0000
  H   H256      1.0  0.23084  0.75687  0.16295  1.0000
  C   C326      1.0  0.14785  0.53471  0.45689  1.0000
  C   C327      1.0  0.05033  0.62963  0.35762  1.0000
  H   H257      1.0  0.20997  0.82362  0.12741  1.0000
  C   C328      1.0  0.16214  0.55332  0.46644  1.0000
  H   H258      1.0  0.23468  0.80821  0.34026  1.0000
  H   H259      1.0  0.05356  0.58528  0.39356  1.0000
  C   C329      1.0  0.23113  0.77152  0.02272  1.0000
  H   H260      1.0  0.23116  0.61920  0.23955  1.0000
  P   P11       1.0  0.02665  0.67363  0.36697  1.0000
  H   H261      1.0  0.01223  0.81906  0.37230  1.0000
  C   C330      1.0  0.02973  0.65043  0.41221  1.0000
  C   C331      1.0  0.16883  0.74534  0.43486  1.0000
  C   C332      1.0  0.10349  0.50478  0.35969  1.0000
  C   C333      1.0  0.03973  0.70315  0.37343  1.0000
  C   C334      1.0  0.05036  0.70814  0.39602  1.0000
  C   C335      1.0  0.06165  0.73059  0.40004  1.0000
  C   C336      1.0  0.06238  0.74820  0.38163  1.0000
  C   C337      1.0  0.05161  0.74350  0.35925  1.0000
  C   C338      1.0  0.04041  0.72111  0.35515  1.0000
  C   C339      1.0  0.08068  0.53277  0.38475  1.0000
  H   H262      1.0  0.04929  0.65184  0.41031  1.0000
  H   H263      1.0  0.08064  0.51629  0.45385  1.0000
  H   H264      1.0  0.17372  0.74681  0.39615  1.0000
  H   H265      1.0  0.05067  0.69471  0.41038  1.0000
  H   H266      1.0  0.07085  0.73397  0.41702  1.0000
  H   H267      1.0  0.07208  0.76512  0.38439  1.0000
  H   H268      1.0  0.05269  0.75684  0.34467  1.0000
  H   H269      1.0  0.17221  0.79438  0.05401  1.0000
  H   H270      1.0  0.23803  0.99990  0.24905  1.0000
  H   H271      1.0  0.01263  0.78985  0.33830  1.0000
  C   C340      1.0  0.11827  0.64602  0.37546  1.0000
  H   H272      1.0  0.17585  0.75474  0.12331  1.0000
  H   H273      1.0  0.22467  0.86359  0.28571  1.0000
  C   C341      1.0  0.12561  0.56439  0.43245  1.0000
  C   C342      1.0  0.08005  0.74053  0.47049  1.0000
  C   C343      1.0  0.19501  0.76696  0.09125  1.0000
  H   H274      1.0  0.21774  0.87030  0.03544  1.0000
  H   H275      1.0  0.13729  0.60184  0.43682  1.0000
  C   C344      1.0  0.22782  0.81081  0.24768  1.0000
  H   H276      1.0  0.06610  0.68449  0.33260  1.0000
  C   C345      1.0  0.05002  0.65493  0.35354  1.0000
  C   C346      1.0  0.22143  0.78923  0.14271  1.0000
  H   H277      1.0  0.09540  0.61372  0.31841  1.0000
  H   H278      1.0  0.23047  0.84755  0.19873  1.0000
  H   H279      1.0  0.03749  0.62127  0.36997  1.0000
  S   S40       1.0  0.09957  0.61869  0.48364  1.0000
  C   C347      1.0  0.12413  0.53811  0.37950  1.0000
  H   H280      1.0  0.17947  0.71104  0.11343  1.0000
  H   H281      1.0  0.19575  0.75507  0.01735  1.0000
  Fe  Fe19      1.0  0.23799  0.70659  0.14541  1.0000
  C   C348      1.0  0.06626  0.66513  0.33664  1.0000
  H   H282      1.0  0.16937  0.59185  0.46646  1.0000
  C   C349      1.0  0.11683  0.72154  0.48588  1.0000
  H   H283      1.0  0.12219  0.66370  0.36742  1.0000
  C   C350      1.0  0.02730  0.57607  0.44862  1.0000
  C   C351      1.0  0.10199  0.54609  0.38947  1.0000
  C   C352      1.0  0.14007  0.58299  0.44210  1.0000
  C   C353      1.0  0.18232  0.74312  0.41351  1.0000
  H   H284      1.0  0.08632  0.56249  0.46100  1.0000
  H   H285      1.0  0.04659  0.56479  0.48097  1.0000
  C   C354      1.0  0.08251  0.65027  0.32405  1.0000
  C   C355      1.0  0.18676  0.72468  0.10109  1.0000
  H   H286      1.0  0.21675  0.73342  0.39778  1.0000
  C   C356      1.0  0.04794  0.56911  0.46180  1.0000
  C   C357      1.0  0.19055  0.78546  0.49272  1.0000
  H   H287      1.0  0.14078  0.62642  0.35043  1.0000
  C   C358      1.0  0.16979  0.83284  0.04711  1.0000
  H   H288      1.0  0.09479  0.65835  0.31087  1.0000
  C   C359      1.0  0.06676  0.61483  0.34512  1.0000
  C   C360      1.0  0.23933  0.79945  0.26735  1.0000
  H   H289      1.0  0.13179  0.58621  0.36836  1.0000
  H   H290      1.0  0.08721  0.62101  0.42254  1.0000
  C   C361      1.0  0.07059  0.56774  0.45040  1.0000
  C   C362      1.0  0.20760  0.75989  0.07031  1.0000
  P   P12       1.0  0.10192  0.57113  0.41065  1.0000
  H   H291      1.0  0.20148  0.69832  0.07633  1.0000
  C   C363      1.0  0.08274  0.62514  0.32822  1.0000
  H   H292      1.0  0.06702  0.59534  0.34831  1.0000
  C   C364      1.0  0.21048  0.81221  0.14349  1.0000
  C   C365      1.0  0.12869  0.62496  0.36587  1.0000
  H   H293      1.0  0.19393  0.78595  0.09622  1.0000
  C   C366      1.0  0.12351  0.60216  0.37616  1.0000
  C   C367      1.0  0.21333  0.75905  0.00941  1.0000
  H   H294      1.0  0.12851  0.77843  0.46372  1.0000
  Fe  Fe20      1.0  0.13686  0.63348  0.49070  1.0000
  H   H295      1.0  0.22001  0.72899  0.04949  1.0000
  H   H296      1.0  0.01258  0.71041  0.29189  1.0000
  H   H297      1.0  0.14102  0.54726  0.38386  1.0000
  H   H298      1.0  0.06353  0.53754  0.39301  1.0000
  C   C368      1.0  0.12482  0.51768  0.36455  1.0000
  C   C369      1.0  0.18240  0.81090  0.05048  1.0000
  C   C370      1.0  0.02010  0.63977  0.43323  1.0000
  H   H299      1.0  0.21290  0.72876  0.47536  1.0000
  C   C371      1.0  0.01418  0.78076  0.28765  1.0000
  H   H300      1.0  0.24065  0.89061  0.20474  1.0000
  H   H301      1.0  0.11864  0.52552  0.43304  1.0000
  H   H302      1.0  0.03302  0.71760  0.33736  1.0000
  C   C372      1.0  0.06851  0.50284  0.44623  1.0000
  H   H303      1.0  0.23624  0.72427  0.43749  1.0000
  H   H304      1.0  0.23997  0.81894  0.08851  1.0000
  P   P13       1.0  0.22438  0.78217  0.05288  1.0000
  H   H305      1.0  0.17273  0.87127  0.03927  1.0000
  H   H306      1.0  0.00672  0.80891  0.48102  1.0000
  H   H307      1.0  0.14200  0.51155  0.35709  1.0000
  H   H308      1.0  0.03212  0.63337  0.44759  1.0000
  H   H309      1.0  0.01349  0.58780  0.41395  1.0000
  S   S41       1.0  0.24395  0.67447  0.12137  1.0000
  C   C373      1.0  0.04368  0.50362  0.45168  1.0000
  C   C374      1.0  0.20787  0.85374  0.03978  1.0000
  H   H310      1.0  0.03686  0.51791  0.46329  1.0000
  C   C375      1.0  0.11838  0.76228  0.46885  1.0000
  C   C376      1.0  0.01309  0.73008  0.29097  1.0000
  H   H311      1.0  0.01332  0.64676  0.32253  1.0000
  H   H312      1.0  0.15062  0.51604  0.46291  1.0000
  H   H313      1.0  0.20332  0.77832  0.47968  1.0000
  C   C377      1.0  0.09334  0.76135  0.46423  1.0000
  H   H314      1.0  0.08434  0.77666  0.45549  1.0000
  H   H315      1.0  0.17598  0.54911  0.47986  1.0000
  H   H316      1.0  0.06504  0.50192  0.36653  1.0000
  C   C378      1.0  0.00086  0.66185  0.32479  1.0000
  P   P14       1.0  0.16272  0.74345  0.48539  1.0000
  C   C379      1.0  0.13035  0.74225  0.47953  1.0000
  H   H317      1.0  0.08165  0.70434  0.48589  1.0000
  H   H318      1.0  0.24217  0.67778  0.00764  1.0000
  H   H319      1.0  0.24869  0.63767  0.27653  1.0000
  C   C380      1.0  0.24649  0.63152  0.23813  1.0000
  H   H320      1.0  0.24847  0.62943  0.19913  1.0000
  H   H321      1.0  0.00115  0.51621  0.40994  1.0000
  C   C381      1.0  0.00167  0.78618  0.35423  1.0000
  H   H322      1.0  0.12561  0.70584  0.49394  1.0000
  C   C382      1.0  0.00142  0.80261  0.37344  1.0000
  C   C383      1.0  0.17681  0.69595  0.49721  1.0000
  C   C384      1.0  0.20855  0.82325  0.90950  1.0000
  S   S42       1.0  0.21223  0.71201  0.86134  1.0000
  Fe  Fe21      1.0  0.13107  0.63035  0.54561  1.0000
  S   S43       1.0  0.14703  0.63585  0.58309  1.0000
  S   S44       1.0  0.09339  0.61508  0.54277  1.0000
  Fe  Fe22      1.0  0.13837  0.73800  0.68108  1.0000
  S   S45       1.0  0.11099  0.76466  0.69584  1.0000
  S   S46       1.0  0.14075  0.73583  0.64002  1.0000
  Fe  Fe23      1.0  0.15426  0.72149  0.73197  1.0000
  S   S47       1.0  0.12729  0.74593  0.75012  1.0000
  S   S48       1.0  0.18088  0.69631  0.75143  1.0000
  Fe  Fe24      1.0  0.10057  0.73438  0.72129  1.0000
  S   S49       1.0  0.06250  0.71871  0.72733  1.0000
  Fe  Fe25      1.0  0.14031  0.77401  0.72290  1.0000
  S   S50       1.0  0.15042  0.81170  0.73660  1.0000
  S   S51       1.0  0.12679  0.70728  0.70534  1.0000
  S   S52       1.0  0.16845  0.74994  0.70606  1.0000
  C   C385      1.0  0.04501  0.74110  0.88505  1.0000
  H   H323      1.0  0.09019  0.72505  0.63923  1.0000
  C   C386      1.0  0.17888  0.82455  0.72832  1.0000
  C   C387      1.0  0.19028  0.84130  0.74379  1.0000
  C   C388      1.0  0.21291  0.85179  0.73757  1.0000
  H   H324      1.0  0.19669  0.83333  0.92146  1.0000
  C   C389      1.0  0.21211  0.83002  0.69968  1.0000
  C   C390      1.0  0.19004  0.81880  0.70633  1.0000
  H   H325      1.0  0.18172  0.84596  0.76075  1.0000
  H   H326      1.0  0.22471  0.90875  0.80302  1.0000
  C   C391      1.0  0.23320  0.74005  0.74809  1.0000
  H   H327      1.0  0.18142  0.80606  0.69420  1.0000
  C   C392      1.0  0.14499  0.50159  0.51365  1.0000
  C   C393      1.0  0.13288  0.52426  0.51451  1.0000
  C   C394      1.0  0.12165  0.70747  0.82617  1.0000
  C   C395      1.0  0.14324  0.66344  0.59901  1.0000
  C   C396      1.0  0.14914  0.66412  0.62377  1.0000
  C   C397      1.0  0.14742  0.68599  0.63680  1.0000
  C   C398      1.0  0.14037  0.70751  0.62500  1.0000
  C   C399      1.0  0.13390  0.70675  0.60036  1.0000
  C   C400      1.0  0.13500  0.68473  0.58748  1.0000
  H   H328      1.0  0.15530  0.64769  0.63286  1.0000
  H   H329      1.0  0.15224  0.68633  0.65578  1.0000
  H   H330      1.0  0.12828  0.72330  0.59114  1.0000
  H   H331      1.0  0.13023  0.68439  0.56847  1.0000
  C   C401      1.0  0.03022  0.75704  0.71847  1.0000
  C   C402      1.0  0.03343  0.73198  0.72206  1.0000
  C   C403      1.0  0.08353  0.72448  0.81111  1.0000
  H   H332      1.0  0.04592  0.76888  0.71783  1.0000
  H   H333      1.0  0.01507  0.69748  0.72564  1.0000
  C   C404      1.0  0.18380  0.68097  0.53806  1.0000
  C   C405      1.0  0.18313  0.67697  0.51309  1.0000
  C   C406      1.0  0.20479  0.70837  0.83032  1.0000
  C   C407      1.0  0.18542  0.72188  0.82043  1.0000
  C   C408      1.0  0.17833  0.71888  0.79612  1.0000
  C   C409      1.0  0.19019  0.70180  0.78163  1.0000
  C   C410      1.0  0.20971  0.68837  0.79144  1.0000
  C   C411      1.0  0.21715  0.69180  0.81561  1.0000
  H   H334      1.0  0.17587  0.73466  0.83171  1.0000
  H   H335      1.0  0.16336  0.72939  0.78877  1.0000
  H   H336      1.0  0.21903  0.67517  0.78033  1.0000
  H   H337      1.0  0.23197  0.68111  0.82302  1.0000
  C   C412      1.0  0.22037  0.75981  0.75757  1.0000
  H   H338      1.0  0.12631  0.79236  0.63388  1.0000
  C   C413      1.0  0.01279  0.71686  0.72270  1.0000
  H   H339      1.0  0.22171  0.86434  0.74979  1.0000
  H   H340      1.0  0.00712  0.62648  0.56205  1.0000
  C   C414      1.0  0.17247  0.72319  0.53127  1.0000
  C   C415      1.0  0.10554  0.69431  0.78763  1.0000
  C   C416      1.0  0.07438  0.81182  0.66113  1.0000
  C   C417      1.0  0.23954  0.79763  0.87859  1.0000
  C   C418      1.0  0.09110  0.77573  0.62988  1.0000
  C   C419      1.0  0.20431  0.82355  0.88447  1.0000
  H   H341      1.0  0.16829  0.74079  0.53884  1.0000
  H   H342      1.0  0.23147  0.80970  0.93844  1.0000
  H   H343      1.0  0.20650  0.75679  0.77121  1.0000
  C   C420      1.0  0.07478  0.71629  0.64769  1.0000
  H   H344      1.0  0.07232  0.71126  0.77604  1.0000
  H   H345      1.0  0.00360  0.67733  0.50861  1.0000
  C   C421      1.0  0.22023  0.70468  0.69897  1.0000
  H   H346      1.0  0.06256  0.70838  0.59870  1.0000
  H   H347      1.0  0.03825  0.79054  0.83482  1.0000
  C   C422      1.0  0.23515  0.79199  0.82100  1.0000
  C   C423      1.0  0.22569  0.78343  0.74966  1.0000
  H   H348      1.0  0.18916  0.83398  0.87723  1.0000
  C   C424      1.0  0.17958  0.81745  0.52073  1.0000
  C   C425      1.0  0.01470  0.76163  0.62685  1.0000
  H   H349      1.0  0.09728  0.68934  0.66525  1.0000
  C   C426      1.0  0.03534  0.76396  0.89059  1.0000
  C   C427      1.0  0.16919  0.77272  0.49866  1.0000
  H   H350      1.0  0.07777  0.73798  0.52826  1.0000
  C   C428      1.0  0.05940  0.68452  0.67415  1.0000
  C   C429      1.0  0.07213  0.77354  0.79669  1.0000
  H   H351      1.0  0.08784  0.50164  0.69218  1.0000
  C   C430      1.0  0.04074  0.77680  0.84882  1.0000
  C   C431      1.0  0.02514  0.71282  0.79987  1.0000
  C   C432      1.0  0.03308  0.78175  0.87244  1.0000
  H   H352      1.0  0.14606  0.81218  0.54027  1.0000
  C   C433      1.0  0.05110  0.72518  0.64398  1.0000
  H   H353      1.0  0.02511  0.79931  0.87662  1.0000
  Fe  Fe26      1.0  0.08819  0.64336  0.51374  1.0000
  H   H354      1.0  0.21212  0.81756  0.49897  1.0000
  H   H355      1.0  0.20728  0.54824  0.82183  1.0000
  C   C434      1.0  0.05823  0.79423  0.65243  1.0000
  S   S53       1.0  0.09165  0.55349  0.51019  1.0000
  Fe  Fe27      1.0  0.10809  0.59136  0.51321  1.0000
  C   C435      1.0  0.02415  0.66217  0.59672  1.0000
  C   C436      1.0  0.08313  0.79314  0.75860  1.0000
  H   H356      1.0  0.10462  0.82554  0.80623  1.0000
  C   C437      1.0  0.10187  0.72334  0.82887  1.0000
  C   C438      1.0  0.05118  0.75414  0.84329  1.0000
  C   C439      1.0  0.23717  0.85548  0.83250  1.0000
  H   H357      1.0  0.18516  0.69496  0.68472  1.0000
  C   C440      1.0  0.03494  0.65654  0.61918  1.0000
  C   C441      1.0  0.05998  0.65199  0.62078  1.0000
  C   C442      1.0  0.07444  0.65309  0.60004  1.0000
  C   C443      1.0  0.06387  0.65866  0.57769  1.0000
  C   C444      1.0  0.03886  0.66302  0.57596  1.0000
  H   H358      1.0  0.13598  0.70682  0.83970  1.0000
  H   H359      1.0  0.20176  0.66452  0.65609  1.0000
  H   H360      1.0  0.07651  0.70304  0.55650  1.0000
  C   C445      1.0  0.00646  0.65791  0.50714  1.0000
  H   H361      1.0  0.22905  0.72185  0.75450  1.0000
  C   C446      1.0  0.20460  0.69165  0.68389  1.0000
  H   H362      1.0  0.04632  0.72715  0.89901  1.0000
  C   C447      1.0  0.01613  0.75450  0.78800  1.0000
  C   C448      1.0  0.09513  0.50422  0.50434  1.0000
  C   C449      1.0  0.23593  0.76697  0.82641  1.0000
  H   H363      1.0  0.24632  0.54778  0.90961  1.0000
  H   H364      1.0  0.05176  0.61553  0.50856  1.0000
  H   H365      1.0  0.18786  0.66602  0.55043  1.0000
  H   H366      1.0  0.00419  0.78639  0.71459  1.0000
  H   H367      1.0  0.06800  0.82566  0.67351  1.0000
  C   C450      1.0  0.10790  0.52564  0.50969  1.0000
  H   H368      1.0  0.06274  0.66945  0.68652  1.0000
  H   H369      1.0  0.06823  0.64740  0.63805  1.0000
  H   H370      1.0  0.09380  0.64932  0.60122  1.0000
  H   H371      1.0  0.07506  0.65946  0.56159  1.0000
  H   H372      1.0  0.03099  0.66666  0.55831  1.0000
  H   H373      1.0  0.21235  0.71787  0.71107  1.0000
  C   C451      1.0  0.07888  0.69595  0.66251  1.0000
  H   H374      1.0  0.01290  0.71851  0.65188  1.0000
  H   H375      1.0  0.22404  0.75926  0.84009  1.0000
  C   C452      1.0  0.24392  0.78730  0.73246  1.0000
  C   C453      1.0  0.10718  0.79329  0.63865  1.0000
  C   C454      1.0  0.15643  0.78425  0.79822  1.0000
  C   C455      1.0  0.14173  0.77366  0.81595  1.0000
  C   C456      1.0  0.14818  0.77534  0.84040  1.0000
  C   C457      1.0  0.16970  0.78719  0.84703  1.0000
  C   C458      1.0  0.18452  0.79794  0.82920  1.0000
  C   C459      1.0  0.17778  0.79618  0.80475  1.0000
  P   P15       1.0  0.21365  0.81101  0.83662  1.0000
  C   C460      1.0  0.21952  0.81039  0.86887  1.0000
  C   C461      1.0  0.00066  0.76397  0.60562  1.0000
  C   C462      1.0  0.22239  0.55388  0.83309  1.0000
  C   C463      1.0  0.09473  0.81176  0.77123  1.0000
  H   H376      1.0  0.02420  0.65530  0.63548  1.0000
  C   C464      1.0  0.03208  0.73740  0.79854  1.0000
  C   C465      1.0  0.15317  0.78254  0.51587  1.0000
  H   H377      1.0  0.24629  0.65674  0.65470  1.0000
  H   H378      1.0  0.18366  0.83467  0.52931  1.0000
  H   H379      1.0  0.03694  0.69939  0.80830  1.0000
  H   H380      1.0  0.10400  0.82616  0.76132  1.0000
  H   H381      1.0  0.05943  0.71804  0.85732  1.0000
  C   C466      1.0  0.21605  0.84239  0.82683  1.0000
  C   C467      1.0  0.19758  0.85386  0.81324  1.0000
  C   C468      1.0  0.20069  0.87774  0.80474  1.0000
  C   C469      1.0  0.21398  0.67445  0.66788  1.0000
  C   C470      1.0  0.03146  0.71275  0.65475  1.0000
  C   C471      1.0  0.00654  0.76690  0.71656  1.0000
  H   H382      1.0  0.15156  0.78282  0.77929  1.0000
  H   H383      1.0  0.12573  0.76370  0.81049  1.0000
  H   H384      1.0  0.13710  0.76659  0.85413  1.0000
  H   H385      1.0  0.17505  0.78711  0.86589  1.0000
  H   H386      1.0  0.18923  0.80374  0.79062  1.0000
  C   C472      1.0  0.24088  0.75612  0.97529  1.0000
  S   S54       1.0  0.12469  0.66041  0.51864  1.0000
  H   H387      1.0  0.08342  0.79314  0.73896  1.0000
  H   H388      1.0  0.20492  0.74071  0.97600  1.0000
  H   H389      1.0  0.16431  0.50062  0.51736  1.0000
  P   P16       1.0  0.05995  0.74742  0.81257  1.0000
  H   H390      1.0  0.02091  0.77360  0.78699  1.0000
  C   C473      1.0  0.15838  0.80481  0.52685  1.0000
  C   C474      1.0  0.09506  0.81138  0.79655  1.0000
  C   C475      1.0  0.17861  0.70409  0.54711  1.0000
  H   H391      1.0  0.18089  0.84451  0.80888  1.0000
  H   H392      1.0  0.18671  0.88629  0.79369  1.0000
  C   C476      1.0  0.03567  0.69276  0.67005  1.0000
  H   H393      1.0  0.17897  0.70707  0.56652  1.0000
  H   H394      1.0  0.02926  0.76777  0.90886  1.0000
  P   P17       1.0  0.04637  0.75224  0.62555  1.0000
  C   C477      1.0  0.05562  0.74713  0.59455  1.0000
  H   H395      1.0  0.22039  0.82566  0.68247  1.0000
  H   H396      1.0  0.14283  0.54064  0.51891  1.0000
  H   H397      1.0  0.11151  0.82451  0.66160  1.0000
  C   C478      1.0  0.03005  0.64830  0.50860  1.0000
  C   C479      1.0  0.08389  0.79229  0.80928  1.0000
  C   C480      1.0  0.22204  0.89044  0.81002  1.0000
  C   C481      1.0  0.05678  0.76702  0.57839  1.0000
  C   C482      1.0  0.06458  0.76373  0.55451  1.0000
  C   C483      1.0  0.07153  0.74061  0.54667  1.0000
  C   C484      1.0  0.07075  0.72082  0.56269  1.0000
  C   C485      1.0  0.06285  0.72398  0.58658  1.0000
  C   C486      1.0  0.06648  0.77582  0.63683  1.0000
  H   H398      1.0  0.01531  0.71014  0.57493  1.0000
  H   H399      1.0  0.08526  0.79178  0.82884  1.0000
  C   C487      1.0  0.09886  0.81130  0.65432  1.0000
  C   C488      1.0  0.05266  0.73609  0.86144  1.0000
  H   H400      1.0  0.21606  0.79880  0.75716  1.0000
  C   C489      1.0  0.08568  0.71000  0.79039  1.0000
  H   H401      1.0  0.05182  0.78511  0.58439  1.0000
  H   H402      1.0  0.06553  0.77915  0.54217  1.0000
  C   C490      1.0  0.22380  0.84639  0.71530  1.0000
  H   H403      1.0  0.10133  0.73517  0.84444  1.0000
  H   H404      1.0  0.07575  0.50505  0.50099  1.0000
  H   H405      1.0  0.09818  0.76179  0.61801  1.0000
  S   S55       1.0  0.05518  0.66749  0.51181  1.0000
  H   H406      1.0  0.03955  0.79523  0.65819  1.0000
  H   H407      1.0  0.06377  0.75932  0.76119  1.0000
  S   S56       1.0  0.14663  0.60426  0.51815  1.0000
  H   H408      1.0  0.13923  0.68127  0.80305  1.0000
  C   C491      1.0  0.07197  0.77404  0.77126  1.0000
  C   C492      1.0  0.12350  0.69300  0.80552  1.0000
  H   H409      1.0  0.10735  0.68368  0.77124  1.0000
  H   H410      1.0  0.13680  0.77281  0.52103  1.0000
  H   H411      1.0  0.01359  0.76310  0.66606  1.0000
  C   C493      1.0  0.17152  0.71926  0.50614  1.0000
  H   H412      1.0  0.02055  0.68395  0.67910  1.0000
  C   C494      1.0  0.24371  0.79733  0.90360  1.0000
  C   C495      1.0  0.24019  0.87936  0.82404  1.0000
  C   C496      1.0  0.00357  0.76593  0.64934  1.0000
  C   C497      1.0  0.24546  0.70057  0.69825  1.0000
  H   H413      1.0  0.00603  0.73735  0.54028  1.0000
  C   C498      1.0  0.00276  0.70541  0.79033  1.0000
  H   H414      1.0  0.00827  0.75992  0.58807  1.0000
  C   C499      1.0  0.23906  0.67012  0.66711  1.0000
  C   C500      1.0  0.22817  0.81002  0.91907  1.0000
  C   C501      1.0  0.22711  0.57869  0.83618  1.0000
  C   C502      1.0  0.03369  0.62317  0.50708  1.0000
  C   C503      1.0  0.21834  0.75110  0.98590  1.0000
  H   H415      1.0  0.18676  0.65894  0.50602  1.0000
  C   C504      1.0  0.01397  0.60773  0.50307  1.0000
  H   H416      1.0  0.21571  0.59228  0.82735  1.0000
  H   H417      1.0  0.01688  0.58832  0.50169  1.0000
  C   C505      1.0  0.23710  0.53636  0.84452  1.0000
  H   H418      1.0  0.23303  0.51730  0.84192  1.0000
  C   C506      1.0  0.19563  0.80779  0.50367  1.0000
  H   H419      1.0  0.24509  0.74936  0.95735  1.0000
  C   C507      1.0  0.24653  0.58603  0.85073  1.0000
  H   H420      1.0  0.24858  0.80565  0.72689  1.0000
  C   C508      1.0  0.26978  0.33689  0.22596  1.0000
  S   S57       1.0  0.29934  0.29875  0.09195  1.0000
  H   H421      1.0  0.38620  0.00150  0.26712  1.0000
  H   H422      1.0  0.34633  0.41993  0.06742  1.0000
  S   S58       1.0  0.28290  0.32326  0.14336  1.0000
  Fe  Fe28      1.0  0.29749  0.33635  0.10776  1.0000
  S   S59       1.0  0.33093  0.35965  0.10122  1.0000
  Fe  Fe29      1.0  0.28170  0.28594  0.12690  1.0000
  S   S60       1.0  0.29533  0.26080  0.15721  1.0000
  S   S61       1.0  0.46027  0.10017  0.45120  1.0000
  C   C509      1.0  0.48867  0.48757  0.02770  1.0000
  C   C510      1.0  0.37362  0.02654  0.18137  1.0000
  S   S62       1.0  0.34619  0.46514  0.14495  1.0000
  S   S63       1.0  0.41480  0.47250  0.12231  1.0000
  Fe  Fe30      1.0  0.28654  0.13317  0.22247  1.0000
  S   S64       1.0  0.30360  0.15028  0.25526  1.0000
  S   S65       1.0  0.28250  0.14856  0.18427  1.0000
  Fe  Fe31      1.0  0.27152  0.08687  0.25043  1.0000
  S   S66       1.0  0.28633  0.10090  0.28547  1.0000
  H   H423      1.0  0.46681  0.15011  0.48884  1.0000
  Fe  Fe32      1.0  0.26996  0.13699  0.27458  1.0000
  Fe  Fe33      1.0  0.31854  0.11284  0.26350  1.0000
  S   S67       1.0  0.35569  0.09940  0.27562  1.0000
  H   H424      1.0  0.35127  0.31152  0.01111  1.0000
  S   S68       1.0  0.30448  0.09674  0.22877  1.0000
  Fe  Fe34      1.0  0.45808  0.12877  0.36342  1.0000
  S   S69       1.0  0.42878  0.15287  0.34678  1.0000
  S   S70       1.0  0.44627  0.09506  0.38315  1.0000
  C   C511      1.0  0.37578  0.11560  0.29457  1.0000
  C   C512      1.0  0.39776  0.10441  0.30115  1.0000
  C   C513      1.0  0.41397  0.11562  0.31721  1.0000
  C   C514      1.0  0.40865  0.13866  0.32634  1.0000
  C   C515      1.0  0.38699  0.15041  0.31913  1.0000
  C   C516      1.0  0.37047  0.13883  0.30337  1.0000
  H   H425      1.0  0.40191  0.08659  0.29430  1.0000
  H   H426      1.0  0.43063  0.10644  0.32247  1.0000
  H   H427      1.0  0.38286  0.16834  0.32600  1.0000
  H   H428      1.0  0.35366  0.14776  0.29817  1.0000
  C   C517      1.0  0.27630  0.40966  0.18979  1.0000
  H   H429      1.0  0.25755  0.39295  0.06655  1.0000
  H   H430      1.0  0.28382  0.08394  0.39852  1.0000
  H   H431      1.0  0.37910  0.01347  0.16781  1.0000
  H   H432      1.0  0.39018  0.35882  0.05075  1.0000
  H   H433      1.0  0.43941  0.39658  0.09747  1.0000
  H   H434      1.0  0.48003  0.35838  0.02823  1.0000
  C   C518      1.0  0.26924  0.02344  0.25214  1.0000
  C   C519      1.0  0.29434  0.02429  0.25612  1.0000
  C   C520      1.0  0.31246  0.39778  0.30263  1.0000
  H   H435      1.0  0.30353  0.04170  0.25646  1.0000
  H   H436      1.0  0.48194  0.05496  0.45659  1.0000
  C   C521      1.0  0.33452  0.38899  0.11344  1.0000
  C   C522      1.0  0.35697  0.40079  0.11062  1.0000
  C   C523      1.0  0.36046  0.42443  0.11953  1.0000
  C   C524      1.0  0.34176  0.43611  0.13212  1.0000
  C   C525      1.0  0.31941  0.42412  0.13530  1.0000
  C   C526      1.0  0.31567  0.40074  0.12568  1.0000
  H   H437      1.0  0.37163  0.39175  0.10123  1.0000
  H   H438      1.0  0.37777  0.43338  0.11703  1.0000
  H   H439      1.0  0.30490  0.43303  0.14509  1.0000
  H   H440      1.0  0.29827  0.39181  0.12773  1.0000
  C   C527      1.0  0.29071  0.22963  0.16430  1.0000
  C   C528      1.0  0.29627  0.22137  0.18785  1.0000
  C   C529      1.0  0.29354  0.19667  0.19433  1.0000
  C   C530      1.0  0.28542  0.17993  0.17719  1.0000
  C   C531      1.0  0.27996  0.18814  0.15360  1.0000
  C   C532      1.0  0.28247  0.21292  0.14716  1.0000
  H   H441      1.0  0.30284  0.23412  0.20117  1.0000
  H   H442      1.0  0.29809  0.19053  0.21244  1.0000
  C   C533      1.0  0.26244  0.02351  0.35085  1.0000
  H   H443      1.0  0.27853  0.21897  0.12887  1.0000
  H   H444      1.0  0.43839  0.47621  0.00343  1.0000
  C   C534      1.0  0.27774  0.28370  0.00984  1.0000
  S   S71       1.0  0.48192  0.14159  0.39414  1.0000
  H   H445      1.0  0.29347  0.42761  0.00667  1.0000
  H   H446      1.0  0.28576  0.27563  0.02592  1.0000
  C   C535      1.0  0.37946  0.36395  0.26703  1.0000
  C   C536      1.0  0.35998  0.35462  0.28047  1.0000
  C   C537      1.0  0.33754  0.35069  0.26924  1.0000
  C   C538      1.0  0.33452  0.35624  0.24466  1.0000
  C   C539      1.0  0.35409  0.36522  0.23091  1.0000
  C   C540      1.0  0.37660  0.36914  0.24231  1.0000
  P   P18       1.0  0.35021  0.37034  0.19873  1.0000
  C   C541      1.0  0.34966  0.34156  0.18298  1.0000
  C   C542      1.0  0.32145  0.38599  0.19481  1.0000
  C   C543      1.0  0.30322  0.37619  0.18000  1.0000
  C   C544      1.0  0.28066  0.38785  0.17768  1.0000
  C   C545      1.0  0.28735  0.39228  0.26700  1.0000
  C   C546      1.0  0.29437  0.41961  0.20455  1.0000
  C   C547      1.0  0.31670  0.40760  0.20742  1.0000
  C   C548      1.0  0.35447  0.34112  0.15801  1.0000
  C   C549      1.0  0.35308  0.31928  0.14523  1.0000
  C   C550      1.0  0.34675  0.29773  0.15722  1.0000
  C   C551      1.0  0.34198  0.29795  0.18207  1.0000
  C   C552      1.0  0.34348  0.31972  0.19497  1.0000
  C   C553      1.0  0.37538  0.38796  0.18672  1.0000
  C   C554      1.0  0.39792  0.37647  0.18276  1.0000
  C   C555      1.0  0.41770  0.38973  0.17368  1.0000
  C   C556      1.0  0.41515  0.41457  0.16851  1.0000
  C   C557      1.0  0.39283  0.42609  0.17229  1.0000
  C   C558      1.0  0.37295  0.41287  0.18114  1.0000
  H   H447      1.0  0.39690  0.36694  0.27572  1.0000
  H   H448      1.0  0.36231  0.35033  0.29954  1.0000
  H   H449      1.0  0.32244  0.34331  0.27957  1.0000
  H   H450      1.0  0.31704  0.35307  0.23622  1.0000
  H   H451      1.0  0.39201  0.37613  0.23229  1.0000
  H   H452      1.0  0.30646  0.35974  0.16993  1.0000
  C   C559      1.0  0.27281  0.37549  0.27964  1.0000
  C   C560      1.0  0.44162  0.18021  0.49006  1.0000
  H   H453      1.0  0.31804  0.41662  0.26869  1.0000
  H   H454      1.0  0.33047  0.41540  0.21906  1.0000
  H   H455      1.0  0.35878  0.35775  0.14823  1.0000
  H   H456      1.0  0.35624  0.31921  0.12584  1.0000
  H   H457      1.0  0.34498  0.28093  0.14717  1.0000
  H   H458      1.0  0.33655  0.28120  0.19112  1.0000
  H   H459      1.0  0.33945  0.31929  0.21409  1.0000
  H   H460      1.0  0.40019  0.35723  0.18669  1.0000
  H   H461      1.0  0.43499  0.38076  0.17062  1.0000
  H   H462      1.0  0.43038  0.42492  0.16144  1.0000
  H   H463      1.0  0.39071  0.44530  0.16796  1.0000
  H   H464      1.0  0.35578  0.42227  0.18304  1.0000
  Fe  Fe35      1.0  0.47842  0.07750  0.36556  1.0000
  H   H465      1.0  0.43394  0.12831  0.14052  1.0000
  H   H466      1.0  0.42062  0.04786  0.46758  1.0000
  H   H467      1.0  0.26670  0.38015  0.16609  1.0000
  S   S72       1.0  0.48860  0.11036  0.34329  1.0000
  H   H468      1.0  0.45912  0.00312  0.41623  1.0000
  C   C561      1.0  0.43729  0.11443  0.15421  1.0000
  C   C562      1.0  0.34872  0.42628  0.02882  1.0000
  H   H469      1.0  0.32423  0.45799  0.07587  1.0000
  H   H470      1.0  0.28956  0.27875  0.21756  1.0000
  C   C563      1.0  0.30696  0.40356  0.27852  1.0000
  H   H471      1.0  0.28665  0.31827  0.19604  1.0000
  H   H472      1.0  0.39523  0.43738  0.04754  1.0000
  C   C564      1.0  0.36622  0.04231  0.31712  1.0000
  C   C565      1.0  0.34166  0.43198  0.05255  1.0000
  H   H473      1.0  0.48581  0.43258  0.99979  1.0000
  C   C566      1.0  0.41097  0.48780  0.02878  1.0000
  C   C567      1.0  0.38758  0.49736  0.03134  1.0000
  H   H474      1.0  0.30087  0.05859  0.31691  1.0000
  C   C568      1.0  0.48964  0.01669  0.46161  1.0000
  H   H475      1.0  0.47197  0.10387  0.13938  1.0000
  C   C569      1.0  0.42026  0.48351  0.00561  1.0000
  C   C570      1.0  0.27381  0.29239  0.25065  1.0000
  C   C571      1.0  0.49118  0.35794  0.04445  1.0000
  H   H476      1.0  0.28355  0.39654  0.24821  1.0000
  C   C572      1.0  0.29850  0.38051  0.31514  1.0000
  C   C573      1.0  0.27885  0.36923  0.30364  1.0000
  H   H477      1.0  0.25905  0.41897  0.18745  1.0000
  H   H478      1.0  0.43551  0.02203  0.38301  1.0000
  Fe  Fe36      1.0  0.26124  0.30669  0.07863  1.0000
  C   C574      1.0  0.25254  0.37587  0.03187  1.0000
  S   S73       1.0  0.47293  0.04033  0.34934  1.0000
  C   C575      1.0  0.41842  0.41916  0.07315  1.0000
  C   C576      1.0  0.32963  0.46377  0.01461  1.0000
  C   C577      1.0  0.48079  0.10538  0.47520  1.0000
  H   H479      1.0  0.43758  0.22446  0.44633  1.0000
  C   C578      1.0  0.44070  0.02310  0.44453  1.0000
  C   C579      1.0  0.28204  0.41310  0.01341  1.0000
  C   C580      1.0  0.39054  0.39816  0.04624  1.0000
  H   H480      1.0  0.32769  0.40650  0.31154  1.0000
  H   H481      1.0  0.30292  0.37582  0.33375  1.0000
  H   H482      1.0  0.31558  0.01813  0.30519  1.0000
  S   S74       1.0  0.25222  0.12197  0.24149  1.0000
  C   C581      1.0  0.40091  0.41984  0.05477  1.0000
  H   H483      1.0  0.42135  0.35799  0.08264  1.0000
  H   H484      1.0  0.41653  0.13918  0.47479  1.0000
  C   C582      1.0  0.43187  0.02717  0.40155  1.0000
  H   H485      1.0  0.37459  0.34964  0.00585  1.0000
  C   C583      1.0  0.34439  0.32839  0.01855  1.0000
  C   C584      1.0  0.27354  0.04475  0.34176  1.0000
  C   C585      1.0  0.32291  0.46940  0.03835  1.0000
  C   C586      1.0  0.26086  0.33482  0.24974  1.0000
  H   H486      1.0  0.28355  0.42601  0.05020  1.0000
  C   C587      1.0  0.38272  0.05575  0.33083  1.0000
  H   H487      1.0  0.42583  0.43602  0.07993  1.0000
  H   H488      1.0  0.40446  0.05359  0.39182  1.0000
  C   C588      1.0  0.43351  0.20134  0.47790  1.0000
  H   H489      1.0  0.34735  0.17434  0.22590  1.0000
  C   C589      1.0  0.27636  0.41232  0.03811  1.0000
  C   C590      1.0  0.25746  0.00070  0.25213  1.0000
  H   H490      1.0  0.27399  0.17519  0.14018  1.0000
  C   C591      1.0  0.32898  0.45351  0.05733  1.0000
  C   C592      1.0  0.34387  0.04108  0.21014  1.0000
  C   C593      1.0  0.35949  0.06003  0.21658  1.0000
  C   C594      1.0  0.38211  0.06273  0.20507  1.0000
  C   C595      1.0  0.38922  0.04564  0.18761  1.0000
  P   P19       1.0  0.40235  0.08693  0.21416  1.0000
  C   C596      1.0  0.38472  0.11449  0.21847  1.0000
  C   C597      1.0  0.41881  0.07776  0.24119  1.0000
  C   C598      1.0  0.43902  0.09127  0.24902  1.0000
  C   C599      1.0  0.45236  0.08372  0.26938  1.0000
  C   C600      1.0  0.44598  0.06236  0.28176  1.0000
  C   C601      1.0  0.42617  0.04863  0.27380  1.0000
  C   C602      1.0  0.41250  0.05635  0.25379  1.0000
  C   C603      1.0  0.36464  0.11947  0.20336  1.0000
  C   C604      1.0  0.35134  0.14104  0.20597  1.0000
  C   C605      1.0  0.35790  0.15780  0.22370  1.0000
  C   C606      1.0  0.37768  0.15294  0.23894  1.0000
  C   C607      1.0  0.39111  0.13144  0.23630  1.0000
  C   C608      1.0  0.42436  0.09249  0.19043  1.0000
  C   C609      1.0  0.44587  0.07861  0.18954  1.0000
  C   C610      1.0  0.46297  0.08273  0.17120  1.0000
  H   H491      1.0  0.27505  0.27502  0.26008  1.0000
  H   H492      1.0  0.47955  0.07202  0.17068  1.0000
  C   C611      1.0  0.42015  0.11037  0.17253  1.0000
  H   H493      1.0  0.40510  0.09631  0.47043  1.0000
  H   H494      1.0  0.32622  0.03943  0.21872  1.0000
  H   H495      1.0  0.35392  0.07261  0.23056  1.0000
  H   H496      1.0  0.40672  0.04696  0.17876  1.0000
  H   H497      1.0  0.44435  0.10775  0.23950  1.0000
  C   C612      1.0  0.39349  0.00738  0.31869  1.0000
  H   H498      1.0  0.45607  0.05672  0.29779  1.0000
  H   H499      1.0  0.42093  0.03237  0.28353  1.0000
  H   H500      1.0  0.39692  0.04566  0.24846  1.0000
  H   H501      1.0  0.35918  0.10671  0.18953  1.0000
  H   H502      1.0  0.33572  0.14465  0.19442  1.0000
  H   H503      1.0  0.31245  0.31164  0.03403  1.0000
  H   H504      1.0  0.38233  0.16556  0.25321  1.0000
  H   H505      1.0  0.40592  0.12792  0.24874  1.0000
  H   H506      1.0  0.44940  0.06453  0.20298  1.0000
  C   C613      1.0  0.39817  0.37582  0.05639  1.0000
  H   H507      1.0  0.31345  0.48629  0.04211  1.0000
  H   H508      1.0  0.37863  0.07448  0.33536  1.0000
  H   H509      1.0  0.40372  0.12125  0.17259  1.0000
  C   C614      1.0  0.42350  0.04140  0.44936  1.0000
  C   C615      1.0  0.44891  0.02126  0.49753  1.0000
  C   C616      1.0  0.45870  0.10066  0.15356  1.0000
  H   H510      1.0  0.33872  0.00963  0.18771  1.0000
  C   C617      1.0  0.35744  0.35006  0.01550  1.0000
  C   C618      1.0  0.28207  0.29447  0.22677  1.0000
  C   C619      1.0  0.28031  0.31679  0.21457  1.0000
  S   S75       1.0  0.42865  0.48120  0.05438  1.0000
  H   H511      1.0  0.49630  0.42804  0.16088  1.0000
  C   C620      1.0  0.40471  0.04525  0.33825  1.0000
  H   H512      1.0  0.26486  0.12694  0.33726  1.0000
  C   C621      1.0  0.44405  0.20834  0.45582  1.0000
  C   C622      1.0  0.40991  0.02102  0.33259  1.0000
  C   C623      1.0  0.28715  0.09656  0.34962  1.0000
  C   C624      1.0  0.28280  0.12083  0.34256  1.0000
  C   C625      1.0  0.30193  0.13754  0.34136  1.0000
  C   C626      1.0  0.32553  0.13031  0.34755  1.0000
  C   C627      1.0  0.33004  0.10633  0.35496  1.0000
  C   C628      1.0  0.31094  0.08952  0.35612  1.0000
  H   H513      1.0  0.46343  0.45255  0.14193  1.0000
  H   H514      1.0  0.42671  0.01306  0.33917  1.0000
  C   C629      1.0  0.41439  0.04495  0.40652  1.0000
  H   H515      1.0  0.26846  0.35394  0.21609  1.0000
  Fe  Fe37      1.0  0.47237  0.10617  0.41236  1.0000
  P   P20       1.0  0.45836  0.00927  0.46858  1.0000
  H   H516      1.0  0.29840  0.15602  0.33512  1.0000
  H   H517      1.0  0.34037  0.14325  0.34638  1.0000
  H   H518      1.0  0.34844  0.10079  0.35949  1.0000
  H   H519      1.0  0.31481  0.07100  0.36184  1.0000
  C   C630      1.0  0.26352  0.31254  0.26222  1.0000
  C   C631      1.0  0.37140  0.01807  0.31136  1.0000
  C   C632      1.0  0.41450  0.12804  0.49097  1.0000
  C   C633      1.0  0.46048  0.16647  0.47986  1.0000
  C   C634      1.0  0.46266  0.19432  0.44571  1.0000
  C   C635      1.0  0.47472  0.44472  0.10542  1.0000
  H   H520      1.0  0.41785  0.05593  0.34826  1.0000
  H   H521      1.0  0.47265  0.45318  0.03747  1.0000
  H   H522      1.0  0.32023  0.38774  0.04745  1.0000
  C   C636      1.0  0.26510  0.07838  0.40089  1.0000
  H   H523      1.0  0.32549  0.47635  0.99991  1.0000
  H   H524      1.0  0.47056  0.19945  0.42840  1.0000
  C   C637      1.0  0.44520  0.01648  0.42043  1.0000
  C   C638      1.0  0.47092  0.17343  0.45779  1.0000
  C   C639      1.0  0.41038  0.05224  0.43037  1.0000
  C   C640      1.0  0.41589  0.37524  0.07464  1.0000
  H   H525      1.0  0.34953  0.05085  0.31080  1.0000
  C   C641      1.0  0.29258  0.04259  0.32497  1.0000
  C   C642      1.0  0.42599  0.39693  0.08305  1.0000
  H   H526      1.0  0.46065  0.45590  0.09714  1.0000
  H   H527      1.0  0.39754  0.06672  0.43404  1.0000
  H   H528      1.0  0.29701  0.34982  0.05166  1.0000
  H   H529      1.0  0.46747  0.09460  0.27579  1.0000
  P   P21       1.0  0.36691  0.39935  0.02335  1.0000
  C   C643      1.0  0.31369  0.35001  0.04122  1.0000
  C   C644      1.0  0.32249  0.32840  0.03136  1.0000
  C   C645      1.0  0.48848  0.01793  0.36620  1.0000
  C   C646      1.0  0.25561  0.07673  0.42437  1.0000
  C   C647      1.0  0.34872  0.37193  0.02540  1.0000
  C   C648      1.0  0.32687  0.37162  0.03855  1.0000
  C   C649      1.0  0.40766  0.10367  0.48842  1.0000
  H   H530      1.0  0.41887  0.21228  0.48510  1.0000
  H   H531      1.0  0.26845  0.35562  0.31347  1.0000
  C   C650      1.0  0.34274  0.44247  0.00987  1.0000
  H   H532      1.0  0.29112  0.43675  0.21361  1.0000
  C   C651      1.0  0.48334  0.46296  0.02411  1.0000
  C   C652      1.0  0.49222  0.33680  0.05872  1.0000
  H   H533      1.0  0.48516  0.16238  0.44985  1.0000
  S   S76       1.0  0.25224  0.05046  0.24713  1.0000
  S   S77       1.0  0.25117  0.16275  0.30045  1.0000
  H   H534      1.0  0.26029  0.18450  0.23729  1.0000
  P   P22       1.0  0.26259  0.07454  0.35043  1.0000
  C   C653      1.0  0.30087  0.01962  0.31804  1.0000
  H   H535      1.0  0.48204  0.32078  0.05346  1.0000
  Fe  Fe38      1.0  0.37800  0.48772  0.13138  1.0000
  H   H536      1.0  0.49070  0.43511  0.07143  1.0000
  C   C654      1.0  0.25782  0.29946  0.01204  1.0000
  C   C655      1.0  0.26170  0.39368  0.04735  1.0000
  S   S78       1.0  0.26039  0.34485  0.09317  1.0000
  C   C656      1.0  0.49206  0.43332  0.09089  1.0000
  Fe  Fe39      1.0  0.41176  0.49534  0.08863  1.0000
  C   C657      1.0  0.25792  0.37679  0.00712  1.0000
  C   C658      1.0  0.35091  0.02433  0.19257  1.0000
  H   H537      1.0  0.25729  0.31056  0.28075  1.0000
  H   H538      1.0  0.26699  0.08108  0.43977  1.0000
  C   C659      1.0  0.47626  0.44280  0.13064  1.0000
  H   H539      1.0  0.32700  0.00345  0.26298  1.0000
  C   C660      1.0  0.27284  0.39534  0.99772  1.0000
  C   C661      1.0  0.49582  0.04100  0.45660  1.0000
  H   H540      1.0  0.40879  0.42691  0.00473  1.0000
  C   C662      1.0  0.25040  0.07301  0.38080  1.0000
  C   C663      1.0  0.27048  0.00053  0.34341  1.0000
  H   H541      1.0  0.35814  0.00760  0.30133  1.0000
  H   H542      1.0  0.48215  0.49624  0.04403  1.0000
  C   C664      1.0  0.49496  0.42917  0.14131  1.0000
  C   C665      1.0  0.30756  0.00261  0.25993  1.0000
  C   C666      1.0  0.49105  0.49948  0.11936  1.0000
  C   C667      1.0  0.49043  0.45149  0.00275  1.0000
  H   H543      1.0  0.47388  0.50031  0.10985  1.0000
  Fe  Fe40      1.0  0.29174  0.29217  0.84596  1.0000
  C   C668      1.0  0.47161  0.17255  0.54183  1.0000
  S   S79       1.0  0.31364  0.27452  0.81588  1.0000
  Fe  Fe41      1.0  0.27715  0.34092  0.86866  1.0000
  C   C669      1.0  0.30231  0.31430  0.56200  1.0000
  S   S80       1.0  0.28054  0.38219  0.87154  1.0000
  Fe  Fe42      1.0  0.27744  0.29488  0.89986  1.0000
  S   S81       1.0  0.28807  0.27876  0.93679  1.0000
  C   C670      1.0  0.25976  0.31079  0.55089  1.0000
  S   S82       1.0  0.30643  0.31358  0.87751  1.0000
  S   S83       1.0  0.26492  0.32137  0.83505  1.0000
  Fe  Fe43      1.0  0.39207  0.47106  0.88303  1.0000
  S   S84       1.0  0.38287  0.43523  0.86529  1.0000
  S   S85       1.0  0.40861  0.46798  0.91989  1.0000
  Fe  Fe44      1.0  0.28949  0.10213  0.73099  1.0000
  S   S86       1.0  0.30066  0.11890  0.69533  1.0000
  H   H544      1.0  0.35271  0.38047  0.97551  1.0000
  Fe  Fe45      1.0  0.31148  0.14475  0.75956  1.0000
  S   S87       1.0  0.32551  0.16329  0.72597  1.0000
  S   S88       1.0  0.31457  0.15994  0.79771  1.0000
  Fe  Fe46      1.0  0.28822  0.15476  0.71082  1.0000
  Fe  Fe47      1.0  0.33666  0.12581  0.71367  1.0000
  S   S89       1.0  0.37050  0.10934  0.69605  1.0000
  S   S90       1.0  0.27393  0.13756  0.74493  1.0000
  S   S91       1.0  0.32568  0.10772  0.74881  1.0000
  C   C671      1.0  0.26717  0.01599  0.73378  1.0000
  S   S92       1.0  0.46513  0.15391  0.64648  1.0000
  S   S93       1.0  0.47651  0.11250  0.58992  1.0000
  H   H545      1.0  0.31408  0.05289  0.59823  1.0000
  C   C672      1.0  0.32722  0.33308  0.94022  1.0000
  C   C673      1.0  0.43804  0.14217  0.65925  1.0000
  C   C674      1.0  0.42281  0.15717  0.67320  1.0000
  C   C675      1.0  0.40174  0.14763  0.68438  1.0000
  C   C676      1.0  0.39593  0.12298  0.68173  1.0000
  C   C677      1.0  0.41069  0.10835  0.66701  1.0000
  C   C678      1.0  0.43165  0.11784  0.65590  1.0000
  H   H546      1.0  0.42758  0.17609  0.67574  1.0000
  H   H547      1.0  0.39037  0.15914  0.69549  1.0000
  H   H548      1.0  0.40583  0.08958  0.66400  1.0000
  H   H549      1.0  0.44302  0.10630  0.64484  1.0000
  H   H550      1.0  0.32140  0.31302  0.55722  1.0000
  C   C679      1.0  0.41412  0.36258  0.87822  1.0000
  C   C680      1.0  0.29823  0.37205  0.95614  1.0000
  H   H551      1.0  0.30942  0.32540  0.59870  1.0000
  H   H552      1.0  0.49584  0.01049  0.79875  1.0000
  C   C681      1.0  0.28058  0.03726  0.73864  1.0000
  C   C682      1.0  0.30337  0.03496  0.74975  1.0000
  H   H553      1.0  0.27713  0.48661  0.95465  1.0000
  H   H554      1.0  0.31389  0.05109  0.75364  1.0000
  H   H555      1.0  0.34852  0.43907  0.99150  1.0000
  C   C683      1.0  0.31475  0.24256  0.81163  1.0000
  C   C684      1.0  0.30761  0.22612  0.82978  1.0000
  C   C685      1.0  0.30861  0.20084  0.82556  1.0000
  C   C686      1.0  0.31579  0.19178  0.80291  1.0000
  C   C687      1.0  0.32346  0.20819  0.78497  1.0000
  C   C688      1.0  0.32326  0.23344  0.78946  1.0000
  H   H556      1.0  0.30135  0.23286  0.84706  1.0000
  H   H557      1.0  0.30331  0.18824  0.83970  1.0000
  H   H558      1.0  0.32937  0.20147  0.76758  1.0000
  H   H559      1.0  0.32905  0.24600  0.77541  1.0000
  C   C689      1.0  0.27612  0.28734  0.96548  1.0000
  H   H560      1.0  0.36957  0.38667  0.93457  1.0000
  H   H561      1.0  0.31181  0.18898  0.66140  1.0000
  H   H562      1.0  0.37538  0.16023  0.50532  1.0000
  H   H563      1.0  0.28623  0.08092  0.53085  1.0000
  C   C690      1.0  0.30942  0.39628  0.87176  1.0000
  C   C691      1.0  0.31155  0.42067  0.87913  1.0000
  C   C692      1.0  0.33425  0.43256  0.87854  1.0000
  C   C693      1.0  0.35481  0.42026  0.87003  1.0000
  C   C694      1.0  0.35281  0.39566  0.86371  1.0000
  C   C695      1.0  0.33027  0.38365  0.86464  1.0000
  H   H564      1.0  0.29559  0.43042  0.88520  1.0000
  H   H565      1.0  0.33575  0.45134  0.88403  1.0000
  H   H566      1.0  0.36872  0.38599  0.85761  1.0000
  H   H567      1.0  0.32889  0.36483  0.85912  1.0000
  C   C696      1.0  0.29923  0.06441  0.56400  1.0000
  H   H568      1.0  0.28973  0.12607  0.62141  1.0000
  C   C697      1.0  0.25950  0.21752  0.90728  1.0000
  C   C698      1.0  0.31698  0.33249  0.96334  1.0000
  H   H569      1.0  0.40571  0.41288  0.92841  1.0000
  C   C699      1.0  0.37602  0.00829  0.73443  1.0000
  C   C700      1.0  0.29195  0.42618  0.95763  1.0000
  C   C701      1.0  0.41910  0.13763  0.51405  1.0000
  C   C702      1.0  0.29537  0.08391  0.54798  1.0000
  C   C703      1.0  0.30878  0.37250  0.93297  1.0000
  H   H570      1.0  0.33749  0.31755  0.93376  1.0000
  P   P23       1.0  0.27872  0.39695  0.96552  1.0000
  H   H571      1.0  0.33807  0.18438  0.51148  1.0000
  C   C704      1.0  0.29557  0.32130  0.58534  1.0000
  H   H572      1.0  0.48025  0.04445  0.50275  1.0000
  C   C705      1.0  0.32334  0.35323  0.92514  1.0000
  C   C706      1.0  0.44549  0.02263  0.65475  1.0000
  C   C707      1.0  0.31240  0.01174  0.75625  1.0000
  C   C708      1.0  0.27094  0.32311  0.59148  1.0000
  H   H573      1.0  0.26635  0.17958  0.85938  1.0000
  H   H574      1.0  0.43181  0.40817  0.84012  1.0000
  C   C709      1.0  0.42426  0.38465  0.87054  1.0000
  C   C710      1.0  0.40615  0.48899  0.98510  1.0000
  H   H575      1.0  0.43190  0.07337  0.74941  1.0000
  H   H576      1.0  0.25901  0.44665  0.96474  1.0000
  S   S94       1.0  0.47083  0.04213  0.59856  1.0000
  H   H577      1.0  0.26229  0.19095  0.79842  1.0000
  H   H578      1.0  0.32696  0.39842  0.80663  1.0000
  C   C711      1.0  0.38266  0.49845  0.98783  1.0000
  C   C712      1.0  0.48731  0.01967  0.61430  1.0000
  H   H579      1.0  0.40779  0.08651  0.54776  1.0000
  C   C713      1.0  0.26451  0.22466  0.77886  1.0000
  C   C714      1.0  0.40046  0.41739  0.98976  1.0000
  C   C715      1.0  0.41943  0.02215  0.53040  1.0000
  H   H580      1.0  0.27806  0.21788  0.76636  1.0000
  C   C716      1.0  0.41657  0.12244  0.53451  1.0000
  C   C717      1.0  0.39918  0.18656  0.52229  1.0000
  C   C718      1.0  0.40027  0.20963  0.53307  1.0000
  C   C719      1.0  0.44441  0.04781  0.65770  1.0000
  C   C720      1.0  0.46339  0.03787  0.51023  1.0000
  H   H581      1.0  0.43276  0.03021  0.73727  1.0000
  C   C721      1.0  0.25820  0.19338  0.87072  1.0000
  H   H582      1.0  0.28633  0.19055  0.89788  1.0000
  C   C722      1.0  0.44113  0.01041  0.76987  1.0000
  C   C723      1.0  0.43552  0.17455  0.56695  1.0000
  S   S95       1.0  0.47431  0.48754  0.92144  1.0000
  H   H583      1.0  0.32826  0.41239  0.95057  1.0000
  H   H584      1.0  0.41375  0.35800  0.89734  1.0000
  C   C724      1.0  0.28442  0.30906  0.54479  1.0000
  C   C725      1.0  0.31656  0.42814  0.95096  1.0000
  C   C726      1.0  0.44663  0.02623  0.75068  1.0000
  C   C727      1.0  0.26952  0.19948  0.89257  1.0000
  C   C728      1.0  0.37901  0.22323  0.53650  1.0000
  H   H585      1.0  0.45307  0.07794  0.68032  1.0000
  S   S96       1.0  0.26840  0.06619  0.73010  1.0000
  C   C729      1.0  0.25502  0.20923  0.79679  1.0000
  H   H586      1.0  0.42011  0.12925  0.55247  1.0000
  C   C730      1.0  0.38016  0.40230  0.99347  1.0000
  C   C731      1.0  0.39522  0.02165  0.69717  1.0000
  C   C732      1.0  0.25284  0.31781  0.57432  1.0000
  C   C733      1.0  0.29844  0.15883  0.64048  1.0000
  C   C734      1.0  0.27779  0.44748  0.95899  1.0000
  H   H587      1.0  0.34587  0.47538  0.84046  1.0000
  H   H588      1.0  0.38224  0.07003  0.73326  1.0000
  H   H589      1.0  0.41758  0.21711  0.53879  1.0000
  H   H590      1.0  0.41596  0.17405  0.56918  1.0000
  C   C735      1.0  0.46570  0.01845  0.69353  1.0000
  C   C736      1.0  0.39875  0.40974  0.94657  1.0000
  H   H591      1.0  0.30533  0.38761  0.92074  1.0000
  C   C737      1.0  0.42452  0.39073  0.84591  1.0000
  C   C738      1.0  0.38373  0.05121  0.72752  1.0000
  H   H592      1.0  0.42892  0.14930  0.73138  1.0000
  S   S97       1.0  0.26952  0.18724  0.69240  1.0000
  H   H593      1.0  0.29314  0.04629  0.55926  1.0000
  C   C739      1.0  0.47545  0.17729  0.58529  1.0000
  H   H594      1.0  0.26521  0.26113  0.76420  1.0000
  H   H595      1.0  0.42894  0.04465  0.56089  1.0000
  C   C740      1.0  0.25714  0.24900  0.77751  1.0000
  C   C741      1.0  0.40973  0.42102  0.96640  1.0000
  H   H596      1.0  0.36640  0.03672  0.75947  1.0000
  H   H597      1.0  0.33095  0.35360  0.90705  1.0000
  H   H598      1.0  0.48151  0.10303  0.53706  1.0000
  C   C742      1.0  0.32653  0.45075  0.94485  1.0000
  C   C743      1.0  0.45615  0.04623  0.53299  1.0000
  H   H599      1.0  0.43148  0.39736  0.88364  1.0000
  H   H600      1.0  0.34552  0.45215  0.93959  1.0000
  C   C744      1.0  0.39416  0.04577  0.70515  1.0000
  H   H601      1.0  0.47458  0.00689  0.70687  1.0000
  H   H602      1.0  0.26553  0.48357  0.83847  1.0000
  C   C745      1.0  0.44017  0.08892  0.74065  1.0000
  C   C746      1.0  0.45371  0.05837  0.67864  1.0000
  Fe  Fe48      1.0  0.49051  0.07719  0.60496  1.0000
  H   H603      1.0  0.25500  0.49346  0.91529  1.0000
  P   P24       1.0  0.42684  0.16944  0.51741  1.0000
  H   H604      1.0  0.36846  0.38336  0.81366  1.0000
  C   C747      1.0  0.35658  0.21407  0.52887  1.0000
  S   S98       1.0  0.26540  0.27138  0.86872  1.0000
  H   H605      1.0  0.44194  0.17842  0.60533  1.0000
  H   H606      1.0  0.26860  0.22278  0.92390  1.0000
  C   C748      1.0  0.33970  0.16210  0.65538  1.0000
  C   C749      1.0  0.31632  0.17180  0.65292  1.0000
  C   C750      1.0  0.30404  0.13627  0.63020  1.0000
  C   C751      1.0  0.32773  0.12671  0.63204  1.0000
  C   C752      1.0  0.34529  0.13957  0.64516  1.0000
  P   P25       1.0  0.33435  0.09660  0.62077  1.0000
  C   C753      1.0  0.32382  0.07558  0.64382  1.0000
  C   C754      1.0  0.31862  0.09173  0.59255  1.0000
  C   C755      1.0  0.31515  0.11113  0.57616  1.0000
  C   C756      1.0  0.30341  0.10724  0.55402  1.0000
  C   C757      1.0  0.31096  0.06825  0.58615  1.0000
  C   C758      1.0  0.33999  0.06601  0.66120  1.0000
  C   C759      1.0  0.33160  0.04992  0.67910  1.0000
  C   C760      1.0  0.30705  0.04353  0.67996  1.0000
  C   C761      1.0  0.29068  0.05366  0.66331  1.0000
  C   C762      1.0  0.29898  0.06973  0.64535  1.0000
  C   C763      1.0  0.36609  0.09174  0.61349  1.0000
  C   C764      1.0  0.38115  0.11130  0.60668  1.0000
  C   C765      1.0  0.40567  0.10725  0.60116  1.0000
  C   C766      1.0  0.41505  0.08358  0.60137  1.0000
  C   C767      1.0  0.39996  0.06391  0.60705  1.0000
  C   C768      1.0  0.37555  0.06794  0.61303  1.0000
  H   H607      1.0  0.35329  0.17165  0.66588  1.0000
  H   H608      1.0  0.36316  0.13198  0.64800  1.0000
  H   H609      1.0  0.32154  0.12925  0.58047  1.0000
  H   H610      1.0  0.30057  0.12232  0.54153  1.0000
  H   H611      1.0  0.35893  0.07140  0.66136  1.0000
  H   H612      1.0  0.34392  0.04291  0.69278  1.0000
  H   H613      1.0  0.30058  0.03126  0.69398  1.0000
  H   H614      1.0  0.28964  0.30377  0.52664  1.0000
  H   H615      1.0  0.28596  0.07784  0.63294  1.0000
  H   H616      1.0  0.37416  0.12973  0.60590  1.0000
  H   H617      1.0  0.41756  0.12251  0.59721  1.0000
  C   C769      1.0  0.46411  0.04374  0.69685  1.0000
  C   C770      1.0  0.43418  0.03842  0.54306  1.0000
  H   H618      1.0  0.36410  0.05248  0.61740  1.0000
  H   H619      1.0  0.32972  0.01022  0.76542  1.0000
  C   C771      1.0  0.41150  0.32751  0.74394  1.0000
  C   C772      1.0  0.43686  0.32844  0.74589  1.0000
  C   C773      1.0  0.44776  0.33098  0.76862  1.0000
  C   C774      1.0  0.43333  0.33271  0.78941  1.0000
  C   C775      1.0  0.40783  0.33225  0.78754  1.0000
  C   C776      1.0  0.39702  0.32928  0.76469  1.0000
  P   P26       1.0  0.38934  0.33330  0.81453  1.0000
  C   C777      1.0  0.38533  0.30287  0.82673  1.0000
  C   C778      1.0  0.40376  0.35286  0.83652  1.0000
  C   C779      1.0  0.40391  0.34671  0.86131  1.0000
  C   C780      1.0  0.41441  0.37489  0.82895  1.0000
  C   C781      1.0  0.39967  0.28336  0.81859  1.0000
  C   C782      1.0  0.39525  0.25967  0.82706  1.0000
  C   C783      1.0  0.37662  0.25531  0.84376  1.0000
  C   C784      1.0  0.36261  0.27468  0.85228  1.0000
  C   C785      1.0  0.36684  0.29834  0.84373  1.0000
  C   C786      1.0  0.35966  0.34550  0.80677  1.0000
  C   C787      1.0  0.34112  0.32967  0.79933  1.0000
  C   C788      1.0  0.31756  0.33840  0.79517  1.0000
  C   C789      1.0  0.31240  0.36315  0.79792  1.0000
  C   C790      1.0  0.33098  0.37925  0.80423  1.0000
  C   C791      1.0  0.35458  0.37052  0.80846  1.0000
  H   H620      1.0  0.40304  0.32526  0.72636  1.0000
  H   H621      1.0  0.44806  0.32700  0.72980  1.0000
  H   H622      1.0  0.46743  0.33147  0.77016  1.0000
  H   H623      1.0  0.44208  0.33426  0.80694  1.0000
  H   H624      1.0  0.37743  0.32818  0.76283  1.0000
  H   H625      1.0  0.39586  0.32994  0.86778  1.0000
  H   H626      1.0  0.41430  0.38020  0.81000  1.0000
  H   H627      1.0  0.41389  0.28619  0.80533  1.0000
  H   H628      1.0  0.40588  0.24455  0.82026  1.0000
  H   H629      1.0  0.37262  0.23687  0.84969  1.0000
  H   H630      1.0  0.34763  0.27119  0.86461  1.0000
  H   H631      1.0  0.35514  0.31298  0.84979  1.0000
  H   H632      1.0  0.34472  0.31041  0.79715  1.0000
  H   H633      1.0  0.30321  0.32576  0.79038  1.0000
  H   H634      1.0  0.29396  0.36977  0.79543  1.0000
  H   H635      1.0  0.26598  0.32862  0.60965  1.0000
  C   C792      1.0  0.48616  0.17499  0.56248  1.0000
  H   H636      1.0  0.40100  0.06043  0.69388  1.0000
  H   H637      1.0  0.45617  0.09108  0.50201  1.0000
  H   H638      1.0  0.42513  0.43306  0.96360  1.0000
  H   H639      1.0  0.43703  0.05926  0.64344  1.0000
  H   H640      1.0  0.27147  0.04947  0.66482  1.0000
  H   H641      1.0  0.40739  0.04559  0.60716  1.0000
  H   H642      1.0  0.40302  0.01801  0.67969  1.0000
  C   C793      1.0  0.43833  0.13194  0.73064  1.0000
  C   C794      1.0  0.28795  0.47016  0.95328  1.0000
  H   H643      1.0  0.32017  0.48918  0.94153  1.0000
  H   H644      1.0  0.49490  0.00802  0.55184  1.0000
  C   C795      1.0  0.45999  0.12987  0.71758  1.0000
  C   C796      1.0  0.45014  0.17701  0.58752  1.0000
  H   H645      1.0  0.41119  0.11305  0.75160  1.0000
  H   H646      1.0  0.37997  0.24094  0.54499  1.0000
  C   C797      1.0  0.48209  0.01494  0.78533  1.0000
  C   C798      1.0  0.37839  0.39494  0.95005  1.0000
  H   H647      1.0  0.31943  0.31651  0.97470  1.0000
  C   C799      1.0  0.42837  0.11147  0.74206  1.0000
  H   H648      1.0  0.30184  0.26505  0.98522  1.0000
  C   C800      1.0  0.46203  0.08668  0.72763  1.0000
  H   H649      1.0  0.28002  0.16596  0.63966  1.0000
  Fe  Fe49      1.0  0.48902  0.12759  0.62559  1.0000
  H   H650      1.0  0.48810  0.10605  0.70506  1.0000
  H   H651      1.0  0.41359  0.48608  0.96730  1.0000
  C   C801      1.0  0.37478  0.03246  0.74222  1.0000
  H   H652      1.0  0.42307  0.00256  0.77131  1.0000
  C   C802      1.0  0.42682  0.01349  0.50777  1.0000
  C   C803      1.0  0.47178  0.10736  0.71601  1.0000
  H   H653      1.0  0.43409  0.08046  0.59730  1.0000
  C   C804      1.0  0.30261  0.35187  0.97138  1.0000
  H   H654      1.0  0.48675  0.17888  0.60134  1.0000
  C   C805      1.0  0.40513  0.08871  0.50886  1.0000
  C   C806      1.0  0.45637  0.00796  0.67252  1.0000
  C   C807      1.0  0.31222  0.47171  0.94595  1.0000
  H   H655      1.0  0.40025  0.06974  0.50679  1.0000
  C   C808      1.0  0.36901  0.39133  0.97337  1.0000
  H   H656      1.0  0.46773  0.05861  0.54298  1.0000
  C   C809      1.0  0.44611  0.17251  0.54385  1.0000
  C   C810      1.0  0.46981  0.03690  0.74885  1.0000
  C   C811      1.0  0.45885  0.00476  0.78720  1.0000
  P   P27       1.0  0.47645  0.05730  0.72380  1.0000
  H   H657      1.0  0.30800  0.47934  0.86370  1.0000
  C   C812      1.0  0.25101  0.45302  0.85816  1.0000
  H   H658      1.0  0.43864  0.01463  0.63826  1.0000
  H   H659      1.0  0.34012  0.22465  0.53147  1.0000
  H   H660      1.0  0.29465  0.35055  0.98922  1.0000
  C   C813      1.0  0.28671  0.27759  0.98670  1.0000
  C   C814      1.0  0.40954  0.09812  0.53191  1.0000
  H   H661      1.0  0.40251  0.01588  0.53830  1.0000
  H   H662      1.0  0.41541  0.00061  0.49828  1.0000
  H   H663      1.0  0.48052  0.17048  0.52452  1.0000
  C   C815      1.0  0.48759  0.03094  0.76622  1.0000
  C   C816      1.0  0.25955  0.47694  0.85603  1.0000
  C   C817      1.0  0.37664  0.17765  0.51428  1.0000
  H   H664      1.0  0.46728  0.14559  0.70802  1.0000
  C   C818      1.0  0.48776  0.10669  0.51884  1.0000
  C   C819      1.0  0.25386  0.48250  0.89916  1.0000
  Fe  Fe50      1.0  0.43641  0.49487  0.90664  1.0000
  C   C820      1.0  0.47341  0.09991  0.49895  1.0000
  C   C821      1.0  0.35542  0.19134  0.51768  1.0000
  S   S99       1.0  0.42151  0.49592  0.86865  1.0000
  C   C822      1.0  0.33709  0.49306  0.84192  1.0000
  C   C823      1.0  0.26159  0.49172  0.87662  1.0000
  C   C824      1.0  0.25645  0.30341  0.96769  1.0000
  H   H665      1.0  0.26263  0.37437  0.91956  1.0000
  C   C825      1.0  0.31548  0.49541  0.85509  1.0000
  C   C826      1.0  0.38602  0.00271  0.71170  1.0000
  H   H666      1.0  0.25055  0.36293  0.99533  1.0000
  H   H667      1.0  0.25043  0.44132  0.84243  1.0000
  S   S100      1.0  0.25416  0.73280  0.11818  1.0000
  S   S101      1.0  0.30007  0.69408  0.11288  1.0000
  C   C827      1.0  0.40407  0.72312  0.35031  1.0000
  C   C828      1.0  0.32683  0.81772  0.33006  1.0000
  S   S102      1.0  0.27271  0.70077  0.16588  1.0000
  Fe  Fe51      1.0  0.28948  0.72508  0.13760  1.0000
  S   S103      1.0  0.31739  0.75285  0.15024  1.0000
  Fe  Fe52      1.0  0.28017  0.67043  0.13964  1.0000
  S   S104      1.0  0.29076  0.63236  0.15202  1.0000
  H   H668      1.0  0.37445  0.70942  0.37197  1.0000
  H   H669      1.0  0.48547  0.58304  0.01779  1.0000
  C   C829      1.0  0.26933  0.71901  0.22738  1.0000
  H   H670      1.0  0.36882  0.61745  0.05365  1.0000
  Fe  Fe53      1.0  0.26338  0.69986  0.09561  1.0000
  H   H671      1.0  0.35026  0.95364  0.31124  1.0000
  C   C830      1.0  0.29601  0.72287  0.00372  1.0000
  C   C831      1.0  0.35024  0.58357  0.00554  1.0000
  Fe  Fe54      1.0  0.39118  0.53931  0.11530  1.0000
  S   S105      1.0  0.38187  0.57855  0.10597  1.0000
  S   S106      1.0  0.42903  0.52823  0.10465  1.0000
  Fe  Fe55      1.0  0.29683  0.86651  0.23602  1.0000
  S   S107      1.0  0.30857  0.84229  0.26662  1.0000
  S   S108      1.0  0.28207  0.85036  0.20121  1.0000
  Fe  Fe56      1.0  0.30412  0.91330  0.26571  1.0000
  S   S109      1.0  0.31521  0.89172  0.29883  1.0000
  S   S110      1.0  0.31313  0.95380  0.26820  1.0000
  Fe  Fe57      1.0  0.33806  0.86995  0.27340  1.0000
  S   S111      1.0  0.37799  0.86056  0.27971  1.0000
  Fe  Fe58      1.0  0.28469  0.86614  0.28935  1.0000
  S   S112      1.0  0.32830  0.89219  0.24045  1.0000
  S   S113      1.0  0.27129  0.88955  0.25845  1.0000
  Fe  Fe59      1.0  0.47100  0.89311  0.38715  1.0000
  S   S114      1.0  0.43199  0.89826  0.37430  1.0000
  S   S115      1.0  0.47687  0.91476  0.42102  1.0000
  C   C832      1.0  0.29107  0.77038  0.08375  1.0000
  C   C833      1.0  0.27279  0.76298  0.22616  1.0000
  C   C834      1.0  0.39313  0.87072  0.30608  1.0000
  C   C835      1.0  0.41764  0.86437  0.31014  1.0000
  C   C836      1.0  0.42996  0.87229  0.33111  1.0000
  C   C837      1.0  0.41767  0.88638  0.34823  1.0000
  C   C838      1.0  0.39320  0.89247  0.34416  1.0000
  C   C839      1.0  0.38109  0.88501  0.32310  1.0000
  H   H672      1.0  0.42715  0.85342  0.29696  1.0000
  H   H673      1.0  0.44890  0.86761  0.33395  1.0000
  H   H674      1.0  0.38358  0.90315  0.35736  1.0000
  H   H675      1.0  0.36236  0.89017  0.32022  1.0000
  P   P28       1.0  0.32534  0.62427  0.02337  1.0000
  C   C840      1.0  0.36886  0.83291  0.35417  1.0000
  C   C841      1.0  0.30723  0.77899  0.16594  1.0000
  C   C842      1.0  0.32349  0.79225  0.18042  1.0000
  C   C843      1.0  0.31583  0.81365  0.19225  1.0000
  C   C844      1.0  0.29203  0.82229  0.18904  1.0000
  C   C845      1.0  0.27594  0.80910  0.17439  1.0000
  C   C846      1.0  0.28342  0.78741  0.16317  1.0000
  H   H676      1.0  0.34207  0.78600  0.18239  1.0000
  H   H677      1.0  0.32850  0.82386  0.20320  1.0000
  H   H678      1.0  0.42839  0.97470  0.43991  1.0000
  H   H679      1.0  0.27109  0.77754  0.15165  1.0000
  C   C847      1.0  0.31570  0.61735  0.13854  1.0000
  C   C848      1.0  0.33037  0.62905  0.12135  1.0000
  C   C849      1.0  0.35064  0.61692  0.11160  1.0000
  C   C850      1.0  0.35614  0.59290  0.11861  1.0000
  C   C851      1.0  0.34130  0.58105  0.13555  1.0000
  C   C852      1.0  0.32120  0.59331  0.14556  1.0000
  H   H680      1.0  0.32627  0.64751  0.11581  1.0000
  H   H681      1.0  0.36221  0.62621  0.09869  1.0000
  H   H682      1.0  0.34544  0.56253  0.14108  1.0000
  H   H683      1.0  0.30992  0.58415  0.15885  1.0000
  C   C853      1.0  0.41101  0.73951  0.33211  1.0000
  C   C854      1.0  0.35727  0.95214  0.32958  1.0000
  C   C855      1.0  0.34047  0.67153  0.01068  1.0000
  C   C856      1.0  0.35356  0.66997  0.16203  1.0000
  C   C857      1.0  0.35566  0.77796  0.28303  1.0000
  H   H684      1.0  0.37492  0.78691  0.21569  1.0000
  C   C858      1.0  0.27064  0.97900  0.25645  1.0000
  C   C859      1.0  0.28565  0.66422  0.23423  1.0000
  C   C860      1.0  0.27595  0.65816  0.25705  1.0000
  C   C861      1.0  0.28708  0.71555  0.02658  1.0000
  C   C862      1.0  0.26733  0.69959  0.02813  1.0000
  C   C863      1.0  0.36887  0.60360  0.03981  1.0000
  H   H685      1.0  0.29533  0.72240  0.04295  1.0000
  C   C864      1.0  0.27029  0.76843  0.06923  1.0000
  H   H686      1.0  0.36093  0.67320  0.23820  1.0000
  C   C865      1.0  0.30895  0.73791  0.22987  1.0000
  C   C866      1.0  0.29569  0.58986  0.08268  1.0000
  H   H687      1.0  0.28300  0.66613  0.27339  1.0000
  H   H688      1.0  0.32955  0.70499  0.31609  1.0000
  H   H689      1.0  0.26830  0.60346  0.10710  1.0000
  P   P29       1.0  0.30916  0.68710  0.23091  1.0000
  H   H690      1.0  0.35361  0.63291  0.17509  1.0000
  C   C867      1.0  0.46095  0.93805  0.49087  1.0000
  C   C868      1.0  0.36247  0.75780  0.26902  1.0000
  H   H691      1.0  0.31085  0.85131  0.34227  1.0000
  H   H692      1.0  0.31083  0.73578  0.00268  1.0000
  C   C869      1.0  0.34251  0.94167  0.34744  1.0000
  H   H693      1.0  0.46317  0.98922  0.35789  1.0000
  C   C870      1.0  0.28834  0.63310  0.05658  1.0000
  P   P30       1.0  0.39917  0.97559  0.31287  1.0000
  H   H694      1.0  0.38537  0.80011  0.34150  1.0000
  C   C871      1.0  0.32933  0.68770  0.25684  1.0000
  C   C872      1.0  0.36231  0.73703  0.34666  1.0000
  C   C873      1.0  0.27506  0.80742  0.10115  1.0000
  H   H695      1.0  0.42994  0.74078  0.32671  1.0000
  H   H696      1.0  0.42201  0.93053  0.44363  1.0000
  C   C874      1.0  0.25736  0.69025  0.00663  1.0000
  C   C875      1.0  0.45158  0.58414  0.99839  1.0000
  H   H697      1.0  0.26446  0.78082  0.22432  1.0000
  C   C876      1.0  0.47287  0.57280  0.00674  1.0000
  H   H698      1.0  0.40058  0.58583  0.05479  1.0000
  C   C877      1.0  0.36917  0.68130  0.27516  1.0000
  H   H699      1.0  0.35873  0.72031  0.04374  1.0000
  C   C878      1.0  0.47761  0.54828  0.00126  1.0000
  C   C879      1.0  0.44540  0.92638  0.47468  1.0000
  C   C880      1.0  0.36957  0.78433  0.23443  1.0000
  H   H700      1.0  0.38792  0.67532  0.27364  1.0000
  C   C881      1.0  0.30933  0.59453  0.06176  1.0000
  C   C882      1.0  0.47374  0.97574  0.30841  1.0000
  C   C883      1.0  0.32091  0.69688  0.27896  1.0000
  C   C884      1.0  0.46471  0.96319  0.48894  1.0000
  C   C885      1.0  0.34805  0.65151  0.17869  1.0000
  C   C886      1.0  0.43367  0.93979  0.45646  1.0000
  H   H701      1.0  0.39948  0.76768  0.30745  1.0000
  C   C887      1.0  0.30579  0.61629  0.04856  1.0000
  Fe  Fe60      1.0  0.42977  0.50644  0.13899  1.0000
  H   H702      1.0  0.34945  0.70806  0.15304  1.0000
  S   S116      1.0  0.37359  0.50800  0.09619  1.0000
  H   H703      1.0  0.26812  0.75264  0.05780  1.0000
  C   C888      1.0  0.33664  0.65458  0.02952  1.0000
  C   C889      1.0  0.35606  0.80124  0.27252  1.0000
  H   H704      1.0  0.48785  0.98794  0.30201  1.0000
  S   S117      1.0  0.26312  0.84598  0.31826  1.0000
  H   H705      1.0  0.29574  0.98083  0.32080  1.0000
  H   H706      1.0  0.32308  0.58144  0.05655  1.0000
  H   H707      1.0  0.35139  0.81706  0.28307  1.0000
  C   C890      1.0  0.32642  0.68068  0.20375  1.0000
  H   H708      1.0  0.35542  0.51033  0.01315  1.0000
  H   H709      1.0  0.41762  0.71159  0.35899  1.0000
  C   C891      1.0  0.37346  0.50274  0.01094  1.0000
  H   H710      1.0  0.26136  0.96164  0.25693  1.0000
  H   H711      1.0  0.32467  0.93480  0.34260  1.0000
  C   C892      1.0  0.35294  0.70191  0.03977  1.0000
  C   C893      1.0  0.45346  0.97674  0.47033  1.0000
  C   C894      1.0  0.32696  0.83984  0.34243  1.0000
  H   H712      1.0  0.34371  0.73590  0.35284  1.0000
  H   H713      1.0  0.30914  0.77721  0.22881  1.0000
  C   C895      1.0  0.29345  0.78987  0.09968  1.0000
  C   C896      1.0  0.25841  0.74201  0.22589  1.0000
  H   H714      1.0  0.36239  0.73965  0.27681  1.0000
  C   C897      1.0  0.36880  0.81073  0.34188  1.0000
  C   C898      1.0  0.27454  0.62822  0.07729  1.0000
  C   C899      1.0  0.43091  0.96744  0.31598  1.0000
  C   C900      1.0  0.26902  0.74347  0.32018  1.0000
  C   C901      1.0  0.33223  0.69916  0.18698  1.0000
  H   H715      1.0  0.27091  0.73895  0.28147  1.0000
  H   H716      1.0  0.40063  0.55260  0.02455  1.0000
  C   C902      1.0  0.25612  0.63731  0.21541  1.0000
  H   H717      1.0  0.49896  0.94792  0.32038  1.0000
  H   H718      1.0  0.34813  0.86474  0.36377  1.0000
  C   C903      1.0  0.33635  0.69801  0.29908  1.0000
  C   C904      1.0  0.38449  0.98210  0.26449  1.0000
  C   C905      1.0  0.35035  0.60277  0.02227  1.0000
  C   C906      1.0  0.38691  0.56684  0.02361  1.0000
  H   H719      1.0  0.30927  0.79099  0.11142  1.0000
  H   H720      1.0  0.27162  0.75195  0.35810  1.0000
  C   C907      1.0  0.49223  0.97621  0.38089  1.0000
  H   H721      1.0  0.29916  0.57356  0.09337  1.0000
  C   C908      1.0  0.49023  0.55214  0.08323  1.0000
  C   C909      1.0  0.34790  0.84736  0.35459  1.0000
  H   H722      1.0  0.25788  0.70309  0.22690  1.0000
  H   H723      1.0  0.32593  0.71763  0.18937  1.0000
  C   C910      1.0  0.38698  0.58564  0.04052  1.0000
  P   P31       1.0  0.34714  0.77395  0.31443  1.0000
  C   C911      1.0  0.31656  0.76191  0.31650  1.0000
  C   C912      1.0  0.30450  0.76145  0.33894  1.0000
  C   C913      1.0  0.28090  0.75210  0.34078  1.0000
  H   H724      1.0  0.28578  0.65029  0.04712  1.0000
  C   C914      1.0  0.28050  0.74479  0.29762  1.0000
  C   C915      1.0  0.30414  0.75402  0.29576  1.0000
  H   H725      1.0  0.31047  0.81252  0.32041  1.0000
  H   H726      1.0  0.31325  0.76860  0.35498  1.0000
  C   C916      1.0  0.48757  0.54590  0.05885  1.0000
  C   C917      1.0  0.25346  0.77716  0.01163  1.0000
  H   H727      1.0  0.44276  0.90683  0.47597  1.0000
  H   H728      1.0  0.31249  0.75514  0.27810  1.0000
  S   S118      1.0  0.48661  0.85886  0.40354  1.0000
  C   C918      1.0  0.36907  0.75340  0.32816  1.0000
  H   H729      1.0  0.37252  0.69114  0.31273  1.0000
  H   H730      1.0  0.36317  0.82262  0.24045  1.0000
  S   S119      1.0  0.39309  0.52011  0.15148  1.0000
  C   C919      1.0  0.27832  0.60670  0.09046  1.0000
  H   H731      1.0  0.30496  0.75633  0.08330  1.0000
  H   H732      1.0  0.32995  0.64213  0.21187  1.0000
  C   C920      1.0  0.46179  0.93764  0.32719  1.0000
  C   C921      1.0  0.34865  0.69504  0.01582  1.0000
  C   C922      1.0  0.25642  0.64191  0.25895  1.0000
  H   H733      1.0  0.32852  0.73655  0.23108  1.0000
  H   H734      1.0  0.28228  0.65818  0.19564  1.0000
  C   C923      1.0  0.43737  0.94464  0.32561  1.0000
  H   H735      1.0  0.38536  0.83924  0.36289  1.0000
  C   C924      1.0  0.39004  0.96550  0.28321  1.0000
  C   C925      1.0  0.38069  0.96053  0.33545  1.0000
  C   C926      1.0  0.38883  0.95891  0.35954  1.0000
  C   C927      1.0  0.37397  0.94851  0.37739  1.0000
  C   C928      1.0  0.35082  0.93986  0.37134  1.0000
  C   C929      1.0  0.27549  0.65363  0.21348  1.0000
  H   H736      1.0  0.30232  0.70314  0.28061  1.0000
  C   C930      1.0  0.29803  0.76092  0.22847  1.0000
  C   C931      1.0  0.47975  0.99399  0.36725  1.0000
  H   H737      1.0  0.36700  0.94198  0.22103  1.0000
  C   C932      1.0  0.38046  0.93199  0.25637  1.0000
  C   C933      1.0  0.38849  0.94040  0.27880  1.0000
  H   H738      1.0  0.25062  0.73642  0.32156  1.0000
  H   H739      1.0  0.36352  0.66568  0.14566  1.0000
  C   C934      1.0  0.36872  0.56601  0.00592  1.0000
  H   H740      1.0  0.46644  0.92004  0.33498  1.0000
  C   C935      1.0  0.37975  0.72190  0.35761  1.0000
  C   C936      1.0  0.36284  0.80442  0.24829  1.0000
  C   C937      1.0  0.48002  0.95326  0.31879  1.0000
  H   H741      1.0  0.42352  0.93220  0.33185  1.0000
  H   H742      1.0  0.40674  0.96546  0.36448  1.0000
  H   H743      1.0  0.38066  0.94666  0.39578  1.0000
  H   H744      1.0  0.33949  0.93143  0.38509  1.0000
  C   C938      1.0  0.36050  0.69021  0.29719  1.0000
  C   C939      1.0  0.35369  0.68004  0.25505  1.0000
  C   C940      1.0  0.36956  0.76103  0.24485  1.0000
  H   H745      1.0  0.35094  0.70816  0.00120  1.0000
  H   H746      1.0  0.48537  0.95776  0.38170  1.0000
  H   H747      1.0  0.37880  0.91255  0.25340  1.0000
  H   H748      1.0  0.39303  0.92724  0.29287  1.0000
  C   C941      1.0  0.43767  0.96487  0.45422  1.0000
  H   H749      1.0  0.33825  0.64904  0.06844  1.0000
  C   C942      1.0  0.39364  0.75467  0.32115  1.0000
  C   C943      1.0  0.34765  0.80279  0.33000  1.0000
  C   C944      1.0  0.29575  0.97993  0.26057  1.0000
  H   H750      1.0  0.37494  0.74548  0.23410  1.0000
  S   S120      1.0  0.48148  0.87065  0.47407  1.0000
  C   C945      1.0  0.29473  0.71675  0.22908  1.0000
  C   C946      1.0  0.34565  0.69377  0.16618  1.0000
  H   H751      1.0  0.25605  0.80698  0.27456  1.0000
  C   C947      1.0  0.33451  0.65679  0.19944  1.0000
  H   H752      1.0  0.35225  0.69055  0.07725  1.0000
  C   C948      1.0  0.37400  0.94858  0.23812  1.0000
  C   C949      1.0  0.37621  0.97362  0.24210  1.0000
  H   H753      1.0  0.26161  0.98419  0.35008  1.0000
  H   H754      1.0  0.26729  0.78729  0.02120  1.0000
  H   H755      1.0  0.46939  0.54467  0.05131  1.0000
  H   H756      1.0  0.26133  0.64146  0.08342  1.0000
  Fe  Fe61      1.0  0.49454  0.88143  0.43652  1.0000
  H   H757      1.0  0.47431  0.55574  0.09422  1.0000
  C   C950      1.0  0.44925  0.98267  0.30669  1.0000
  H   H758      1.0  0.27671  0.82207  0.11412  1.0000
  H   H759      1.0  0.37106  0.98644  0.22799  1.0000
  C   C951      1.0  0.34929  0.68518  0.05862  1.0000
  C   C952      1.0  0.34133  0.66159  0.05353  1.0000
  H   H760      1.0  0.27269  0.62705  0.01106  1.0000
  C   C953      1.0  0.49164  0.50136  0.14459  1.0000
  S   S121      1.0  0.25386  0.69122  0.05623  1.0000
  H   H761      1.0  0.25766  0.81585  0.17159  1.0000
  C   C954      1.0  0.28972  0.99858  0.32700  1.0000
  H   H762      1.0  0.44790  0.60298  0.00285  1.0000
  H   H763      1.0  0.38019  0.50054  0.04898  1.0000
  C   C955      1.0  0.25432  0.80561  0.08651  1.0000
  S   S122      1.0  0.46439  0.50463  0.16129  1.0000
  C   C956      1.0  0.25195  0.78621  0.07021  1.0000
  H   H764      1.0  0.44474  0.00001  0.29845  1.0000
  Fe  Fe62      1.0  0.30245  0.71881  0.86327  1.0000
  S   S123      1.0  0.27354  0.73549  0.88640  1.0000
  S   S124      1.0  0.32336  0.74064  0.83493  1.0000
  Fe  Fe63      1.0  0.29185  0.66717  0.88237  1.0000
  H   H765      1.0  0.42567  0.53619  0.96963  1.0000
  S   S125      1.0  0.29722  0.62605  0.88460  1.0000
  Fe  Fe64      1.0  0.28726  0.71061  0.91624  1.0000
  S   S126      1.0  0.29676  0.72491  0.95391  1.0000
  S   S127      1.0  0.27893  0.68828  0.84964  1.0000
  S   S128      1.0  0.31830  0.69609  0.89378  1.0000
  C   C957      1.0  0.33358  0.73448  0.68916  1.0000
  H   H766      1.0  0.31989  0.52072  0.90473  1.0000
  H   H767      1.0  0.43246  0.97360  0.72794  1.0000
  C   C958      1.0  0.29062  0.72803  0.69759  1.0000
  H   H768      1.0  0.27839  0.79358  0.77691  1.0000
  H   H769      1.0  0.46390  0.63378  0.93191  1.0000
  Fe  Fe65      1.0  0.39722  0.52640  0.88191  1.0000
  S   S129      1.0  0.39088  0.56209  0.86166  1.0000
  S   S130      1.0  0.41475  0.52733  0.91864  1.0000
  Fe  Fe66      1.0  0.27985  0.87596  0.73180  1.0000
  S   S131      1.0  0.27233  0.89641  0.76628  1.0000
  Fe  Fe67      1.0  0.33526  0.87854  0.73804  1.0000
  S   S132      1.0  0.33097  0.89829  0.77312  1.0000
  S   S133      1.0  0.37518  0.87041  0.73076  1.0000
  Fe  Fe68      1.0  0.30147  0.87169  0.78184  1.0000
  S   S134      1.0  0.29886  0.85331  0.81882  1.0000
  Fe  Fe69      1.0  0.30288  0.92144  0.75409  1.0000
  S   S135      1.0  0.31208  0.96183  0.75971  1.0000
  S   S136      1.0  0.30738  0.85026  0.74814  1.0000
  S   S137      1.0  0.30853  0.90252  0.71845  1.0000
  C   C959      1.0  0.26124  0.56860  0.86215  1.0000
  C   C960      1.0  0.40529  0.80746  0.79528  1.0000
  S   S138      1.0  0.44008  0.88027  0.63611  1.0000
  C   C961      1.0  0.34805  0.51363  0.83168  1.0000
  C   C962      1.0  0.43388  0.77545  0.73190  1.0000
  H   H770      1.0  0.36957  0.92878  0.67590  1.0000
  H   H771      1.0  0.26597  0.97650  0.73606  1.0000
  C   C963      1.0  0.36970  0.81150  0.70774  1.0000
  C   C964      1.0  0.39223  0.87669  0.70431  1.0000
  C   C965      1.0  0.41762  0.87873  0.70640  1.0000
  C   C966      1.0  0.43241  0.88047  0.68568  1.0000
  C   C967      1.0  0.42191  0.88013  0.66261  1.0000
  C   C968      1.0  0.39641  0.87903  0.66051  1.0000
  C   C969      1.0  0.38157  0.87740  0.68130  1.0000
  H   H772      1.0  0.42595  0.87843  0.72417  1.0000
  H   H773      1.0  0.45196  0.88138  0.68755  1.0000
  H   H774      1.0  0.38815  0.87888  0.64270  1.0000
  H   H775      1.0  0.36203  0.87580  0.67951  1.0000
  H   H776      1.0  0.47012  0.86582  0.52448  1.0000
  H   H777      1.0  0.47652  0.97209  0.50182  1.0000
  C   C970      1.0  0.41135  0.97086  0.63199  1.0000
  H   H778      1.0  0.35248  0.73244  0.69432  1.0000
  C   C971      1.0  0.31679  0.77210  0.83102  1.0000
  C   C972      1.0  0.30500  0.78560  0.84894  1.0000
  C   C973      1.0  0.29988  0.81052  0.84511  1.0000
  C   C974      1.0  0.30616  0.82209  0.82320  1.0000
  C   C975      1.0  0.31793  0.80858  0.80530  1.0000
  C   C976      1.0  0.32345  0.78380  0.80930  1.0000
  H   H779      1.0  0.30008  0.77697  0.86588  1.0000
  H   H780      1.0  0.29086  0.82081  0.85913  1.0000
  H   H781      1.0  0.32231  0.81710  0.78820  1.0000
  H   H782      1.0  0.33214  0.77345  0.79520  1.0000
  C   C977      1.0  0.28583  0.71379  0.98219  1.0000
  H   H783      1.0  0.34117  0.62430  0.97269  1.0000
  H   H784      1.0  0.31887  0.62626  0.93386  1.0000
  H   H785      1.0  0.32924  0.53894  0.94431  1.0000
  H   H786      1.0  0.49791  0.55828  0.86503  1.0000
  C   C978      1.0  0.32486  0.61014  0.87996  1.0000
  C   C979      1.0  0.32781  0.58723  0.89106  1.0000
  C   C980      1.0  0.34840  0.57277  0.88628  1.0000
  C   C981      1.0  0.36603  0.58090  0.86988  1.0000
  C   C982      1.0  0.36340  0.60407  0.85913  1.0000
  C   C983      1.0  0.34297  0.61877  0.86430  1.0000
  H   H787      1.0  0.31389  0.58060  0.90322  1.0000
  H   H788      1.0  0.35030  0.55505  0.89474  1.0000
  H   H789      1.0  0.37700  0.61053  0.84648  1.0000
  H   H790      1.0  0.34082  0.63636  0.85555  1.0000
  C   C984      1.0  0.38159  0.74190  0.74111  1.0000
  C   C985      1.0  0.41729  0.92801  0.76708  1.0000
  H   H791      1.0  0.48234  0.80618  0.70818  1.0000
  S   S139      1.0  0.26147  0.68060  0.90638  1.0000
  H   H792      1.0  0.28134  0.74998  0.78862  1.0000
  H   H793      1.0  0.32038  0.71580  0.72062  1.0000
  H   H794      1.0  0.34611  0.55255  0.82695  1.0000
  H   H795      1.0  0.26968  0.77120  0.70867  1.0000
  H   H796      1.0  0.36623  0.93150  0.73237  1.0000
  C   C986      1.0  0.36486  0.79903  0.72954  1.0000
  C   C987      1.0  0.43473  0.57102  0.98476  1.0000
  H   H797      1.0  0.48336  0.50967  0.87386  1.0000
  H   H798      1.0  0.36856  0.99396  0.74588  1.0000
  H   H799      1.0  0.31084  0.70601  0.79396  1.0000
  H   H800      1.0  0.29928  0.72867  0.75682  1.0000
  C   C988      1.0  0.33584  0.97580  0.69820  1.0000
  C   C989      1.0  0.37036  0.82893  0.77885  1.0000
  H   H801      1.0  0.46838  0.76407  0.71704  1.0000
  H   H802      1.0  0.35449  0.82793  0.67554  1.0000
  H   H803      1.0  0.29700  0.97935  0.69413  1.0000
  H   H804      1.0  0.41574  0.83461  0.73719  1.0000
  H   H805      1.0  0.44256  0.95112  0.56261  1.0000
  C   C990      1.0  0.36929  0.84321  0.79969  1.0000
  C   C991      1.0  0.43111  0.94635  0.75608  1.0000
  H   H806      1.0  0.34187  0.75391  0.65608  1.0000
  H   H807      1.0  0.29278  0.94180  0.66982  1.0000
  C   C992      1.0  0.27644  0.99269  0.73992  1.0000
  H   H808      1.0  0.42420  0.58775  0.82185  1.0000
  C   C993      1.0  0.25671  0.54359  0.85912  1.0000
  C   C994      1.0  0.48549  0.64183  0.86951  1.0000
  C   C995      1.0  0.38798  0.81055  0.77675  1.0000
  H   H809      1.0  0.25170  0.84695  0.84286  1.0000
  C   C996      1.0  0.33108  0.93330  0.67097  1.0000
  C   C997      1.0  0.31520  0.72517  0.70413  1.0000
  H   H810      1.0  0.42464  0.91758  0.78217  1.0000
  C   C998      1.0  0.27666  0.69987  0.74261  1.0000
  H   H811      1.0  0.29745  0.56171  0.96665  1.0000
  C   C999      1.0  0.29246  0.71036  0.75960  1.0000
  H   H812      1.0  0.36854  0.55132  0.99292  1.0000
  C   C1000     1.0  0.47911  0.93922  0.55525  1.0000
  C   C1001     1.0  0.49891  0.87671  0.50021  1.0000
  H   H813      1.0  0.35512  0.85686  0.80149  1.0000
  H   H814      1.0  0.27398  0.62897  0.93343  1.0000
  C   C1002     1.0  0.28251  0.53302  0.90409  1.0000
  C   C1003     1.0  0.27399  0.66370  0.76818  1.0000
  Fe  Fe70      1.0  0.48118  0.88516  0.63782  1.0000
  C   C1004     1.0  0.44989  0.82291  0.72228  1.0000
  H   H815      1.0  0.29470  0.66445  0.80139  1.0000
  C   C1005     1.0  0.25832  0.76931  0.98807  1.0000
  H   H816      1.0  0.35727  0.83229  0.76456  1.0000
  C   C1006     1.0  0.32673  0.81124  0.69768  1.0000
  H   H817      1.0  0.36607  0.72463  0.80763  1.0000
  P   P32       1.0  0.27597  0.52136  0.87422  1.0000
  H   H818      1.0  0.37735  0.76661  0.79753  1.0000
  C   C1007     1.0  0.46096  0.95675  0.55834  1.0000
  H   H819      1.0  0.45829  0.98856  0.66966  1.0000
  H   H820      1.0  0.48421  0.95977  0.62968  1.0000
  C   C1008     1.0  0.38609  0.83956  0.81837  1.0000
  H   H821      1.0  0.38795  0.81716  0.70305  1.0000
  P   P33       1.0  0.26612  0.71776  0.71705  1.0000
  H   H822      1.0  0.43629  0.60724  0.85995  1.0000
  C   C1009     1.0  0.31059  0.94754  0.67596  1.0000
  P   P34       1.0  0.38889  0.79103  0.75057  1.0000
  H   H823      1.0  0.38965  0.61574  0.94792  1.0000
  C   C1010     1.0  0.39393  0.92293  0.75851  1.0000
  H   H824      1.0  0.25363  0.73270  0.81957  1.0000
  C   C1011     1.0  0.49630  0.66472  0.86666  1.0000
  H   H825      1.0  0.30323  0.79436  0.72403  1.0000
  H   H826      1.0  0.37393  0.70430  0.73302  1.0000
  S   S140      1.0  0.49663  0.91443  0.61352  1.0000
  H   H827      1.0  0.29860  0.75811  0.64379  1.0000
  C   C1012     1.0  0.38435  0.93591  0.73875  1.0000
  C   C1013     1.0  0.48867  0.87229  0.52313  1.0000
  C   C1014     1.0  0.39824  0.95416  0.72748  1.0000
  H   H828      1.0  0.45116  0.92936  0.65533  1.0000
  P   P35       1.0  0.38666  0.97131  0.70196  1.0000
  C   C1015     1.0  0.40534  0.96612  0.67548  1.0000
  C   C1016     1.0  0.45676  0.77938  0.72142  1.0000
  H   H829      1.0  0.38332  0.90858  0.76694  1.0000
  C   C1017     1.0  0.26728  0.67649  0.74716  1.0000
  H   H830      1.0  0.26638  0.64584  0.77183  1.0000
  H   H831      1.0  0.38526  0.74671  0.72239  1.0000
  C   C1018     1.0  0.26444  0.54552  0.91708  1.0000
  C   C1019     1.0  0.43906  0.54655  0.97960  1.0000
  C   C1020     1.0  0.49133  0.62704  0.88958  1.0000
  C   C1021     1.0  0.43037  0.95393  0.63284  1.0000
  C   C1022     1.0  0.43681  0.94297  0.65484  1.0000
  C   C1023     1.0  0.42420  0.94874  0.67601  1.0000
  C   C1024     1.0  0.26982  0.55578  0.93959  1.0000
  C   C1025     1.0  0.42156  0.95950  0.73644  1.0000
  C   C1026     1.0  0.37746  0.75324  0.78324  1.0000
  H   H832      1.0  0.49144  0.67613  0.85128  1.0000
  C   C1027     1.0  0.35655  0.96170  0.69306  1.0000
  C   C1028     1.0  0.40424  0.82184  0.81608  1.0000
  C   C1029     1.0  0.29907  0.69757  0.78063  1.0000
  H   H833      1.0  0.42609  0.64151  0.95465  1.0000
  C   C1030     1.0  0.39877  0.97683  0.65319  1.0000
  H   H834      1.0  0.43990  0.94884  0.61644  1.0000
  H   H835      1.0  0.47485  0.92001  0.55717  1.0000
  H   H836      1.0  0.42876  0.93880  0.69240  1.0000
  H   H837      1.0  0.25862  0.69004  0.96739  1.0000
  C   C1031     1.0  0.34076  0.79251  0.73506  1.0000
  C   C1032     1.0  0.27070  0.62786  0.97240  1.0000
  C   C1033     1.0  0.37080  0.72932  0.78908  1.0000
  H   H838      1.0  0.32917  0.91655  0.66089  1.0000
  C   C1034     1.0  0.26657  0.78616  0.79080  1.0000
  H   H839      1.0  0.42831  0.75697  0.73576  1.0000
  C   C1035     1.0  0.26798  0.76149  0.79706  1.0000
  C   C1036     1.0  0.25255  0.75184  0.81471  1.0000
  C   C1037     1.0  0.46679  0.98148  0.55670  1.0000
  H   H840      1.0  0.45603  0.84128  0.71841  1.0000
  C   C1038     1.0  0.33720  0.53649  0.83427  1.0000
  H   H841      1.0  0.38494  0.85046  0.83461  1.0000
  C   C1039     1.0  0.28485  0.73953  0.67546  1.0000
  C   C1040     1.0  0.32183  0.79857  0.71917  1.0000
  C   C1041     1.0  0.41869  0.79529  0.73733  1.0000
  C   C1042     1.0  0.28358  0.62759  0.95058  1.0000
  C   C1043     1.0  0.37502  0.71796  0.74703  1.0000
  C   C1044     1.0  0.30326  0.74887  0.66061  1.0000
  H   H842      1.0  0.25217  0.78801  0.86707  1.0000
  H   H843      1.0  0.33562  0.58164  0.99257  1.0000
  C   C1045     1.0  0.35067  0.81762  0.69194  1.0000
  C   C1046     1.0  0.29316  0.55341  0.94941  1.0000
  C   C1047     1.0  0.38306  0.75971  0.75919  1.0000
  P   P36       1.0  0.47644  0.59802  0.89412  1.0000
  H   H844      1.0  0.31191  0.81669  0.68581  1.0000
  C   C1048     1.0  0.46833  0.58464  0.86533  1.0000
  C   C1049     1.0  0.48207  0.56537  0.85570  1.0000
  C   C1050     1.0  0.47509  0.55444  0.83399  1.0000
  C   C1051     1.0  0.45439  0.56265  0.82165  1.0000
  H   H845      1.0  0.30768  0.55686  0.84911  1.0000
  H   H846      1.0  0.36414  0.69325  0.77566  1.0000
  C   C1052     1.0  0.36956  0.71169  0.77102  1.0000
  C   C1053     1.0  0.30573  0.53031  0.91431  1.0000
  H   H847      1.0  0.24996  0.82062  0.79794  1.0000
  C   C1054     1.0  0.42707  0.81905  0.73282  1.0000
  H   H848      1.0  0.44863  0.55376  0.80516  1.0000
  C   C1055     1.0  0.44930  0.60325  0.91194  1.0000
  C   C1056     1.0  0.42878  0.58843  0.90881  1.0000
  C   C1057     1.0  0.40739  0.59294  0.92175  1.0000
  C   C1058     1.0  0.40638  0.61212  0.93817  1.0000
  C   C1059     1.0  0.42691  0.62663  0.94189  1.0000
  C   C1060     1.0  0.44832  0.62221  0.92888  1.0000
  C   C1061     1.0  0.31535  0.53885  0.84703  1.0000
  H   H849      1.0  0.46313  0.51616  0.98345  1.0000
  H   H850      1.0  0.27414  0.67958  0.68144  1.0000
  H   H851      1.0  0.27616  0.57481  0.87340  1.0000
  C   C1062     1.0  0.28988  0.67421  0.78489  1.0000
  C   C1063     1.0  0.31106  0.54058  0.93683  1.0000
  H   H852      1.0  0.46813  0.55993  0.93107  1.0000
  C   C1064     1.0  0.44764  0.59289  0.85267  1.0000
  H   H853      1.0  0.47025  0.92740  0.50471  1.0000
  C   C1065     1.0  0.35392  0.94019  0.67969  1.0000
  H   H854      1.0  0.42915  0.57352  0.89610  1.0000
  H   H855      1.0  0.39150  0.58165  0.91873  1.0000
  H   H856      1.0  0.25105  0.62962  0.97218  1.0000
  C   C1066     1.0  0.32762  0.74649  0.66753  1.0000
  S   S141      1.0  0.36462  0.50532  0.96262  1.0000
  H   H857      1.0  0.33652  0.78326  0.75193  1.0000
  H   H858      1.0  0.41931  0.79367  0.79378  1.0000
  C   C1067     1.0  0.30894  0.62606  0.95084  1.0000
  C   C1068     1.0  0.46470  0.80309  0.71649  1.0000
  H   H859      1.0  0.49447  0.87195  0.56191  1.0000
  H   H860      1.0  0.44926  0.95023  0.76265  1.0000
  H   H861      1.0  0.41732  0.81910  0.83055  1.0000
  H   H862      1.0  0.40610  0.97897  0.61482  1.0000
  C   C1069     1.0  0.29915  0.99045  0.75127  1.0000
  H   H863      1.0  0.46260  0.99082  0.60515  1.0000
  C   C1070     1.0  0.31297  0.96868  0.68969  1.0000
  C   C1071     1.0  0.49118  0.97804  0.62870  1.0000
  C   C1072     1.0  0.46041  0.53520  0.98769  1.0000
  H   H864      1.0  0.47240  0.63592  0.85616  1.0000
  C   C1073     1.0  0.44076  0.58194  0.83093  1.0000
  C   C1074     1.0  0.47898  0.99565  0.61478  1.0000
  C   C1075     1.0  0.49665  0.57755  0.91017  1.0000
  C   C1076     1.0  0.26665  0.69715  0.98377  1.0000
  Fe  Fe71      1.0  0.38599  0.50050  0.92865  1.0000
  H   H865      1.0  0.26600  0.74178  0.66997  1.0000
  C   C1077     1.0  0.32147  0.62486  0.97288  1.0000
  H   H866      1.0  0.25910  0.78726  0.91092  1.0000
  C   C1078     1.0  0.49067  0.98877  0.55176  1.0000
  H   H867      1.0  0.48549  0.53923  0.82700  1.0000
  H   H868      1.0  0.41803  0.57962  0.97861  1.0000
  C   C1079     1.0  0.25615  0.76755  0.72235  1.0000
  C   C1080     1.0  0.48738  0.56060  0.92694  1.0000
  S   S142      1.0  0.25207  0.85919  0.70621  1.0000
  H   H869      1.0  0.36529  0.51199  0.82230  1.0000
  H   H870      1.0  0.25699  0.88897  0.82781  1.0000
  C   C1081     1.0  0.30417  0.51830  0.85746  1.0000
  S   S143      1.0  0.36679  0.50151  0.89301  1.0000
  H   H871      1.0  0.27594  0.77275  0.97987  1.0000
  H   H872      1.0  0.49546  0.52988  0.94997  1.0000
  C   C1082     1.0  0.25035  0.80149  0.80284  1.0000
  H   H873      1.0  0.33659  0.66709  0.99205  1.0000
  H   H874      1.0  0.45455  0.99251  0.80211  1.0000
  H   H875      1.0  0.38344  0.98924  0.65211  1.0000
  H   H876      1.0  0.33704  0.99216  0.70889  1.0000
  C   C1083     1.0  0.25080  0.74371  0.73000  1.0000
  C   C1084     1.0  0.25476  0.68309  0.68226  1.0000
  H   H877      1.0  0.45304  0.99506  0.56030  1.0000
  C   C1085     1.0  0.30869  0.62495  0.99496  1.0000
  C   C1086     1.0  0.28315  0.62649  0.99451  1.0000
  H   H878      1.0  0.25031  0.60527  0.85324  1.0000
  H   H879      1.0  0.25423  0.66836  0.73494  1.0000
  Fe  Fe72      1.0  0.25070  0.70391  0.87425  1.0000
  H   H880      1.0  0.49822  0.92483  0.72422  1.0000
  H   H881      1.0  0.25600  0.56595  0.94924  1.0000
  C   C1087     1.0  0.70700  0.03087  0.20755  1.0000
  S   S144      1.0  0.70611  0.29104  0.10853  1.0000
  H   H882      1.0  0.68147  0.24329  0.08844  1.0000
  C   C1088     1.0  0.59880  0.06302  0.40940  1.0000
  Fe  Fe73      1.0  0.72155  0.27334  0.14212  1.0000
  S   S145      1.0  0.69776  0.25695  0.17145  1.0000
  C   C1089     1.0  0.60612  0.39070  0.12181  1.0000
  C   C1090     1.0  0.73797  0.34765  0.01643  1.0000
  Fe  Fe74      1.0  0.63950  0.46094  0.14292  1.0000
  S   S146      1.0  0.64834  0.42574  0.16259  1.0000
  S   S147      1.0  0.62507  0.45996  0.10496  1.0000
  Fe  Fe75      1.0  0.69962  0.13605  0.24246  1.0000
  S   S148      1.0  0.68755  0.16020  0.27271  1.0000
  S   S149      1.0  0.71333  0.14734  0.20538  1.0000
  Fe  Fe76      1.0  0.69531  0.08919  0.27363  1.0000
  S   S150      1.0  0.68366  0.10996  0.30666  1.0000
  H   H883      1.0  0.69370  0.16798  0.13730  1.0000
  Fe  Fe77      1.0  0.65952  0.13130  0.28131  1.0000
  S   S151      1.0  0.61843  0.13547  0.28290  1.0000
  S   S152      1.0  0.66975  0.10932  0.24887  1.0000
  H   H884      1.0  0.68778  0.19238  0.34995  1.0000
  C   C1091     1.0  0.73253  0.42649  0.05683  1.0000
  H   H885      1.0  0.66101  0.23827  0.12835  1.0000
  C   C1092     1.0  0.51986  0.04746  0.45149  1.0000
  C   C1093     1.0  0.72099  0.32014  0.27713  1.0000
  H   H886      1.0  0.66661  0.20016  0.15202  1.0000
  Fe  Fe78      1.0  0.51160  0.12024  0.37557  1.0000
  S   S153      1.0  0.55125  0.13166  0.37667  1.0000
  C   C1094     1.0  0.72267  0.12885  0.12947  1.0000
  C   C1095     1.0  0.60032  0.13327  0.30932  1.0000
  C   C1096     1.0  0.57488  0.13254  0.30677  1.0000
  C   C1097     1.0  0.55966  0.13131  0.32725  1.0000
  C   C1098     1.0  0.56979  0.13128  0.35049  1.0000
  C   C1099     1.0  0.59525  0.13189  0.35307  1.0000
  C   C1100     1.0  0.61051  0.13261  0.33256  1.0000
  H   H887      1.0  0.56687  0.13312  0.28886  1.0000
  H   H888      1.0  0.54010  0.13105  0.32505  1.0000
  H   H889      1.0  0.60314  0.13211  0.37103  1.0000
  H   H890      1.0  0.63007  0.13326  0.33471  1.0000
  H   H891      1.0  0.70463  0.31554  0.05779  1.0000
  H   H892      1.0  0.72006  0.10355  0.15935  1.0000
  C   C1101     1.0  0.51909  0.35715  0.08689  1.0000
  C   C1102     1.0  0.55706  0.45397  0.01786  1.0000
  H   H893      1.0  0.66267  0.41059  0.07129  1.0000
  C   C1103     1.0  0.55288  0.06158  0.33672  1.0000
  C   C1104     1.0  0.51229  0.41763  0.12679  1.0000
  H   H894      1.0  0.69292  0.44096  0.22881  1.0000
  C   C1105     1.0  0.73120  0.11714  0.15039  1.0000
  H   H895      1.0  0.53462  0.13306  0.48833  1.0000
  C   C1106     1.0  0.59279  0.00478  0.40335  1.0000
  C   C1107     1.0  0.70318  0.22686  0.18161  1.0000
  C   C1108     1.0  0.68773  0.21659  0.19914  1.0000
  C   C1109     1.0  0.69085  0.19226  0.20674  1.0000
  C   C1110     1.0  0.70953  0.17813  0.19695  1.0000
  C   C1111     1.0  0.72513  0.18847  0.17962  1.0000
  C   C1112     1.0  0.72200  0.21275  0.17199  1.0000
  H   H896      1.0  0.67305  0.22735  0.20658  1.0000
  H   H897      1.0  0.67857  0.18435  0.21995  1.0000
  C   C1113     1.0  0.70292  0.37782  0.12203  1.0000
  C   C1114     1.0  0.69237  0.36938  0.14359  1.0000
  C   C1115     1.0  0.67555  0.38414  0.15600  1.0000
  C   C1116     1.0  0.66922  0.40726  0.14686  1.0000
  C   C1117     1.0  0.67959  0.41548  0.12518  1.0000
  C   C1118     1.0  0.69643  0.40084  0.11291  1.0000
  H   H898      1.0  0.69724  0.35161  0.15075  1.0000
  H   H899      1.0  0.66741  0.37767  0.17267  1.0000
  H   H900      1.0  0.67477  0.43321  0.11793  1.0000
  H   H901      1.0  0.70438  0.40734  0.09620  1.0000
  H   H902      1.0  0.74341  0.04426  0.15723  1.0000
  C   C1119     1.0  0.51763  0.12357  0.49133  1.0000
  H   H903      1.0  0.71077  0.01169  0.21017  1.0000
  H   H904      1.0  0.70806  0.07928  0.36954  1.0000
  S   S154      1.0  0.72753  0.25503  0.05345  1.0000
  H   H905      1.0  0.56302  0.46533  0.00282  1.0000
  C   C1120     1.0  0.61671  0.48433  0.02076  1.0000
  H   H906      1.0  0.72804  0.28678  0.20732  1.0000
  H   H907      1.0  0.74447  0.19463  0.23694  1.0000
  C   C1121     1.0  0.73310  0.41260  0.17856  1.0000
  C   C1122     1.0  0.71646  0.11966  0.06960  1.0000
  H   H908      1.0  0.56779  0.01558  0.27443  1.0000
  P   P37       1.0  0.53352  0.40558  0.08231  1.0000
  C   C1123     1.0  0.56182  0.39954  0.09789  1.0000
  C   C1124     1.0  0.54194  0.42442  0.05674  1.0000
  C   C1125     1.0  0.53994  0.44981  0.05807  1.0000
  C   C1126     1.0  0.55968  0.42871  0.01661  1.0000
  C   C1127     1.0  0.55226  0.41392  0.03601  1.0000
  H   H909      1.0  0.68689  0.48173  0.01436  1.0000
  C   C1128     1.0  0.73319  0.40213  0.20191  1.0000
  H   H910      1.0  0.52648  0.40696  0.13543  1.0000
  H   H911      1.0  0.73346  0.11389  0.07783  1.0000
  C   C1129     1.0  0.72734  0.40965  0.00947  1.0000
  C   C1130     1.0  0.65678  0.48538  0.03905  1.0000
  H   H912      1.0  0.69962  0.03626  0.38104  1.0000
  C   C1131     1.0  0.68544  0.15037  0.06246  1.0000
  H   H913      1.0  0.63489  0.43346  0.04399  1.0000
  C   C1132     1.0  0.57574  0.37882  0.09234  1.0000
  H   H914      1.0  0.72258  0.28180  0.27068  1.0000
  H   H915      1.0  0.71838  0.40490  0.23816  1.0000
  H   H916      1.0  0.73959  0.17766  0.17200  1.0000
  S   S155      1.0  0.66835  0.48876  0.13512  1.0000
  C   C1133     1.0  0.59780  0.37442  0.10434  1.0000
  H   H917      1.0  0.53309  0.45832  0.07427  1.0000
  S   S156      1.0  0.67524  0.48826  0.06476  1.0000
  H   H918      1.0  0.55488  0.39440  0.03501  1.0000
  H   H919      1.0  0.68116  0.02919  0.32843  1.0000
  H   H920      1.0  0.55652  0.03457  0.44694  1.0000
  Fe  Fe79      1.0  0.73240  0.32126  0.11576  1.0000
  H   H921      1.0  0.62318  0.38733  0.13118  1.0000
  P   P38       1.0  0.61000  0.04817  0.38247  1.0000
  H   H922      1.0  0.58298  0.01674  0.31907  1.0000
  C   C1134     1.0  0.60703  0.01546  0.38503  1.0000
  C   C1135     1.0  0.66731  0.48241  0.01617  1.0000
  H   H923      1.0  0.50920  0.12085  0.45311  1.0000
  C   C1136     1.0  0.50610  0.33644  0.07997  1.0000
  C   C1137     1.0  0.58311  0.02596  0.26767  1.0000
  C   C1138     1.0  0.60367  0.06460  0.33452  1.0000
  H   H924      1.0  0.73414  0.43278  0.07532  1.0000
  H   H925      1.0  0.73412  0.08667  0.20397  1.0000
  P   P39       1.0  0.73848  0.25895  0.31700  1.0000
  H   H926      1.0  0.63717  0.06381  0.24245  1.0000
  C   C1139     1.0  0.51135  0.42025  0.10145  1.0000
  C   C1140     1.0  0.71985  0.23257  0.27857  1.0000
  C   C1141     1.0  0.72117  0.21654  0.25915  1.0000
  C   C1142     1.0  0.53595  0.49706  0.14347  1.0000
  C   C1143     1.0  0.64518  0.41814  0.03708  1.0000
  H   H927      1.0  0.59719  0.48542  0.02268  1.0000
  H   H928      1.0  0.55322  0.49623  0.15287  1.0000
  C   C1144     1.0  0.50331  0.11660  0.47137  1.0000
  H   H929      1.0  0.52432  0.06633  0.44761  1.0000
  C   C1145     1.0  0.71331  0.24698  0.33452  1.0000
  C   C1146     1.0  0.69663  0.26250  0.34598  1.0000
  C   C1147     1.0  0.67688  0.25277  0.35880  1.0000
  C   C1148     1.0  0.67363  0.22753  0.36023  1.0000
  C   C1149     1.0  0.69022  0.21198  0.34898  1.0000
  C   C1150     1.0  0.70998  0.22161  0.33624  1.0000
  C   C1151     1.0  0.71104  0.32188  0.04028  1.0000
  H   H930      1.0  0.57537  0.08860  0.39037  1.0000
  C   C1152     1.0  0.56417  0.07040  0.31575  1.0000
  H   H931      1.0  0.65834  0.06879  0.20037  1.0000
  H   H932      1.0  0.67399  0.10865  0.36497  1.0000
  H   H933      1.0  0.70215  0.23904  0.28434  1.0000
  H   H934      1.0  0.56125  0.43328  0.11815  1.0000
  C   C1153     1.0  0.73182  0.33335  0.31744  1.0000
  H   H935      1.0  0.57440  0.09437  0.46765  1.0000
  H   H936      1.0  0.73254  0.03922  0.29798  1.0000
  C   C1154     1.0  0.68949  0.07326  0.37243  1.0000
  C   C1155     1.0  0.73576  0.30911  0.32447  1.0000
  C   C1156     1.0  0.74109  0.23972  0.29078  1.0000
  H   H937      1.0  0.69865  0.28206  0.34498  1.0000
  H   H938      1.0  0.66397  0.26480  0.36751  1.0000
  H   H939      1.0  0.65822  0.22001  0.36998  1.0000
  C   C1157     1.0  0.52217  0.00629  0.39226  1.0000
  C   C1158     1.0  0.71892  0.41282  0.22012  1.0000
  H   H940      1.0  0.69137  0.09940  0.19918  1.0000
  H   H941      1.0  0.64311  0.02903  0.30519  1.0000
  C   C1159     1.0  0.70217  0.31137  0.01908  1.0000
  C   C1160     1.0  0.59241  0.05652  0.35598  1.0000
  C   C1161     1.0  0.71359  0.42952  0.01729  1.0000
  C   C1162     1.0  0.67714  0.06297  0.20189  1.0000
  C   C1163     1.0  0.54745  0.46453  0.03873  1.0000
  C   C1164     1.0  0.66068  0.04124  0.38222  1.0000
  C   C1165     1.0  0.57089  0.41639  0.11463  1.0000
  H   H942      1.0  0.66775  0.33645  0.20931  1.0000
  H   H943      1.0  0.55964  0.10778  0.42709  1.0000
  H   H944      1.0  0.51670  0.04215  0.37748  1.0000
  H   H945      1.0  0.62325  0.06587  0.33305  1.0000
  S   S157      1.0  0.50364  0.08581  0.39641  1.0000
  C   C1166     1.0  0.72584  0.04815  0.20698  1.0000
  H   H946      1.0  0.59936  0.42444  0.14025  1.0000
  C   C1167     1.0  0.73741  0.32494  0.20807  1.0000
  H   H947      1.0  0.71804  0.44054  0.15526  1.0000
  C   C1168     1.0  0.72623  0.02222  0.29054  1.0000
  H   H948      1.0  0.51188  0.49470  0.08677  1.0000
  C   C1169     1.0  0.60700  0.01709  0.27014  1.0000
  H   H949      1.0  0.73551  0.34796  0.05560  1.0000
  C   C1170     1.0  0.70608  0.02208  0.27503  1.0000
  H   H950      1.0  0.68749  0.37649  0.05533  1.0000
  H   H951      1.0  0.67268  0.09856  0.03144  1.0000
  C   C1171     1.0  0.72441  0.33886  0.29378  1.0000
  C   C1172     1.0  0.69577  0.08023  0.20129  1.0000
  C   C1173     1.0  0.68722  0.33325  0.20940  1.0000
  H   H952      1.0  0.69577  0.37114  0.20930  1.0000
  C   C1174     1.0  0.65640  0.39175  0.00367  1.0000
  C   C1175     1.0  0.58174  0.08203  0.40776  1.0000
  C   C1176     1.0  0.67480  0.38601  0.04346  1.0000
  C   C1177     1.0  0.64308  0.41160  0.01272  1.0000
  S   S158      1.0  0.72464  0.36061  0.10602  1.0000
  H   H953      1.0  0.72141  0.35764  0.28833  1.0000
  C   C1178     1.0  0.70332  0.35295  0.20937  1.0000
  H   H954      1.0  0.73457  0.34787  0.33035  1.0000
  C   C1179     1.0  0.72876  0.34005  0.03897  1.0000
  C   C1180     1.0  0.51875  0.37819  0.07224  1.0000
  C   C1181     1.0  0.53188  0.00520  0.45531  1.0000
  S   S159      1.0  0.72630  0.11429  0.26448  1.0000
  H   H955      1.0  0.56043  0.05565  0.25514  1.0000
  H   H956      1.0  0.70490  0.12403  0.12248  1.0000
  C   C1182     1.0  0.67030  0.08983  0.36985  1.0000
  H   H957      1.0  0.73388  0.22037  0.15839  1.0000
  C   C1183     1.0  0.73637  0.14746  0.11844  1.0000
  H   H958      1.0  0.64466  0.02342  0.26055  1.0000
  S   S160      1.0  0.69008  0.04881  0.26676  1.0000
  H   H959      1.0  0.65634  0.14008  0.03845  1.0000
  C   C1184     1.0  0.70708  0.14303  0.07399  1.0000
  H   H960      1.0  0.53316  0.06074  0.33769  1.0000
  H   H961      1.0  0.55326  0.07671  0.30058  1.0000
  H   H962      1.0  0.68371  0.29413  0.20838  1.0000
  S   S161      1.0  0.61178  0.48840  0.15552  1.0000
  C   C1185     1.0  0.70402  0.10363  0.05441  1.0000
  S   S162      1.0  0.56182  0.49149  0.10067  1.0000
  C   C1186     1.0  0.58130  0.08564  0.45147  1.0000
  C   C1187     1.0  0.61767  0.00045  0.36750  1.0000
  C   C1188     1.0  0.71631  0.43798  0.04093  1.0000
  H   H963      1.0  0.71128  0.08559  0.05112  1.0000
  S   S163      1.0  0.73882  0.15638  0.32076  1.0000
  H   H964      1.0  0.56975  0.36619  0.07863  1.0000
  C   C1189     1.0  0.74364  0.20743  0.25173  1.0000
  C   C1190     1.0  0.65122  0.01179  0.31035  1.0000
  C   C1191     1.0  0.70316  0.18698  0.10389  1.0000
  C   C1192     1.0  0.69098  0.18400  0.12610  1.0000
  C   C1193     1.0  0.67544  0.20225  0.13457  1.0000
  C   C1194     1.0  0.67218  0.22372  0.12118  1.0000
  C   C1195     1.0  0.68383  0.22662  0.09886  1.0000
  C   C1196     1.0  0.69903  0.20825  0.09013  1.0000
  H   H965      1.0  0.62141  0.04189  0.43391  1.0000
  C   C1197     1.0  0.60772  0.05604  0.43231  1.0000
  H   H966      1.0  0.55045  0.00495  0.34779  1.0000
  H   H967      1.0  0.67810  0.16849  0.06504  1.0000
  C   C1198     1.0  0.68229  0.11094  0.04328  1.0000
  H   H968      1.0  0.70777  0.21086  0.07273  1.0000
  C   C1199     1.0  0.68470  0.04903  0.37883  1.0000
  C   C1200     1.0  0.74036  0.26484  0.02564  1.0000
  C   C1201     1.0  0.62622  0.03037  0.25981  1.0000
  Fe  Fe80      1.0  0.71285  0.13703  0.29533  1.0000
  H   H969      1.0  0.70547  0.45311  0.04713  1.0000
  H   H970      1.0  0.54618  0.48415  0.04029  1.0000
  H   H971      1.0  0.52917  0.35684  0.10378  1.0000
  C   C1202     1.0  0.71868  0.43305  0.17349  1.0000
  C   C1203     1.0  0.64127  0.05764  0.37888  1.0000
  C   C1204     1.0  0.57288  0.09313  0.42870  1.0000
  C   C1205     1.0  0.59885  0.06721  0.45328  1.0000
  H   H972      1.0  0.72262  0.20916  0.32762  1.0000
  C   C1206     1.0  0.72510  0.29588  0.28403  1.0000
  H   H973      1.0  0.68919  0.29658  0.02019  1.0000
  H   H974      1.0  0.58328  0.01581  0.41641  1.0000
  H   H975      1.0  0.70466  0.21081  0.25020  1.0000
  C   C1207     1.0  0.69617  0.30943  0.20892  1.0000
  C   C1208     1.0  0.53520  0.49497  0.11823  1.0000
  H   H976      1.0  0.60562  0.06166  0.47093  1.0000
  H   H977      1.0  0.63136  0.42236  0.00094  1.0000
  C   C1209     1.0  0.67305  0.13431  0.04726  1.0000
  H   H978      1.0  0.64546  0.34060  0.00155  1.0000
  C   C1210     1.0  0.64630  0.08212  0.37329  1.0000
  H   H979      1.0  0.60857  0.35845  0.10009  1.0000
  C   C1211     1.0  0.58955  0.07172  0.31460  1.0000
  C   C1212     1.0  0.70421  0.44322  0.19158  1.0000
  C   C1213     1.0  0.68274  0.03831  0.20512  1.0000
  C   C1214     1.0  0.70446  0.43322  0.21493  1.0000
  C   C1215     1.0  0.50966  0.02396  0.37871  1.0000
  C   C1216     1.0  0.63148  0.48645  0.04130  1.0000
  C   C1217     1.0  0.56697  0.05451  0.35669  1.0000
  Fe  Fe81      1.0  0.65181  0.48975  0.09798  1.0000
  C   C1218     1.0  0.72862  0.34898  0.20868  1.0000
  H   H980      1.0  0.55809  0.04802  0.37298  1.0000
  C   C1219     1.0  0.66092  0.40528  0.05248  1.0000
  C   C1220     1.0  0.53796  0.02959  0.45111  1.0000
  C   C1221     1.0  0.59830  0.06240  0.24768  1.0000
  H   H981      1.0  0.63160  0.09517  0.37114  1.0000
  C   C1222     1.0  0.62197  0.05316  0.24915  1.0000
  C   C1223     1.0  0.72000  0.07293  0.20405  1.0000
  C   C1224     1.0  0.72124  0.30529  0.20839  1.0000
  H   H982      1.0  0.59832  0.07903  0.29851  1.0000
  H   H983      1.0  0.74151  0.30515  0.34289  1.0000
  H   H984      1.0  0.74562  0.36112  0.15742  1.0000
  P   P40       1.0  0.72383  0.16394  0.09276  1.0000
  H   H985      1.0  0.53873  0.01108  0.40162  1.0000
  C   C1225     1.0  0.73247  0.29015  0.30782  1.0000
  H   H986      1.0  0.69233  0.45848  0.18730  1.0000
  C   C1226     1.0  0.57882  0.04860  0.25654  1.0000
  H   H987      1.0  0.62798  0.00839  0.35283  1.0000
  H   H988      1.0  0.65745  0.02247  0.38737  1.0000
  Fe  Fe82      1.0  0.59971  0.48983  0.11667  1.0000
  H   H989      1.0  0.59512  0.08031  0.23983  1.0000
  H   H990      1.0  0.71280  0.24748  0.00397  1.0000
  H   H991      1.0  0.71520  0.32442  0.25882  1.0000
  C   C1227     1.0  0.67276  0.37943  0.01908  1.0000
  Fe  Fe83      1.0  0.73726  0.27334  0.08897  1.0000
  C   C1228     1.0  0.59265  0.41164  0.12695  1.0000
  H   H992      1.0  0.66824  0.02500  0.20626  1.0000
  P   P41       1.0  0.74978  0.37424  0.20849  1.0000
  C   C1229     1.0  0.51417  0.50016  0.15662  1.0000
  H   H993      1.0  0.74358  0.40493  0.16395  1.0000
  H   H994      1.0  0.62319  0.48898  0.05886  1.0000
  C   C1230     1.0  0.51267  0.49605  0.10630  1.0000
  C   C1231     1.0  0.67264  0.01198  0.32408  1.0000
  S   S164      1.0  0.74503  0.30540  0.15125  1.0000
  H   H995      1.0  0.68418  0.36497  0.01220  1.0000
  H   H996      1.0  0.70045  0.43801  0.00523  1.0000
  C   C1232     1.0  0.72911  0.25848  0.00368  1.0000
  C   C1233     1.0  0.74701  0.17911  0.07494  1.0000
  C   C1234     1.0  0.74405  0.39829  0.02515  1.0000
  H   H997      1.0  0.74012  0.06568  0.25079  1.0000
  C   C1235     1.0  0.74610  0.40643  0.04913  1.0000
  H   H998      1.0  0.74328  0.15620  0.04327  1.0000
  H   H999      1.0  0.50657  0.32018  0.09126  1.0000
  H   H1000     1.0  0.56795  0.42080  0.00074  1.0000
  H   H1001     1.0  0.50269  0.39509  0.04037  1.0000
  C   C1236     1.0  0.50423  0.37865  0.05127  1.0000
  C   C1237     1.0  0.62715  0.48138  0.99786  1.0000
  Fe  Fe84      1.0  0.72502  0.32160  0.87967  1.0000
  S   S165      1.0  0.69301  0.34823  0.87985  1.0000
  H   H1002     1.0  0.71434  0.22499  0.58339  1.0000
  S   S166      1.0  0.70920  0.23536  0.85775  1.0000
  H   H1003     1.0  0.67452  0.12810  0.57988  1.0000
  C   C1238     1.0  0.73101  0.23324  0.58984  1.0000
  S   S167      1.0  0.71761  0.28856  0.90295  1.0000
  S   S168      1.0  0.74527  0.12166  0.73677  1.0000
  H   H1004     1.0  0.51567  0.01445  0.50937  1.0000
  S   S169      1.0  0.62100  0.47136  0.90370  1.0000
  S   S170      1.0  0.69141  0.46448  0.88320  1.0000
  H   H1005     1.0  0.72940  0.05418  0.88540  1.0000
  H   H1006     1.0  0.64270  0.01676  0.62079  1.0000
  C   C1239     1.0  0.66826  0.05384  0.87558  1.0000
  Fe  Fe85      1.0  0.51503  0.11816  0.57756  1.0000
  S   S171      1.0  0.52685  0.13669  0.61196  1.0000
  S   S172      1.0  0.52687  0.12974  0.53986  1.0000
  Fe  Fe86      1.0  0.53701  0.09921  0.62550  1.0000
  S   S173      1.0  0.57344  0.08572  0.64009  1.0000
  S   S174      1.0  0.52790  0.08158  0.59001  1.0000
  Fe  Fe87      1.0  0.71754  0.12991  0.76549  1.0000
  S   S175      1.0  0.69887  0.15922  0.74403  1.0000
  H   H1007     1.0  0.56536  0.38722  0.96980  1.0000
  Fe  Fe88      1.0  0.71819  0.09456  0.72271  1.0000
  S   S176      1.0  0.70049  0.12212  0.69784  1.0000
  S   S177      1.0  0.73701  0.29958  0.84733  1.0000
  Fe  Fe89      1.0  0.67556  0.12904  0.72912  1.0000
  S   S178      1.0  0.63472  0.13450  0.72472  1.0000
  S   S179      1.0  0.69200  0.10016  0.75346  1.0000
  C   C1240     1.0  0.62793  0.01713  0.71507  1.0000
  H   H1008     1.0  0.64375  0.26912  0.69507  1.0000
  H   H1009     1.0  0.68671  0.07589  0.67224  1.0000
  C   C1241     1.0  0.59026  0.09998  0.66331  1.0000
  C   C1242     1.0  0.61397  0.09171  0.66834  1.0000
  C   C1243     1.0  0.62785  0.10218  0.68702  1.0000
  C   C1244     1.0  0.61806  0.12102  0.70087  1.0000
  C   C1245     1.0  0.59426  0.12919  0.69595  1.0000
  C   C1246     1.0  0.58045  0.11884  0.67714  1.0000
  H   H1010     1.0  0.62173  0.07728  0.65757  1.0000
  H   H1011     1.0  0.64612  0.09576  0.69065  1.0000
  H   H1012     1.0  0.58653  0.14369  0.70666  1.0000
  H   H1013     1.0  0.56217  0.12527  0.67350  1.0000
  H   H1014     1.0  0.73363  0.30527  0.76304  1.0000
  C   C1247     1.0  0.64934  0.32412  0.72254  1.0000
  C   C1248     1.0  0.72073  0.02965  0.71683  1.0000
  C   C1249     1.0  0.69973  0.02747  0.73094  1.0000
  C   C1250     1.0  0.71550  0.24174  0.78089  1.0000
  C   C1251     1.0  0.64263  0.30695  0.70521  1.0000
  S   S180      1.0  0.60816  0.47860  0.97253  1.0000
  H   H1015     1.0  0.53584  0.01342  0.65234  1.0000
  H   H1016     1.0  0.72877  0.03192  0.84677  1.0000
  C   C1252     1.0  0.59579  0.01522  0.68513  1.0000
  H   H1017     1.0  0.51673  0.49936  0.97376  1.0000
  C   C1253     1.0  0.71757  0.20938  0.84075  1.0000
  C   C1254     1.0  0.71173  0.03784  0.85470  1.0000
  H   H1018     1.0  0.50749  0.45604  0.96789  1.0000
  C   C1255     1.0  0.72751  0.16541  0.81608  1.0000
  C   C1256     1.0  0.70448  0.17619  0.81446  1.0000
  C   C1257     1.0  0.69945  0.19778  0.82707  1.0000
  H   H1019     1.0  0.65038  0.03825  0.84494  1.0000
  C   C1258     1.0  0.71077  0.31931  0.99653  1.0000
  H   H1020     1.0  0.69023  0.16736  0.80424  1.0000
  H   H1021     1.0  0.68131  0.20548  0.82635  1.0000
  H   H1022     1.0  0.66769  0.31378  0.91873  1.0000
  H   H1023     1.0  0.71387  0.27435  0.72803  1.0000
  C   C1259     1.0  0.66252  0.31686  0.74309  1.0000
  C   C1260     1.0  0.69334  0.38054  0.88072  1.0000
  C   C1261     1.0  0.67126  0.39293  0.88451  1.0000
  C   C1262     1.0  0.67044  0.41857  0.88519  1.0000
  C   C1263     1.0  0.69168  0.43215  0.88190  1.0000
  C   C1264     1.0  0.71374  0.41978  0.87769  1.0000
  C   C1265     1.0  0.71463  0.39407  0.87729  1.0000
  H   H1024     1.0  0.65465  0.38263  0.88687  1.0000
  H   H1025     1.0  0.65332  0.42786  0.88795  1.0000
  H   H1026     1.0  0.73025  0.43013  0.87494  1.0000
  H   H1027     1.0  0.73170  0.38476  0.87416  1.0000
  H   H1028     1.0  0.74586  0.08118  0.78322  1.0000
  C   C1266     1.0  0.52361  0.48621  0.91473  1.0000
  C   C1267     1.0  0.54374  0.01211  0.53675  1.0000
  C   C1268     1.0  0.58199  0.39253  0.96069  1.0000
  C   C1269     1.0  0.64005  0.01310  0.80242  1.0000
  C   C1270     1.0  0.72951  0.01234  0.78327  1.0000
  P   P42       1.0  0.65520  0.38457  0.97180  1.0000
  C   C1271     1.0  0.62621  0.39357  0.95917  1.0000
  C   C1272     1.0  0.67990  0.40120  0.95795  1.0000
  C   C1273     1.0  0.67843  0.42667  0.95594  1.0000
  C   C1274     1.0  0.69739  0.43986  0.94526  1.0000
  C   C1275     1.0  0.71803  0.42774  0.93675  1.0000
  C   C1276     1.0  0.71980  0.40243  0.93901  1.0000
  C   C1277     1.0  0.70094  0.38919  0.94979  1.0000
  C   C1278     1.0  0.62485  0.40544  0.93659  1.0000
  C   C1279     1.0  0.60224  0.41121  0.92639  1.0000
  C   C1280     1.0  0.65677  0.35233  0.96569  1.0000
  C   C1281     1.0  0.65275  0.02956  0.63177  1.0000
  H   H1029     1.0  0.56334  0.40951  0.93050  1.0000
  C   C1282     1.0  0.73290  0.00838  0.70947  1.0000
  C   C1283     1.0  0.66292  0.31960  0.93688  1.0000
  C   C1284     1.0  0.66214  0.34444  0.94213  1.0000
  C   C1285     1.0  0.65070  0.33500  0.98354  1.0000
  C   C1286     1.0  0.73429  0.24151  0.73383  1.0000
  H   H1030     1.0  0.66236  0.43627  0.96211  1.0000
  H   H1031     1.0  0.69571  0.45939  0.94270  1.0000
  H   H1032     1.0  0.73221  0.43791  0.92755  1.0000
  H   H1033     1.0  0.73546  0.39292  0.93177  1.0000
  H   H1034     1.0  0.70292  0.36965  0.95153  1.0000
  H   H1035     1.0  0.64117  0.41003  0.92667  1.0000
  H   H1036     1.0  0.60134  0.42047  0.90897  1.0000
  C   C1287     1.0  0.67171  0.26913  0.81962  1.0000
  H   H1037     1.0  0.51470  0.04439  0.62738  1.0000
  H   H1038     1.0  0.66586  0.35746  0.92772  1.0000
  C   C1288     1.0  0.54550  0.05861  0.69558  1.0000
  C   C1289     1.0  0.55837  0.07208  0.71269  1.0000
  C   C1290     1.0  0.54648  0.08085  0.73322  1.0000
  C   C1291     1.0  0.52172  0.07602  0.73671  1.0000
  H   H1039     1.0  0.69084  0.06846  0.90389  1.0000
  C   C1292     1.0  0.52085  0.05347  0.69913  1.0000
  C   C1293     1.0  0.65594  0.25871  0.83664  1.0000
  C   C1294     1.0  0.52920  0.02434  0.51957  1.0000
  C   C1295     1.0  0.72737  0.09329  0.64739  1.0000
  H   H1040     1.0  0.60183  0.00968  0.79412  1.0000
  C   C1296     1.0  0.67053  0.04053  0.67024  1.0000
  H   H1041     1.0  0.70868  0.05926  0.59736  1.0000
  H   H1042     1.0  0.62236  0.23946  0.84236  1.0000
  C   C1297     1.0  0.73012  0.25507  0.60268  1.0000
  H   H1043     1.0  0.56274  0.48650  0.91085  1.0000
  C   C1298     1.0  0.53183  0.04948  0.51576  1.0000
  H   H1044     1.0  0.74065  0.16264  0.64450  1.0000
  C   C1299     1.0  0.71040  0.10905  0.63630  1.0000
  C   C1300     1.0  0.70318  0.07302  0.58424  1.0000
  C   C1301     1.0  0.66775  0.04132  0.85360  1.0000
  H   H1045     1.0  0.61752  0.04707  0.69185  1.0000
  H   H1046     1.0  0.65144  0.06027  0.88357  1.0000
  H   H1047     1.0  0.61148  0.23914  0.79868  1.0000
  H   H1048     1.0  0.67193  0.31891  0.80953  1.0000
  C   C1302     1.0  0.63424  0.24795  0.82913  1.0000
  C   C1303     1.0  0.70845  0.26004  0.76439  1.0000
  C   C1304     1.0  0.65688  0.11771  0.62658  1.0000
  H   H1049     1.0  0.63871  0.25783  0.76859  1.0000
  H   H1050     1.0  0.63240  0.31261  0.68932  1.0000
  H   H1051     1.0  0.52418  0.47723  0.93220  1.0000
  C   C1305     1.0  0.71556  0.02860  0.79704  1.0000
  H   H1052     1.0  0.58562  0.02365  0.67044  1.0000
  C   C1306     1.0  0.72462  0.35052  0.80367  1.0000
  H   H1053     1.0  0.66743  0.33045  0.75633  1.0000
  C   C1307     1.0  0.63610  0.15043  0.64769  1.0000
  C   C1308     1.0  0.61574  0.14750  0.63281  1.0000
  C   C1309     1.0  0.61576  0.12957  0.61499  1.0000
  C   C1310     1.0  0.63616  0.11461  0.61198  1.0000
  C   C1311     1.0  0.54910  0.06252  0.52889  1.0000
  H   H1054     1.0  0.68884  0.27660  0.82584  1.0000
  C   C1312     1.0  0.58082  0.40492  0.93849  1.0000
  C   C1313     1.0  0.68395  0.11167  0.57447  1.0000
  C   C1314     1.0  0.65827  0.02372  0.65585  1.0000
  H   H1055     1.0  0.63567  0.16354  0.66228  1.0000
  H   H1056     1.0  0.59957  0.15842  0.63574  1.0000
  H   H1057     1.0  0.59952  0.12658  0.60423  1.0000
  Fe  Fe90      1.0  0.62410  0.49311  0.93774  1.0000
  H   H1058     1.0  0.69020  0.04369  0.73657  1.0000
  C   C1315     1.0  0.67766  0.06300  0.66055  1.0000
  C   C1316     1.0  0.69091  0.00425  0.73745  1.0000
  C   C1317     1.0  0.74581  0.17708  0.82956  1.0000
  C   C1318     1.0  0.67339  0.06849  0.63602  1.0000
  Fe  Fe91      1.0  0.72547  0.14976  0.71474  1.0000
  H   H1059     1.0  0.70808  0.08586  0.52396  1.0000
  C   C1319     1.0  0.64904  0.28248  0.70843  1.0000
  C   C1320     1.0  0.62817  0.24777  0.80455  1.0000
  H   H1060     1.0  0.57742  0.07627  0.70970  1.0000
  S   S181      1.0  0.73309  0.13654  0.80296  1.0000
  H   H1061     1.0  0.69286  0.35473  0.82609  1.0000
  H   H1062     1.0  0.71276  0.26381  0.60606  1.0000
  H   H1063     1.0  0.60531  0.37715  0.98818  1.0000
  C   C1321     1.0  0.54551  0.49149  0.90266  1.0000
  C   C1322     1.0  0.68952  0.03333  0.84291  1.0000
  H   H1064     1.0  0.57407  0.01633  0.56168  1.0000
  C   C1323     1.0  0.50874  0.06213  0.71978  1.0000
  H   H1065     1.0  0.70357  0.14641  0.62520  1.0000
  C   C1324     1.0  0.69045  0.05845  0.88705  1.0000
  P   P43       1.0  0.68618  0.28276  0.77288  1.0000
  H   H1066     1.0  0.51133  0.04332  0.68531  1.0000
  H   H1067     1.0  0.65555  0.05622  0.60328  1.0000
  H   H1068     1.0  0.68552  0.12273  0.53693  1.0000
  C   C1325     1.0  0.70305  0.08801  0.54281  1.0000
  C   C1326     1.0  0.71217  0.05039  0.87664  1.0000
  H   H1069     1.0  0.51256  0.08351  0.75236  1.0000
  C   C1327     1.0  0.66160  0.02611  0.79800  1.0000
  C   C1328     1.0  0.66107  0.04587  0.78170  1.0000
  C   C1329     1.0  0.63950  0.05238  0.76981  1.0000
  C   C1330     1.0  0.61819  0.03921  0.77414  1.0000
  C   C1331     1.0  0.61844  0.01964  0.79052  1.0000
  S   S182      1.0  0.73209  0.05853  0.70777  1.0000
  C   C1332     1.0  0.71850  0.26015  0.74095  1.0000
  C   C1333     1.0  0.66222  0.27517  0.72894  1.0000
  C   C1334     1.0  0.56181  0.02525  0.54910  1.0000
  H   H1070     1.0  0.55638  0.09192  0.74607  1.0000
  H   H1071     1.0  0.71144  0.06641  0.80767  1.0000
  H   H1072     1.0  0.64264  0.02705  0.72354  1.0000
  H   H1073     1.0  0.63551  0.10029  0.59864  1.0000
  C   C1335     1.0  0.70159  0.34397  0.81214  1.0000
  P   P44       1.0  0.68260  0.09744  0.62318  1.0000
  S   S183      1.0  0.74340  0.18166  0.69519  1.0000
  C   C1336     1.0  0.56420  0.05038  0.54541  1.0000
  C   C1337     1.0  0.50798  0.48933  0.98827  1.0000
  P   P45       1.0  0.68936  0.01813  0.81397  1.0000
  H   H1074     1.0  0.66061  0.47810  0.97790  1.0000
  H   H1075     1.0  0.67725  0.05635  0.77809  1.0000
  H   H1076     1.0  0.63935  0.06774  0.75727  1.0000
  H   H1077     1.0  0.60152  0.04429  0.76485  1.0000
  H   H1078     1.0  0.67460  0.03615  0.68895  1.0000
  C   C1338     1.0  0.69031  0.10877  0.55012  1.0000
  H   H1079     1.0  0.66691  0.25608  0.73124  1.0000
  H   H1080     1.0  0.64432  0.34309  0.72010  1.0000
  C   C1339     1.0  0.73146  0.22327  0.77373  1.0000
  C   C1340     1.0  0.66017  0.05191  0.62190  1.0000
  C   C1341     1.0  0.71587  0.13399  0.63441  1.0000
  C   C1342     1.0  0.65758  0.30241  0.95490  1.0000
  C   C1343     1.0  0.74150  0.06190  0.78345  1.0000
  H   H1081     1.0  0.55444  0.05278  0.67912  1.0000
  H   H1082     1.0  0.55068  0.08209  0.52637  1.0000
  H   H1083     1.0  0.70860  0.24150  0.79924  1.0000
  C   C1344     1.0  0.66566  0.26932  0.79489  1.0000
  C   C1345     1.0  0.61388  0.02838  0.69706  1.0000
  C   C1346     1.0  0.69000  0.09360  0.59162  1.0000
  C   C1347     1.0  0.66916  0.29233  0.74639  1.0000
  C   C1348     1.0  0.50796  0.02598  0.62771  1.0000
  H   H1084     1.0  0.72958  0.26213  0.96451  1.0000
  C   C1349     1.0  0.60461  0.38690  0.97105  1.0000
  C   C1350     1.0  0.65653  0.13552  0.64470  1.0000
  H   H1085     1.0  0.57753  0.06058  0.55566  1.0000
  H   H1086     1.0  0.66100  0.25843  0.85565  1.0000
  C   C1351     1.0  0.70158  0.30878  0.78560  1.0000
  H   H1087     1.0  0.65280  0.00630  0.66349  1.0000
  C   C1352     1.0  0.50966  0.11903  0.51513  1.0000
  C   C1353     1.0  0.74842  0.10263  0.65814  1.0000
  H   H1088     1.0  0.65834  0.28315  0.95076  1.0000
  C   C1354     1.0  0.72451  0.31580  0.77681  1.0000
  C   C1355     1.0  0.68993  0.32340  0.80292  1.0000
  C   C1356     1.0  0.64377  0.25842  0.78748  1.0000
  C   C1357     1.0  0.72837  0.33759  0.99514  1.0000
  C   C1358     1.0  0.72193  0.05342  0.79727  1.0000
  H   H1089     1.0  0.67158  0.13749  0.65711  1.0000
  H   H1090     1.0  0.52041  0.05908  0.50282  1.0000
  H   H1091     1.0  0.74914  0.00990  0.69849  1.0000
  C   C1359     1.0  0.70955  0.07019  0.55989  1.0000
  C   C1360     1.0  0.51997  0.00842  0.64188  1.0000
  Fe  Fe92      1.0  0.73215  0.26680  0.87157  1.0000
  H   H1092     1.0  0.72431  0.07383  0.64831  1.0000
  Fe  Fe93      1.0  0.65824  0.48622  0.89539  1.0000
  C   C1361     1.0  0.74099  0.19924  0.84152  1.0000
  H   H1093     1.0  0.64681  0.29676  0.99203  1.0000
  H   H1094     1.0  0.72468  0.40288  0.99135  1.0000
  H   H1095     1.0  0.67458  0.00283  0.74822  1.0000
  H   H1096     1.0  0.50572  0.03847  0.76511  1.0000
  H   H1097     1.0  0.73371  0.36633  0.81105  1.0000
  H   H1098     1.0  0.50583  0.17470  0.56082  1.0000
  C   C1362     1.0  0.73702  0.14324  0.64502  1.0000
  H   H1099     1.0  0.71972  0.05425  0.55431  1.0000
  C   C1363     1.0  0.74062  0.22299  0.75015  1.0000
  C   C1364     1.0  0.73853  0.26678  0.98132  1.0000
  C   C1365     1.0  0.65119  0.31011  0.97815  1.0000
  S   S184      1.0  0.50014  0.09152  0.64174  1.0000
  H   H1100     1.0  0.73458  0.34337  0.97743  1.0000
  H   H1101     1.0  0.70439  0.31080  0.98007  1.0000
  C   C1366     1.0  0.65248  0.48047  0.99554  1.0000
  H   H1102     1.0  0.74142  0.24110  0.71556  1.0000
  H   H1103     1.0  0.73652  0.20900  0.78644  1.0000
  C   C1367     1.0  0.73593  0.33662  0.78579  1.0000
  C   C1368     1.0  0.74920  0.02089  0.76959  1.0000
  C   C1369     1.0  0.50111  0.49291  0.90454  1.0000
  C   C1370     1.0  0.50271  0.46468  0.98482  1.0000
  H   H1104     1.0  0.53106  0.93310  0.46546  1.0000
  H   H1105     1.0  0.57400  0.83062  0.42197  1.0000
  H   H1106     1.0  0.53857  0.96169  0.35243  1.0000
  H   H1107     1.0  0.55390  0.83599  0.49759  1.0000
  C   C1371     1.0  0.63852  0.95765  0.25422  1.0000
  C   C1372     1.0  0.69263  0.68579  0.03969  1.0000
  C   C1373     1.0  0.61899  0.93033  0.22599  1.0000
  S   S185      1.0  0.64540  0.54962  0.16763  1.0000
  S   S186      1.0  0.62540  0.51979  0.10609  1.0000
  H   H1108     1.0  0.73232  0.64540  0.02612  1.0000
  S   S187      1.0  0.71209  0.72006  0.12397  1.0000
  H   H1109     1.0  0.73165  0.56109  0.02805  1.0000
  C   C1374     1.0  0.64459  0.86293  0.41342  1.0000
  C   C1375     1.0  0.57764  0.99784  0.32052  1.0000
  H   H1110     1.0  0.63672  0.57310  0.04696  1.0000
  C   C1376     1.0  0.64966  0.60524  0.00359  1.0000
  S   S188      1.0  0.69968  0.75425  0.18609  1.0000
  Fe  Fe94      1.0  0.70234  0.87410  0.26205  1.0000
  S   S189      1.0  0.68864  0.85270  0.29415  1.0000
  S   S190      1.0  0.70094  0.86439  0.22210  1.0000
  Fe  Fe95      1.0  0.72381  0.91452  0.29368  1.0000
  S   S191      1.0  0.71298  0.89536  0.32816  1.0000
  C   C1377     1.0  0.59002  0.97950  0.40456  1.0000
  Fe  Fe96      1.0  0.67717  0.88899  0.30943  1.0000
  S   S192      1.0  0.64389  0.90400  0.32885  1.0000
  S   S193      1.0  0.68767  0.90985  0.27569  1.0000
  H   H1111     1.0  0.66996  0.66317  0.01786  1.0000
  S   S194      1.0  0.50645  0.90543  0.37047  1.0000
  C   C1378     1.0  0.64070  0.98955  0.30350  1.0000
  H   H1112     1.0  0.61599  0.65325  0.02374  1.0000
  H   H1113     1.0  0.58202  0.88228  0.43950  1.0000
  C   C1379     1.0  0.59454  0.95721  0.25073  1.0000
  Fe  Fe97      1.0  0.52274  0.87285  0.38956  1.0000
  S   S195      1.0  0.55148  0.84920  0.37197  1.0000
  S   S196      1.0  0.53193  0.89209  0.42415  1.0000
  C   C1380     1.0  0.72919  0.97783  0.28796  1.0000
  C   C1381     1.0  0.60608  0.88339  0.49490  1.0000
  H   H1114     1.0  0.57891  0.97137  0.41864  1.0000
  H   H1115     1.0  0.65513  0.96452  0.26210  1.0000
  C   C1382     1.0  0.61827  0.88792  0.33979  1.0000
  C   C1383     1.0  0.59920  0.90139  0.35004  1.0000
  C   C1384     1.0  0.57862  0.88969  0.35974  1.0000
  C   C1385     1.0  0.57701  0.86429  0.35943  1.0000
  C   C1386     1.0  0.59609  0.85073  0.34918  1.0000
  C   C1387     1.0  0.61669  0.86250  0.33935  1.0000
  H   H1116     1.0  0.60048  0.92100  0.35060  1.0000
  H   H1117     1.0  0.56410  0.90031  0.36766  1.0000
  H   H1118     1.0  0.59496  0.83106  0.34888  1.0000
  H   H1119     1.0  0.63135  0.85193  0.33160  1.0000
  S   S197      1.0  0.73960  0.88058  0.27739  1.0000
  C   C1388     1.0  0.62309  0.63952  0.01166  1.0000
  H   H1120     1.0  0.53100  0.88821  0.48104  1.0000
  C   C1389     1.0  0.70149  0.78478  0.19628  1.0000
  C   C1390     1.0  0.69321  0.79049  0.21966  1.0000
  C   C1391     1.0  0.69381  0.81464  0.22812  1.0000
  C   C1392     1.0  0.70173  0.83349  0.21287  1.0000
  C   C1393     1.0  0.70965  0.82784  0.18935  1.0000
  C   C1394     1.0  0.71006  0.80356  0.18126  1.0000
  H   H1121     1.0  0.68648  0.77612  0.23137  1.0000
  H   H1122     1.0  0.68750  0.81873  0.24619  1.0000
  C   C1395     1.0  0.60948  0.88961  0.41283  1.0000
  H   H1123     1.0  0.65777  0.93261  0.23116  1.0000
  S   S198      1.0  0.52976  0.96053  0.41004  1.0000
  H   H1124     1.0  0.53161  0.82060  0.41200  1.0000
  H   H1125     1.0  0.57468  0.93601  0.45485  1.0000
  C   C1396     1.0  0.68460  0.59265  0.15056  1.0000
  C   C1397     1.0  0.70317  0.59073  0.13111  1.0000
  C   C1398     1.0  0.71942  0.60894  0.12391  1.0000
  C   C1399     1.0  0.71954  0.63147  0.13463  1.0000
  C   C1400     1.0  0.70324  0.63586  0.15300  1.0000
  C   C1401     1.0  0.68709  0.61755  0.16094  1.0000
  H   H1126     1.0  0.70642  0.57450  0.12068  1.0000
  H   H1127     1.0  0.73245  0.60520  0.10972  1.0000
  H   H1128     1.0  0.70342  0.65344  0.16179  1.0000
  H   H1129     1.0  0.67642  0.62424  0.17590  1.0000
  C   C1402     1.0  0.51914  0.82223  0.44894  1.0000
  H   H1130     1.0  0.62280  0.96363  0.35492  1.0000
  H   H1131     1.0  0.59158  0.79116  0.44919  1.0000
  H   H1132     1.0  0.71626  0.79946  0.16315  1.0000
  C   C1403     1.0  0.64067  0.62272  0.01980  1.0000
  C   C1404     1.0  0.61567  0.96616  0.26188  1.0000
  C   C1405     1.0  0.73857  0.74234  0.03760  1.0000
  H   H1133     1.0  0.71538  0.84233  0.17728  1.0000
  C   C1406     1.0  0.53670  0.82366  0.43072  1.0000
  Fe  Fe98      1.0  0.74119  0.74036  0.10344  1.0000
  C   C1407     1.0  0.63485  0.85028  0.43328  1.0000
  Fe  Fe99      1.0  0.72510  0.74031  0.15688  1.0000
  H   H1134     1.0  0.55166  0.54658  0.08842  1.0000
  H   H1135     1.0  0.66179  0.85728  0.40563  1.0000
  H   H1136     1.0  0.59220  0.94117  0.29998  1.0000
  H   H1137     1.0  0.73461  0.75671  0.24947  1.0000
  H   H1138     1.0  0.69674  0.69854  0.02511  1.0000
  C   C1408     1.0  0.67774  0.66557  0.03560  1.0000
  H   H1139     1.0  0.74530  0.89327  0.22352  1.0000
  H   H1140     1.0  0.65110  0.75184  0.48124  1.0000
  Fe  Fe100     1.0  0.72559  0.86093  0.31020  1.0000
  C   C1409     1.0  0.61471  0.97516  0.36861  1.0000
  C   C1410     1.0  0.70905  0.97778  0.27251  1.0000
  H   H1141     1.0  0.55278  0.51106  0.00481  1.0000
  C   C1411     1.0  0.67279  0.96791  0.32515  1.0000
  C   C1412     1.0  0.65141  0.96767  0.31142  1.0000
  H   H1142     1.0  0.70238  0.96079  0.26536  1.0000
  C   C1413     1.0  0.66654  0.55132  0.05934  1.0000
  C   C1414     1.0  0.64103  0.76870  0.47888  1.0000
  C   C1415     1.0  0.56747  0.83394  0.46067  1.0000
  C   C1416     1.0  0.64879  0.78987  0.49046  1.0000
  C   C1417     1.0  0.53386  0.54727  0.07992  1.0000
  S   S199      1.0  0.74642  0.82912  0.32688  1.0000
  H   H1143     1.0  0.57984  0.93196  0.22483  1.0000
  C   C1418     1.0  0.74315  0.63249  0.03642  1.0000
  H   H1144     1.0  0.68121  0.95080  0.33057  1.0000
  H   H1145     1.0  0.64340  0.95035  0.30666  1.0000
  H   H1146     1.0  0.62126  0.61422  0.27832  1.0000
  C   C1419     1.0  0.56076  0.82951  0.43650  1.0000
  H   H1147     1.0  0.74518  0.65626  0.06740  1.0000
  C   C1420     1.0  0.61495  0.81238  0.47265  1.0000
  H   H1148     1.0  0.57676  0.96380  0.25609  1.0000
  C   C1421     1.0  0.51334  0.55284  0.09375  1.0000
  H   H1149     1.0  0.60939  0.89273  0.47793  1.0000
  H   H1150     1.0  0.54746  0.53642  0.04539  1.0000
  S   S200      1.0  0.73277  0.75649  0.06596  1.0000
  H   H1151     1.0  0.69583  0.62337  0.00096  1.0000
  H   H1152     1.0  0.59801  0.94521  0.38769  1.0000
  C   C1422     1.0  0.72995  0.75348  0.01616  1.0000
  C   C1423     1.0  0.54966  0.83235  0.47887  1.0000
  C   C1424     1.0  0.58902  0.98008  0.30624  1.0000
  C   C1425     1.0  0.53132  0.54122  0.05548  1.0000
  H   H1153     1.0  0.59938  0.90445  0.40461  1.0000
  C   C1426     1.0  0.55933  0.99123  0.33691  1.0000
  C   C1427     1.0  0.56424  0.94899  0.32585  1.0000
  C   C1428     1.0  0.63769  0.62944  0.24617  1.0000
  C   C1429     1.0  0.58420  0.95634  0.48688  1.0000
  C   C1430     1.0  0.63587  0.81166  0.48730  1.0000
  H   H1154     1.0  0.70354  0.52648  0.02336  1.0000
  H   H1155     1.0  0.60327  0.95778  0.48212  1.0000
  Fe  Fe101     1.0  0.51333  0.92361  0.40601  1.0000
  C   C1431     1.0  0.72138  0.55955  0.01146  1.0000
  C   C1432     1.0  0.59395  0.61566  0.09711  1.0000
  C   C1433     1.0  0.58750  0.63973  0.10203  1.0000
  C   C1434     1.0  0.60053  0.65885  0.09147  1.0000
  C   C1435     1.0  0.61997  0.65394  0.07592  1.0000
  C   C1436     1.0  0.62684  0.62976  0.07101  1.0000
  C   C1437     1.0  0.61347  0.61065  0.08164  1.0000
  P   P46       1.0  0.65200  0.62394  0.05055  1.0000
  H   H1156     1.0  0.72009  0.77053  0.01724  1.0000
  C   C1438     1.0  0.67263  0.64912  0.05455  1.0000
  H   H1157     1.0  0.63929  0.89206  0.38751  1.0000
  C   C1439     1.0  0.55257  0.96684  0.33952  1.0000
  C   C1440     1.0  0.70206  0.68989  0.06281  1.0000
  C   C1441     1.0  0.69697  0.67361  0.08165  1.0000
  C   C1442     1.0  0.68228  0.65340  0.07765  1.0000
  C   C1443     1.0  0.54357  0.94235  0.47753  1.0000
  C   C1444     1.0  0.64012  0.93965  0.23648  1.0000
  C   C1445     1.0  0.66727  0.59552  0.05777  1.0000
  H   H1158     1.0  0.64491  0.83499  0.44071  1.0000
  C   C1446     1.0  0.50123  0.50092  0.00988  1.0000
  C   C1447     1.0  0.69053  0.55094  0.06773  1.0000
  C   C1448     1.0  0.70322  0.57274  0.07043  1.0000
  C   C1449     1.0  0.69173  0.59495  0.06541  1.0000
  H   H1159     1.0  0.58386  0.60080  0.10538  1.0000
  H   H1160     1.0  0.57240  0.64358  0.11401  1.0000
  H   H1161     1.0  0.59562  0.67755  0.09542  1.0000
  H   H1162     1.0  0.62968  0.66915  0.06790  1.0000
  H   H1163     1.0  0.61802  0.59184  0.07848  1.0000
  C   C1450     1.0  0.62119  0.61464  0.25868  1.0000
  H   H1164     1.0  0.65668  0.53449  0.05682  1.0000
  C   C1451     1.0  0.65506  0.57341  0.05416  1.0000
  H   H1165     1.0  0.70444  0.67659  0.09947  1.0000
  H   H1166     1.0  0.67848  0.64111  0.09266  1.0000
  C   C1452     1.0  0.59961  0.87690  0.43251  1.0000
  C   C1453     1.0  0.59622  0.93924  0.23297  1.0000
  H   H1167     1.0  0.71321  0.70576  0.06627  1.0000
  H   H1168     1.0  0.51188  0.82577  0.48703  1.0000
  H   H1169     1.0  0.69933  0.53373  0.07200  1.0000
  H   H1170     1.0  0.72194  0.57247  0.07663  1.0000
  H   H1171     1.0  0.70227  0.61138  0.06747  1.0000
  C   C1454     1.0  0.66589  0.56057  0.12979  1.0000
  C   C1455     1.0  0.68668  0.54989  0.15113  1.0000
  C   C1456     1.0  0.68683  0.56177  0.17977  1.0000
  C   C1457     1.0  0.66580  0.58343  0.18769  1.0000
  C   C1458     1.0  0.64489  0.59418  0.16634  1.0000
  C   C1459     1.0  0.64549  0.58294  0.13739  1.0000
  P   P47       1.0  0.62163  0.61569  0.17506  1.0000
  C   C1460     1.0  0.59183  0.60686  0.16425  1.0000
  C   C1461     1.0  0.62105  0.61568  0.20778  1.0000
  C   C1462     1.0  0.60480  0.60055  0.22049  1.0000
  C   C1463     1.0  0.60483  0.60014  0.24585  1.0000
  C   C1464     1.0  0.63775  0.62986  0.22083  1.0000
  C   C1465     1.0  0.57292  0.62411  0.16336  1.0000
  C   C1466     1.0  0.54944  0.61721  0.15631  1.0000
  C   C1467     1.0  0.54463  0.59302  0.15024  1.0000
  C   C1468     1.0  0.56328  0.57570  0.15119  1.0000
  C   C1469     1.0  0.58673  0.58256  0.15828  1.0000
  C   C1470     1.0  0.62851  0.64599  0.16380  1.0000
  C   C1471     1.0  0.64117  0.64928  0.14192  1.0000
  C   C1472     1.0  0.64801  0.67267  0.13429  1.0000
  C   C1473     1.0  0.64196  0.69294  0.14818  1.0000
  C   C1474     1.0  0.62853  0.68994  0.16946  1.0000
  C   C1475     1.0  0.62163  0.66661  0.17715  1.0000
  H   H1172     1.0  0.66567  0.55293  0.11187  1.0000
  H   H1173     1.0  0.69929  0.53552  0.14651  1.0000
  H   H1174     1.0  0.69945  0.55480  0.19317  1.0000
  H   H1175     1.0  0.66534  0.58976  0.20614  1.0000
  H   H1176     1.0  0.63219  0.58902  0.12432  1.0000
  H   H1177     1.0  0.59237  0.58876  0.21090  1.0000
  H   H1178     1.0  0.59231  0.58834  0.25554  1.0000
  H   H1179     1.0  0.65105  0.64102  0.21144  1.0000
  H   H1180     1.0  0.57616  0.64281  0.16846  1.0000
  H   H1181     1.0  0.53486  0.63054  0.15598  1.0000
  H   H1182     1.0  0.52634  0.58758  0.14527  1.0000
  H   H1183     1.0  0.55951  0.55679  0.14694  1.0000
  H   H1184     1.0  0.60058  0.56866  0.15962  1.0000
  H   H1185     1.0  0.64638  0.63381  0.13107  1.0000
  H   H1186     1.0  0.65850  0.67515  0.11791  1.0000
  H   H1187     1.0  0.64793  0.71099  0.14263  1.0000
  H   H1188     1.0  0.62395  0.70572  0.18026  1.0000
  H   H1189     1.0  0.61138  0.66471  0.19381  1.0000
  H   H1190     1.0  0.66351  0.59223  0.00899  1.0000
  C   C1476     1.0  0.56819  0.94405  0.47153  1.0000
  C   C1477     1.0  0.63191  0.88258  0.40319  1.0000
  H   H1191     1.0  0.61443  0.75296  0.45497  1.0000
  C   C1478     1.0  0.58273  0.95547  0.30963  1.0000
  C   C1479     1.0  0.62035  0.76932  0.46411  1.0000
  C   C1480     1.0  0.61216  0.85711  0.44286  1.0000
  P   P48       1.0  0.59880  0.84076  0.46807  1.0000
  H   H1192     1.0  0.62030  0.91606  0.21257  1.0000
  C   C1481     1.0  0.60083  0.96471  0.38713  1.0000
  C   C1482     1.0  0.52567  0.82641  0.47299  1.0000
  Fe  Fe102     1.0  0.63961  0.51642  0.14417  1.0000
  C   C1483     1.0  0.51346  0.98242  0.39343  1.0000
  C   C1484     1.0  0.60737  0.79107  0.46093  1.0000
  H   H1193     1.0  0.55922  0.93001  0.32815  1.0000
  H   H1194     1.0  0.65060  0.64046  0.25610  1.0000
  C   C1485     1.0  0.70542  0.53987  0.00890  1.0000
  H   H1195     1.0  0.51521  0.55648  0.11292  1.0000
  Fe  Fe103     1.0  0.74180  0.69323  0.13292  1.0000
  S   S201      1.0  0.74440  0.95045  0.29565  1.0000
  S   S202      1.0  0.74129  0.65288  0.12482  1.0000
  C   C1486     1.0  0.50816  0.54079  0.04463  1.0000
  H   H1196     1.0  0.50340  0.97958  0.46234  1.0000
  H   H1197     1.0  0.74375  0.79728  0.26676  1.0000
  C   C1487     1.0  0.68351  0.99006  0.33135  1.0000
  C   C1488     1.0  0.74609  0.76938  0.23962  1.0000
  C   C1489     1.0  0.60061  0.85838  0.49560  1.0000
  C   C1490     1.0  0.50776  0.99868  0.46024  1.0000
  H   H1198     1.0  0.68227  0.99958  0.25378  1.0000
  H   H1199     1.0  0.54569  0.99117  0.45390  1.0000
  H   H1200     1.0  0.70049  0.99017  0.34134  1.0000
  P   P49       1.0  0.50477  0.53347  0.01290  1.0000
  H   H1201     1.0  0.51477  0.50157  0.17616  1.0000
  H   H1202     1.0  0.64233  0.82797  0.49614  1.0000
  P   P50       1.0  0.61317  0.98855  0.28558  1.0000
  C   C1491     1.0  0.73796  0.00015  0.29672  1.0000
  C   C1492     1.0  0.69773  0.99981  0.26591  1.0000
  H   H1203     1.0  0.74965  0.95522  0.24010  1.0000
  H   H1204     1.0  0.74963  0.99999  0.24318  1.0000
  H   H1205     1.0  0.50034  0.81836  0.44441  1.0000
  Fe  Fe104     1.0  0.64530  0.53798  0.91152  1.0000
  S   S203      1.0  0.60738  0.52685  0.92194  1.0000
  S   S204      1.0  0.65345  0.57780  0.91950  1.0000
  C   C1493     1.0  0.74263  0.79968  0.79219  1.0000
  C   C1494     1.0  0.55420  0.57538  0.97532  1.0000
  H   H1206     1.0  0.58839  0.94575  0.62679  1.0000
  C   C1495     1.0  0.64113  0.60453  0.97978  1.0000
  C   C1496     1.0  0.55430  0.98224  0.59002  1.0000
  S   S205      1.0  0.64385  0.51953  0.87541  1.0000
  H   H1207     1.0  0.62965  0.92103  0.81363  1.0000
  S   S206      1.0  0.70930  0.70725  0.90411  1.0000
  Fe  Fe105     1.0  0.73284  0.68690  0.87812  1.0000
  Fe  Fe106     1.0  0.60681  0.50624  0.88726  1.0000
  Fe  Fe107     1.0  0.71765  0.73986  0.88048  1.0000
  S   S207      1.0  0.68673  0.76142  0.86387  1.0000
  H   H1208     1.0  0.64817  0.59093  0.96752  1.0000
  S   S208      1.0  0.72416  0.64977  0.86235  1.0000
  C   C1497     1.0  0.73297  0.76371  0.70138  1.0000
  Fe  Fe108     1.0  0.53126  0.87269  0.65914  1.0000
  S   S209      1.0  0.55004  0.90075  0.63646  1.0000
  S   S210      1.0  0.55186  0.85409  0.68981  1.0000
  H   H1209     1.0  0.69246  0.68075  0.77445  1.0000
  C   C1498     1.0  0.71077  0.68794  0.77570  1.0000
  Fe  Fe109     1.0  0.52649  0.88780  0.60583  1.0000
  S   S211      1.0  0.54471  0.88697  0.56890  1.0000
  H   H1210     1.0  0.55469  0.59323  0.96684  1.0000
  H   H1211     1.0  0.54308  0.99849  0.59105  1.0000
  Fe  Fe110     1.0  0.69137  0.86585  0.71704  1.0000
  S   S212      1.0  0.67743  0.88855  0.74756  1.0000
  S   S213      1.0  0.66761  0.84943  0.68778  1.0000
  Fe  Fe111     1.0  0.70609  0.86992  0.77011  1.0000
  S   S214      1.0  0.70401  0.86242  0.81053  1.0000
  Fe  Fe112     1.0  0.70634  0.91552  0.73664  1.0000
  S   S215      1.0  0.69118  0.95432  0.73938  1.0000
  S   S216      1.0  0.71771  0.84449  0.74058  1.0000
  S   S217      1.0  0.71896  0.89361  0.70463  1.0000
  C   C1499     1.0  0.70323  0.98296  0.73038  1.0000
  C   C1500     1.0  0.62372  0.62130  0.97175  1.0000
  H   H1212     1.0  0.74158  0.68341  0.71782  1.0000
  C   C1501     1.0  0.73214  0.75396  0.72499  1.0000
  C   C1502     1.0  0.52662  0.88338  0.54272  1.0000
  C   C1503     1.0  0.53670  0.88827  0.51981  1.0000
  H   H1213     1.0  0.58811  0.97648  0.51995  1.0000
  C   C1504     1.0  0.58407  0.85448  0.68891  1.0000
  C   C1505     1.0  0.59658  0.85103  0.66715  1.0000
  C   C1506     1.0  0.62216  0.84935  0.66713  1.0000
  C   C1507     1.0  0.63550  0.85214  0.68865  1.0000
  C   C1508     1.0  0.62302  0.85616  0.71036  1.0000
  C   C1509     1.0  0.59738  0.85683  0.71054  1.0000
  H   H1214     1.0  0.58651  0.84888  0.65046  1.0000
  H   H1215     1.0  0.63166  0.84607  0.65031  1.0000
  H   H1216     1.0  0.63310  0.85799  0.72708  1.0000
  H   H1217     1.0  0.58782  0.85913  0.72749  1.0000
  C   C1510     1.0  0.69430  0.78781  0.84704  1.0000
  C   C1511     1.0  0.68156  0.79338  0.82560  1.0000
  C   C1512     1.0  0.68552  0.81562  0.81332  1.0000
  C   C1513     1.0  0.70157  0.83277  0.82298  1.0000
  C   C1514     1.0  0.71432  0.82709  0.84438  1.0000
  C   C1515     1.0  0.71119  0.80446  0.85602  1.0000
  H   H1218     1.0  0.66814  0.78076  0.81884  1.0000
  H   H1219     1.0  0.67525  0.82004  0.79713  1.0000
  H   H1220     1.0  0.60511  0.90221  0.64238  1.0000
  C   C1516     1.0  0.70126  0.97531  0.83953  1.0000
  H   H1221     1.0  0.53944  0.52934  0.93994  1.0000
  H   H1222     1.0  0.55525  0.89452  0.51841  1.0000
  S   S218      1.0  0.50979  0.85726  0.62782  1.0000
  H   H1223     1.0  0.67894  0.93268  0.78837  1.0000
  H   H1224     1.0  0.60269  0.89569  0.55520  1.0000
  C   C1517     1.0  0.70229  0.66227  0.95334  1.0000
  H   H1225     1.0  0.70814  0.70815  0.74229  1.0000
  C   C1518     1.0  0.57558  0.96687  0.50827  1.0000
  C   C1519     1.0  0.71007  0.57401  0.97138  1.0000
  H   H1226     1.0  0.51254  0.62472  0.92267  1.0000
  H   H1227     1.0  0.53063  0.69225  0.82767  1.0000
  C   C1520     1.0  0.62388  0.92638  0.79556  1.0000
  C   C1521     1.0  0.67361  0.59703  0.90333  1.0000
  C   C1522     1.0  0.68810  0.58864  0.88431  1.0000
  C   C1523     1.0  0.70358  0.60493  0.87182  1.0000
  C   C1524     1.0  0.70464  0.62964  0.87826  1.0000
  C   C1525     1.0  0.69028  0.63787  0.89739  1.0000
  C   C1526     1.0  0.67501  0.62161  0.90998  1.0000
  H   H1228     1.0  0.68726  0.56970  0.87910  1.0000
  H   H1229     1.0  0.71476  0.59835  0.85712  1.0000
  H   H1230     1.0  0.69081  0.65683  0.90230  1.0000
  H   H1231     1.0  0.66405  0.62816  0.92483  1.0000
  C   C1527     1.0  0.59729  0.86045  0.53948  1.0000
  C   C1528     1.0  0.54970  0.68956  0.83197  1.0000
  H   H1232     1.0  0.57719  0.98096  0.68224  1.0000
  H   H1233     1.0  0.59116  0.56645  0.96546  1.0000
  C   C1529     1.0  0.74328  0.71325  0.75932  1.0000
  H   H1234     1.0  0.56501  0.98420  0.62752  1.0000
  C   C1530     1.0  0.51736  0.92949  0.72347  1.0000
  H   H1235     1.0  0.72639  0.80462  0.78213  1.0000
  H   H1236     1.0  0.51110  0.96814  0.72557  1.0000
  C   C1531     1.0  0.74582  0.77580  0.80069  1.0000
  H   H1237     1.0  0.59958  0.97449  0.76471  1.0000
  C   C1532     1.0  0.71966  0.70361  0.75764  1.0000
  C   C1533     1.0  0.69121  0.64997  0.97256  1.0000
  H   H1238     1.0  0.67237  0.65369  0.97683  1.0000
  C   C1534     1.0  0.55088  0.96505  0.51453  1.0000
  H   H1239     1.0  0.56956  0.93593  0.55206  1.0000
  C   C1535     1.0  0.69077  0.98544  0.81849  1.0000
  C   C1536     1.0  0.60447  0.97996  0.71069  1.0000
  C   C1537     1.0  0.60716  0.89674  0.51637  1.0000
  C   C1538     1.0  0.51901  0.65840  0.90379  1.0000
  S   S219      1.0  0.73403  0.89837  0.76141  1.0000
  C   C1539     1.0  0.52150  0.57673  0.90408  1.0000
  H   H1240     1.0  0.61103  0.91606  0.51577  1.0000
  C   C1540     1.0  0.72866  0.62749  0.97999  1.0000
  H   H1241     1.0  0.63993  0.99808  0.81526  1.0000
  H   H1242     1.0  0.52218  0.51844  0.85208  1.0000
  S   S220      1.0  0.73921  0.71886  0.85329  1.0000
  H   H1243     1.0  0.51579  0.95116  0.50295  1.0000
  C   C1541     1.0  0.68265  0.96981  0.80018  1.0000
  P   P51       1.0  0.74393  0.60273  0.99534  1.0000
  H   H1244     1.0  0.73887  0.71318  0.63098  1.0000
  H   H1245     1.0  0.71698  0.78934  0.67602  1.0000
  C   C1542     1.0  0.53289  0.56723  0.98667  1.0000
  C   C1543     1.0  0.59651  0.84698  0.51812  1.0000
  H   H1246     1.0  0.61280  0.96235  0.80604  1.0000
  C   C1544     1.0  0.52760  0.54305  0.93196  1.0000
  C   C1545     1.0  0.72375  0.57687  0.99273  1.0000
  H   H1247     1.0  0.63522  0.98414  0.73496  1.0000
  H   H1248     1.0  0.51693  0.93262  0.54832  1.0000
  C   C1546     1.0  0.56653  0.97413  0.61080  1.0000
  C   C1547     1.0  0.60265  0.88529  0.53862  1.0000
  C   C1548     1.0  0.53689  0.55954  0.91498  1.0000
  H   H1249     1.0  0.67506  0.97710  0.78353  1.0000
  H   H1250     1.0  0.71413  0.75601  0.75970  1.0000
  C   C1549     1.0  0.59111  0.99105  0.69185  1.0000
  S   S221      1.0  0.52709  0.96242  0.65946  1.0000
  H   H1251     1.0  0.52880  0.58874  0.89024  1.0000
  H   H1252     1.0  0.73707  0.75755  0.63910  1.0000
  C   C1550     1.0  0.60729  0.95659  0.76780  1.0000
  C   C1551     1.0  0.68477  0.94455  0.80289  1.0000
  P   P52       1.0  0.53994  0.97965  0.54173  1.0000
  C   C1552     1.0  0.50061  0.50447  0.88185  1.0000
  H   H1253     1.0  0.73192  0.76225  0.79774  1.0000
  H   H1254     1.0  0.53189  0.66490  0.91713  1.0000
  H   H1255     1.0  0.55585  0.55829  0.90962  1.0000
  C   C1553     1.0  0.69417  0.55439  0.96897  1.0000
  H   H1256     1.0  0.69665  0.91496  0.82588  1.0000
  S   S222      1.0  0.57246  0.51060  0.86493  1.0000
  C   C1554     1.0  0.73965  0.63987  0.96059  1.0000
  C   C1555     1.0  0.64762  0.72353  0.90548  1.0000
  C   C1556     1.0  0.64779  0.70710  0.92494  1.0000
  C   C1557     1.0  0.64313  0.68243  0.92095  1.0000
  C   C1558     1.0  0.63856  0.67415  0.89746  1.0000
  C   C1559     1.0  0.63874  0.69048  0.87773  1.0000
  C   C1560     1.0  0.64290  0.71533  0.88203  1.0000
  P   P53       1.0  0.63177  0.68019  0.84741  1.0000
  C   C1561     1.0  0.64714  0.69940  0.82548  1.0000
  C   C1562     1.0  0.64113  0.64883  0.84361  1.0000
  C   C1563     1.0  0.66208  0.64305  0.83025  1.0000
  C   C1564     1.0  0.66846  0.61872  0.82637  1.0000
  C   C1565     1.0  0.65424  0.59997  0.83612  1.0000
  C   C1566     1.0  0.63367  0.60553  0.84987  1.0000
  C   C1567     1.0  0.62704  0.62984  0.85350  1.0000
  C   C1568     1.0  0.67079  0.70791  0.83009  1.0000
  C   C1569     1.0  0.68181  0.72441  0.81410  1.0000
  C   C1570     1.0  0.66957  0.73218  0.79323  1.0000
  C   C1571     1.0  0.64645  0.72311  0.78803  1.0000
  C   C1572     1.0  0.63525  0.70675  0.80405  1.0000
  C   C1573     1.0  0.59936  0.68303  0.84244  1.0000
  C   C1574     1.0  0.58647  0.70275  0.85226  1.0000
  C   C1575     1.0  0.56175  0.70598  0.84702  1.0000
  C   C1576     1.0  0.58715  0.66674  0.82713  1.0000
  H   H1257     1.0  0.65167  0.74264  0.90837  1.0000
  H   H1258     1.0  0.65187  0.71351  0.94303  1.0000
  H   H1259     1.0  0.64341  0.66964  0.93599  1.0000
  H   H1260     1.0  0.63527  0.65495  0.89484  1.0000
  H   H1261     1.0  0.64282  0.72851  0.86729  1.0000
  H   H1262     1.0  0.67373  0.65719  0.82302  1.0000
  H   H1263     1.0  0.68488  0.61438  0.81643  1.0000
  H   H1264     1.0  0.65955  0.58111  0.83364  1.0000
  H   H1265     1.0  0.62308  0.59092  0.85796  1.0000
  H   H1266     1.0  0.61093  0.63378  0.86406  1.0000
  H   H1267     1.0  0.68043  0.70247  0.84644  1.0000
  H   H1268     1.0  0.69959  0.73177  0.81833  1.0000
  H   H1269     1.0  0.67786  0.74552  0.78131  1.0000
  H   H1270     1.0  0.63696  0.72921  0.77184  1.0000
  H   H1271     1.0  0.61715  0.70033  0.79984  1.0000
  H   H1272     1.0  0.59559  0.71597  0.86351  1.0000
  H   H1273     1.0  0.52924  0.89215  0.72041  1.0000
  H   H1274     1.0  0.59682  0.65187  0.81863  1.0000
  H   H1275     1.0  0.59309  0.85181  0.55672  1.0000
  C   C1577     1.0  0.72434  0.98512  0.71639  1.0000
  C   C1578     1.0  0.57977  0.95243  0.61038  1.0000
  H   H1276     1.0  0.58994  0.52554  0.98455  1.0000
  H   H1277     1.0  0.68548  0.80353  0.70462  1.0000
  C   C1579     1.0  0.71450  0.76255  0.74122  1.0000
  H   H1278     1.0  0.68425  0.78714  0.74650  1.0000
  H   H1279     1.0  0.72757  0.75178  0.97699  1.0000
  C   C1580     1.0  0.56925  0.94722  0.56807  1.0000
  H   H1280     1.0  0.72623  0.84044  0.85239  1.0000
  H   H1281     1.0  0.55311  0.65729  0.81024  1.0000
  H   H1282     1.0  0.72077  0.80048  0.87273  1.0000
  C   C1581     1.0  0.69762  0.78022  0.73384  1.0000
  H   H1283     1.0  0.61733  0.62062  0.95316  1.0000
  C   C1582     1.0  0.70443  0.63278  0.98600  1.0000
  C   C1583     1.0  0.69494  0.93460  0.82395  1.0000
  C   C1584     1.0  0.65250  0.91559  0.67958  1.0000
  C   C1585     1.0  0.63998  0.90635  0.65965  1.0000
  C   C1586     1.0  0.61485  0.90983  0.65761  1.0000
  C   C1587     1.0  0.60216  0.92241  0.67560  1.0000
  C   C1588     1.0  0.61458  0.93117  0.69597  1.0000
  C   C1589     1.0  0.63991  0.92817  0.69756  1.0000
  P   P54       1.0  0.59889  0.94855  0.71867  1.0000
  C   C1590     1.0  0.60969  0.94025  0.74852  1.0000
  H   H1284     1.0  0.73393  0.96890  0.71073  1.0000
  H   H1285     1.0  0.55456  0.97876  0.72358  1.0000
  Fe  Fe113     1.0  0.51874  0.92480  0.64603  1.0000
  C   C1591     1.0  0.56238  0.66990  0.82212  1.0000
  C   C1592     1.0  0.69836  0.78959  0.71025  1.0000
  C   C1593     1.0  0.54509  0.50326  0.88009  1.0000
  C   C1594     1.0  0.69173  0.53742  0.98774  1.0000
  C   C1595     1.0  0.52257  0.50950  0.86961  1.0000
  H   H1286     1.0  0.71152  0.58694  0.95652  1.0000
  C   C1596     1.0  0.62563  0.90979  0.77659  1.0000
  C   C1597     1.0  0.61847  0.91662  0.75317  1.0000
  C   C1598     1.0  0.56687  0.94143  0.71962  1.0000
  C   C1599     1.0  0.55943  0.91700  0.71923  1.0000
  C   C1600     1.0  0.53479  0.91108  0.72121  1.0000
  C   C1601     1.0  0.52462  0.95385  0.72425  1.0000
  H   H1287     1.0  0.55205  0.72148  0.85434  1.0000
  C   C1602     1.0  0.54933  0.95982  0.72265  1.0000
  H   H1288     1.0  0.67193  0.91263  0.68131  1.0000
  H   H1289     1.0  0.64969  0.89591  0.64616  1.0000
  C   C1603     1.0  0.62349  0.99289  0.72167  1.0000
  H   H1290     1.0  0.58271  0.92507  0.67366  1.0000
  H   H1291     1.0  0.64994  0.93535  0.71281  1.0000
  C   C1604     1.0  0.71610  0.78145  0.69407  1.0000
  H   H1292     1.0  0.68369  0.55231  0.95249  1.0000
  H   H1293     1.0  0.69228  0.67596  0.94323  1.0000
  H   H1294     1.0  0.71853  0.66976  0.80974  1.0000
  C   C1605     1.0  0.51168  0.98438  0.64220  1.0000
  C   C1606     1.0  0.70319  0.94997  0.84227  1.0000
  C   C1607     1.0  0.57472  0.56034  0.97450  1.0000
  H   H1295     1.0  0.72990  0.61010  0.91928  1.0000
  H   H1296     1.0  0.63259  0.89157  0.78001  1.0000
  H   H1297     1.0  0.61967  0.90337  0.73877  1.0000
  H   H1298     1.0  0.57264  0.90249  0.71722  1.0000
  H   H1299     1.0  0.71130  0.94219  0.85850  1.0000
  C   C1608     1.0  0.61457  0.94972  0.79120  1.0000
  C   C1609     1.0  0.55629  0.96930  0.56826  1.0000
  H   H1300     1.0  0.58999  0.92130  0.58924  1.0000
  C   C1610     1.0  0.72540  0.68170  0.79555  1.0000
  C   C1611     1.0  0.58088  0.93882  0.58912  1.0000
  C   C1612     1.0  0.73411  0.74287  0.99330  1.0000
  Fe  Fe114     1.0  0.74394  0.71663  0.92406  1.0000
  S   S223      1.0  0.50110  0.89779  0.67079  1.0000
  H   H1301     1.0  0.73487  0.66647  0.93220  1.0000
  H   H1302     1.0  0.59217  0.82775  0.51915  1.0000
  C   C1613     1.0  0.74698  0.72093  0.99165  1.0000
  H   H1303     1.0  0.60118  0.65187  0.98148  1.0000
  Fe  Fe115     1.0  0.74430  0.87382  0.73050  1.0000
  H   H1304     1.0  0.51722  0.57911  0.98677  1.0000
  C   C1614     1.0  0.57401  0.53721  0.98517  1.0000
  H   H1305     1.0  0.67922  0.52237  0.98576  1.0000
  S   S224      1.0  0.66224  0.50589  0.93092  1.0000
  H   H1306     1.0  0.70810  0.98684  0.85378  1.0000
  C   C1615     1.0  0.72634  0.65695  0.94716  1.0000
  H   H1307     1.0  0.66492  0.78942  0.50178  1.0000
  C   C1616     1.0  0.50880  0.97121  0.54773  1.0000
  C   C1617     1.0  0.53193  0.54388  0.99730  1.0000
  H   H1308     1.0  0.72488  0.99321  0.78234  1.0000
  H   H1309     1.0  0.52128  0.69082  0.88167  1.0000
  C   C1618     1.0  0.50811  0.63557  0.90677  1.0000
  C   C1619     1.0  0.74691  0.57579  0.91142  1.0000
  H   H1310     1.0  0.73105  0.56517  0.91650  1.0000
  C   C1620     1.0  0.61470  0.63883  0.98769  1.0000
  C   C1621     1.0  0.51306  0.67300  0.88378  1.0000
  C   C1622     1.0  0.52290  0.88499  0.49861  1.0000
  C   C1623     1.0  0.74628  0.60114  0.91302  1.0000
  C   C1624     1.0  0.55277  0.52900  0.99653  1.0000
  C   C1625     1.0  0.50243  0.87571  0.54434  1.0000
  H   H1311     1.0  0.74691  0.75811  0.68877  1.0000
  H   H1312     1.0  0.74213  0.90126  0.82140  1.0000
  C   C1626     1.0  0.74895  0.69104  0.79727  1.0000
  C   C1627     1.0  0.50295  0.94642  0.55016  1.0000
  C   C1628     1.0  0.50288  0.54354  0.93785  1.0000
  C   C1629     1.0  0.53493  0.95275  0.49892  1.0000
  Fe  Fe116     1.0  0.77345  0.28641  0.12939  1.0000
  S   S225      1.0  0.81251  0.28156  0.14180  1.0000
  H   H1313     1.0  0.92437  0.26487  0.44792  1.0000
  C   C1630     1.0  0.97526  0.36500  0.49388  1.0000
  Fe  Fe117     1.0  0.86551  0.27962  0.27354  1.0000
  S   S226      1.0  0.88286  0.24527  0.26004  1.0000
  S   S227      1.0  0.84476  0.30661  0.24975  1.0000
  Fe  Fe118     1.0  0.87505  0.26702  0.32672  1.0000
  S   S228      1.0  0.89216  0.23131  0.31654  1.0000
  S   S229      1.0  0.87646  0.27268  0.36758  1.0000
  Fe  Fe119     1.0  0.91228  0.25244  0.28775  1.0000
  S   S230      1.0  0.95253  0.24108  0.28747  1.0000
  Fe  Fe120     1.0  0.86157  0.22717  0.29007  1.0000
  S   S231      1.0  0.84189  0.19198  0.28092  1.0000
  S   S232      1.0  0.89648  0.28848  0.29925  1.0000
  S   S233      1.0  0.84280  0.26111  0.30215  1.0000
  Fe  Fe121     1.0  0.86885  0.37287  0.46743  1.0000
  S   S234      1.0  0.90568  0.38946  0.46247  1.0000
  S   S235      1.0  0.84879  0.36387  0.43258  1.0000
  H   H1314     1.0  0.92844  0.26078  0.37907  1.0000
  H   H1315     1.0  0.78037  0.23594  0.29217  1.0000
  Fe  Fe122     1.0  0.91647  0.36571  0.49370  1.0000
  H   H1316     1.0  0.82002  0.35128  0.13620  1.0000
  C   C1631     1.0  0.77076  0.06625  0.13998  1.0000
  H   H1317     1.0  0.78944  0.21840  0.03391  1.0000
  H   H1318     1.0  0.96188  0.42917  0.36888  1.0000
  Fe  Fe123     1.0  0.89430  0.41684  0.49038  1.0000
  C   C1632     1.0  0.77826  0.20701  0.04556  1.0000
  C   C1633     1.0  0.79729  0.36875  0.19080  1.0000
  H   H1319     1.0  0.76183  0.06597  0.12247  1.0000
  H   H1320     1.0  0.78778  0.29732  0.00252  1.0000
  H   H1321     1.0  0.83363  0.36233  0.17757  1.0000
  S   S236      1.0  0.75071  0.25325  0.12218  1.0000
  H   H1322     1.0  0.97993  0.31912  0.45508  1.0000
  C   C1634     1.0  0.78936  0.24065  0.36862  1.0000
  C   C1635     1.0  0.98041  0.34432  0.25682  1.0000
  C   C1636     1.0  0.81324  0.18279  0.29246  1.0000
  C   C1637     1.0  0.80031  0.16469  0.28006  1.0000
  C   C1638     1.0  0.77732  0.15691  0.28824  1.0000
  C   C1639     1.0  0.76733  0.16656  0.30941  1.0000
  C   C1640     1.0  0.78056  0.18420  0.32219  1.0000
  C   C1641     1.0  0.80325  0.19262  0.31357  1.0000
  H   H1323     1.0  0.80803  0.15688  0.26388  1.0000
  C   C1642     1.0  0.94944  0.27040  0.34750  1.0000
  H   H1324     1.0  0.77321  0.19137  0.33881  1.0000
  H   H1325     1.0  0.81314  0.20639  0.32343  1.0000
  C   C1643     1.0  0.98098  0.25367  0.27837  1.0000
  C   C1644     1.0  0.97412  0.30179  0.44782  1.0000
  C   C1645     1.0  0.98289  0.27312  0.26192  1.0000
  C   C1646     1.0  0.93939  0.27470  0.37031  1.0000
  H   H1326     1.0  0.96656  0.28151  0.25473  1.0000
  C   C1647     1.0  0.87061  0.29946  0.38432  1.0000
  C   C1648     1.0  0.87875  0.30055  0.40845  1.0000
  C   C1649     1.0  0.87305  0.32065  0.42311  1.0000
  C   C1650     1.0  0.85855  0.33959  0.41394  1.0000
  C   C1651     1.0  0.85071  0.33868  0.38968  1.0000
  C   C1652     1.0  0.85699  0.31886  0.37480  1.0000
  H   H1327     1.0  0.88919  0.28557  0.41598  1.0000
  H   H1328     1.0  0.87911  0.32110  0.44176  1.0000
  H   H1329     1.0  0.83952  0.35327  0.38246  1.0000
  H   H1330     1.0  0.85071  0.31829  0.35625  1.0000
  C   C1653     1.0  0.95054  0.29356  0.45282  1.0000
  C   C1654     1.0  0.75347  0.12385  0.16049  1.0000
  C   C1655     1.0  0.82039  0.28739  0.17240  1.0000
  C   C1656     1.0  0.80663  0.30323  0.18664  1.0000
  C   C1657     1.0  0.81433  0.30901  0.21026  1.0000
  C   C1658     1.0  0.83539  0.29833  0.22020  1.0000
  C   C1659     1.0  0.84881  0.28191  0.20620  1.0000
  C   C1660     1.0  0.84153  0.27680  0.18228  1.0000
  H   H1331     1.0  0.79054  0.31171  0.17913  1.0000
  H   H1332     1.0  0.80395  0.32178  0.22089  1.0000
  H   H1333     1.0  0.86513  0.27366  0.21358  1.0000
  H   H1334     1.0  0.85242  0.26473  0.17133  1.0000
  H   H1335     1.0  0.83471  0.39294  0.06072  1.0000
  C   C1661     1.0  0.96865  0.41909  0.43540  1.0000
  C   C1662     1.0  0.94653  0.42493  0.42428  1.0000
  C   C1663     1.0  0.94018  0.44932  0.42045  1.0000
  C   C1664     1.0  0.95587  0.46789  0.42785  1.0000
  C   C1665     1.0  0.97829  0.46215  0.43887  1.0000
  C   C1666     1.0  0.76156  0.27880  0.02508  1.0000
  H   H1336     1.0  0.79109  0.41886  0.27431  1.0000
  C   C1667     1.0  0.81443  0.36280  0.17304  1.0000
  H   H1337     1.0  0.94979  0.48657  0.42598  1.0000
  C   C1668     1.0  0.97596  0.36507  0.34248  1.0000
  C   C1669     1.0  0.82551  0.35510  0.06563  1.0000
  S   S237      1.0  0.90694  0.45571  0.48296  1.0000
  S   S238      1.0  0.88052  0.34685  0.49703  1.0000
  P   P55       1.0  0.98232  0.33510  0.33058  1.0000
  C   C1670     1.0  0.76764  0.18584  0.03648  1.0000
  H   H1338     1.0  0.81209  0.31824  0.06675  1.0000
  H   H1339     1.0  0.76919  0.41576  0.23543  1.0000
  C   C1671     1.0  0.75896  0.06065  0.25360  1.0000
  C   C1672     1.0  0.77174  0.05432  0.18255  1.0000
  H   H1340     1.0  0.78118  0.23091  0.07613  1.0000
  C   C1673     1.0  0.76370  0.23085  0.28303  1.0000
  C   C1674     1.0  0.96577  0.41142  0.36130  1.0000
  H   H1341     1.0  0.75928  0.14155  0.22813  1.0000
  C   C1675     1.0  0.97031  0.38991  0.49401  1.0000
  H   H1342     1.0  0.76055  0.07776  0.28861  1.0000
  C   C1676     1.0  0.95871  0.25645  0.43098  1.0000
  H   H1343     1.0  0.80031  0.08891  0.12765  1.0000
  H   H1344     1.0  0.95497  0.47423  0.48371  1.0000
  H   H1345     1.0  0.93528  0.32530  0.30753  1.0000
  C   C1677     1.0  0.94283  0.29718  0.38146  1.0000
  H   H1346     1.0  0.80236  0.06873  0.20274  1.0000
  C   C1678     1.0  0.80937  0.33649  0.05954  1.0000
  C   C1679     1.0  0.80679  0.35654  0.14975  1.0000
  C   C1680     1.0  0.96558  0.31159  0.34643  1.0000
  C   C1681     1.0  0.95616  0.31545  0.36974  1.0000
  C   C1682     1.0  0.82208  0.37856  0.05616  1.0000
  C   C1683     1.0  0.89265  0.48318  0.49198  1.0000
  C   C1684     1.0  0.97222  0.33640  0.29944  1.0000
  C   C1685     1.0  0.98225  0.26466  0.42585  1.0000
  C   C1686     1.0  0.97110  0.47369  0.49499  1.0000
  H   H1347     1.0  0.78230  0.20743  0.25794  1.0000
  C   C1687     1.0  0.94033  0.33112  0.26938  1.0000
  C   C1688     1.0  0.94809  0.33053  0.29353  1.0000
  C   C1689     1.0  0.98818  0.34388  0.28097  1.0000
  C   C1690     1.0  0.78577  0.36497  0.03503  1.0000
  H   H1348     1.0  0.78339  0.28804  0.31644  1.0000
  H   H1349     1.0  0.99788  0.28390  0.38041  1.0000
  H   H1350     1.0  0.98228  0.33542  0.41364  1.0000
  C   C1691     1.0  0.94720  0.39420  0.35923  1.0000
  C   C1692     1.0  0.95217  0.37127  0.34949  1.0000
  H   H1351     1.0  0.93465  0.30058  0.39898  1.0000
  C   C1693     1.0  0.76573  0.25818  0.33545  1.0000
  H   H1352     1.0  0.98466  0.37893  0.40329  1.0000
  H   H1353     1.0  0.97297  0.40029  0.43979  1.0000
  H   H1354     1.0  0.95859  0.33262  0.37877  1.0000
  C   C1694     1.0  0.80507  0.27521  0.34624  1.0000
  C   C1695     1.0  0.95653  0.33782  0.25101  1.0000
  H   H1355     1.0  0.82894  0.10738  0.21849  1.0000
  H   H1356     1.0  0.92178  0.32612  0.26488  1.0000
  C   C1696     1.0  0.78508  0.40122  0.26800  1.0000
  C   C1697     1.0  0.78964  0.34136  0.04420  1.0000
  H   H1357     1.0  0.77484  0.17935  0.21015  1.0000
  C   C1698     1.0  0.75971  0.00618  0.20569  1.0000
  H   H1358     1.0  0.94652  0.25304  0.33873  1.0000
  H   H1359     1.0  0.92887  0.39861  0.36506  1.0000
  H   H1360     1.0  0.93741  0.35833  0.34758  1.0000
  C   C1699     1.0  0.80371  0.07989  0.16560  1.0000
  C   C1700     1.0  0.79242  0.07919  0.14291  1.0000
  H   H1361     1.0  0.98538  0.42580  0.49380  1.0000
  H   H1362     1.0  0.92210  0.20926  0.22076  1.0000
  H   H1363     1.0  0.76981  0.16830  0.12068  1.0000
  C   C1701     1.0  0.79343  0.06754  0.18536  1.0000
  H   H1364     1.0  0.77749  0.32667  0.03956  1.0000
  P   P56       1.0  0.75742  0.03890  0.20791  1.0000
  C   C1702     1.0  0.77163  0.04721  0.23618  1.0000
  C   C1703     1.0  0.79557  0.03959  0.24113  1.0000
  C   C1704     1.0  0.80693  0.04609  0.26284  1.0000
  C   C1705     1.0  0.79439  0.06008  0.27981  1.0000
  C   C1706     1.0  0.77042  0.06727  0.27523  1.0000
  H   H1365     1.0  0.75956  0.11547  0.17728  1.0000
  H   H1366     1.0  0.93823  0.30471  0.46337  1.0000
  H   H1367     1.0  0.80314  0.06523  0.29664  1.0000
  H   H1368     1.0  0.80902  0.26139  0.24986  1.0000
  H   H1369     1.0  0.77622  0.21583  0.17980  1.0000
  C   C1707     1.0  0.80761  0.25794  0.36478  1.0000
  H   H1370     1.0  0.76757  0.14316  0.27836  1.0000
  H   H1371     1.0  0.79993  0.40169  0.03347  1.0000
  C   C1708     1.0  0.98452  0.43759  0.44247  1.0000
  H   H1372     1.0  0.80373  0.37307  0.20879  1.0000
  C   C1709     1.0  0.75201  0.17194  0.05106  1.0000
  H   H1373     1.0  0.95057  0.33788  0.23228  1.0000
  H   H1374     1.0  0.82036  0.09018  0.16792  1.0000
  C   C1710     1.0  0.77228  0.36825  0.18539  1.0000
  C   C1711     1.0  0.78454  0.27499  0.33122  1.0000
  H   H1375     1.0  0.79150  0.22706  0.38281  1.0000
  C   C1712     1.0  0.79041  0.38027  0.28158  1.0000
  H   H1376     1.0  0.80550  0.02883  0.22808  1.0000
  H   H1377     1.0  0.82544  0.04029  0.26656  1.0000
  C   C1713     1.0  0.78200  0.35641  0.14414  1.0000
  H   H1378     1.0  0.99301  0.34942  0.24257  1.0000
  C   C1714     1.0  0.94274  0.27103  0.44421  1.0000
  H   H1379     1.0  0.92247  0.45385  0.41297  1.0000
  H   H1380     1.0  0.84501  0.14528  0.20030  1.0000
  C   C1715     1.0  0.96259  0.28872  0.33563  1.0000
  H   H1381     1.0  0.86373  0.22104  0.17023  1.0000
  H   H1382     1.0  0.78437  0.14748  0.15771  1.0000
  C   C1716     1.0  0.99397  0.47943  0.48517  1.0000
  C   C1717     1.0  0.78310  0.35747  0.27323  1.0000
  H   H1383     1.0  0.95276  0.23883  0.42456  1.0000
  H   H1384     1.0  0.75417  0.20616  0.10218  1.0000
  H   H1385     1.0  0.96996  0.28514  0.31781  1.0000
  H   H1386     1.0  0.90625  0.22791  0.18272  1.0000
  C   C1718     1.0  0.77369  0.21401  0.06939  1.0000
  C   C1719     1.0  0.76747  0.14195  0.14940  1.0000
  H   H1387     1.0  0.77600  0.35146  0.12611  1.0000
  H   H1388     1.0  0.76970  0.27359  0.23123  1.0000
  H   H1389     1.0  0.78779  0.34114  0.28344  1.0000
  H   H1390     1.0  0.93386  0.41062  0.41955  1.0000
  H   H1391     1.0  0.77061  0.28330  0.04184  1.0000
  H   H1392     1.0  0.82388  0.25785  0.37596  1.0000
  H   H1393     1.0  0.81942  0.28841  0.34323  1.0000
  H   H1394     1.0  0.75453  0.22736  0.35761  1.0000
  H   H1395     1.0  0.78600  0.10544  0.23261  1.0000
  C   C1720     1.0  0.98922  0.40585  0.35322  1.0000
  H   H1396     1.0  0.83216  0.22687  0.23375  1.0000
  H   H1397     1.0  0.80056  0.38162  0.29838  1.0000
  C   C1721     1.0  0.76481  0.36195  0.16194  1.0000
  C   C1722     1.0  0.80236  0.38347  0.04078  1.0000
  H   H1398     1.0  0.84073  0.35126  0.07759  1.0000
  C   C1723     1.0  0.82572  0.17325  0.12145  1.0000
  C   C1724     1.0  0.82064  0.19499  0.10905  1.0000
  C   C1725     1.0  0.81644  0.21635  0.12201  1.0000
  C   C1726     1.0  0.81709  0.21593  0.14732  1.0000
  C   C1727     1.0  0.82145  0.19407  0.15996  1.0000
  C   C1728     1.0  0.82640  0.17284  0.14682  1.0000
  P   P57       1.0  0.82349  0.19389  0.19265  1.0000
  C   C1729     1.0  0.81131  0.16543  0.20419  1.0000
  C   C1730     1.0  0.85513  0.19761  0.20083  1.0000
  C   C1731     1.0  0.86426  0.18724  0.22232  1.0000
  C   C1732     1.0  0.88840  0.19115  0.22927  1.0000
  C   C1733     1.0  0.90361  0.20564  0.21490  1.0000
  C   C1734     1.0  0.89464  0.21619  0.19354  1.0000
  C   C1735     1.0  0.87049  0.21223  0.18651  1.0000
  C   C1736     1.0  0.78692  0.16387  0.21165  1.0000
  C   C1737     1.0  0.77789  0.14225  0.22168  1.0000
  C   C1738     1.0  0.79296  0.12188  0.22414  1.0000
  C   C1739     1.0  0.81708  0.12301  0.21619  1.0000
  C   C1740     1.0  0.82618  0.14462  0.20606  1.0000
  C   C1741     1.0  0.80617  0.21890  0.20519  1.0000
  C   C1742     1.0  0.78363  0.22564  0.19505  1.0000
  C   C1743     1.0  0.77052  0.24530  0.20438  1.0000
  C   C1744     1.0  0.77969  0.25824  0.22408  1.0000
  C   C1745     1.0  0.80185  0.25137  0.23458  1.0000
  C   C1746     1.0  0.81505  0.23178  0.22523  1.0000
  H   H1399     1.0  0.82947  0.15682  0.11137  1.0000
  H   H1400     1.0  0.82036  0.19543  0.08941  1.0000
  H   H1401     1.0  0.81306  0.23345  0.11257  1.0000
  H   H1402     1.0  0.81457  0.23281  0.15697  1.0000
  H   H1403     1.0  0.83092  0.15601  0.15611  1.0000
  H   H1404     1.0  0.85257  0.17672  0.23417  1.0000
  H   H1405     1.0  0.89500  0.18374  0.24635  1.0000
  C   C1747     1.0  0.76041  0.05395  0.15971  1.0000
  P   P58       1.0  0.76033  0.37163  0.01533  1.0000
  C   C1748     1.0  0.99426  0.38287  0.34358  1.0000
  C   C1749     1.0  0.77123  0.28670  0.00277  1.0000
  S   S239      1.0  0.76282  0.30460  0.09419  1.0000
  C   C1750     1.0  0.76488  0.21463  0.26361  1.0000
  C   C1751     1.0  0.76843  0.24084  0.35414  1.0000
  H   H1406     1.0  0.75331  0.25054  0.19623  1.0000
  C   C1752     1.0  0.77248  0.39939  0.24603  1.0000
  H   H1407     1.0  0.77084  0.18074  0.01782  1.0000
  P   P59       1.0  0.99650  0.48552  0.45298  1.0000
  H   H1408     1.0  0.76985  0.00554  0.16770  1.0000
  H   H1409     1.0  0.99440  0.25282  0.41596  1.0000
  H   H1410     1.0  0.95181  0.39649  0.49359  1.0000
  H   H1411     1.0  0.75764  0.39703  0.06212  1.0000
  H   H1412     1.0  0.75675  0.32133  0.20680  1.0000
  C   C1753     1.0  0.75826  0.20005  0.08406  1.0000
  C   C1754     1.0  0.98980  0.28790  0.43332  1.0000
  C   C1755     1.0  0.75900  0.15380  0.12845  1.0000
  S   S240      1.0  0.95122  0.34438  0.49317  1.0000
  C   C1756     1.0  0.99936  0.35674  0.49393  1.0000
  C   C1757     1.0  0.76470  0.37657  0.23767  1.0000
  S   S241      1.0  0.85636  0.40201  0.49349  1.0000
  C   C1758     1.0  0.77029  0.35560  0.25142  1.0000
  C   C1759     1.0  0.98937  0.40661  0.49395  1.0000
  H   H1413     1.0  0.76535  0.33768  0.24529  1.0000
  C   C1760     1.0  0.99987  0.34412  0.41331  1.0000
  H   H1414     1.0  0.78613  0.41821  0.94224  1.0000
  C   C1761     1.0  0.80834  0.31801  0.67170  1.0000
  H   H1415     1.0  0.81937  0.33385  0.67571  1.0000
  S   S242      1.0  0.81179  0.30441  0.84578  1.0000
  Fe  Fe124     1.0  0.86638  0.29579  0.71687  1.0000
  S   S243      1.0  0.88225  0.26314  0.73564  1.0000
  S   S244      1.0  0.83782  0.32001  0.73427  1.0000
  Fe  Fe125     1.0  0.89117  0.28407  0.66892  1.0000
  S   S245      1.0  0.90800  0.24975  0.68415  1.0000
  S   S246      1.0  0.90246  0.29198  0.62996  1.0000
  Fe  Fe126     1.0  0.87180  0.24311  0.70198  1.0000
  S   S247      1.0  0.85615  0.20503  0.70604  1.0000
  Fe  Fe127     1.0  0.91728  0.27242  0.71637  1.0000
  S   S248      1.0  0.95402  0.26717  0.73516  1.0000
  S   S249      1.0  0.85407  0.27521  0.68385  1.0000
  S   S250      1.0  0.90233  0.30733  0.70044  1.0000
  Fe  Fe128     1.0  0.87188  0.37731  0.52275  1.0000
  S   S251      1.0  0.90890  0.39427  0.52142  1.0000
  S   S252      1.0  0.85572  0.37260  0.56035  1.0000
  H   H1416     1.0  0.82363  0.31327  0.63630  1.0000
  H   H1417     1.0  0.98009  0.48335  0.66603  1.0000
  C   C1762     1.0  0.81069  0.32571  0.56972  1.0000
  C   C1763     1.0  0.83463  0.20674  0.64361  1.0000
  H   H1418     1.0  0.76962  0.05238  0.75803  1.0000
  C   C1764     1.0  0.82436  0.24592  0.62544  1.0000
  H   H1419     1.0  0.92881  0.24633  0.62809  1.0000
  C   C1765     1.0  0.86683  0.46024  0.58545  1.0000
  C   C1766     1.0  0.82439  0.19978  0.70534  1.0000
  C   C1767     1.0  0.80812  0.21737  0.69650  1.0000
  C   C1768     1.0  0.78331  0.21161  0.69372  1.0000
  C   C1769     1.0  0.77444  0.18853  0.70035  1.0000
  C   C1770     1.0  0.79055  0.17127  0.71005  1.0000
  C   C1771     1.0  0.81545  0.17682  0.71234  1.0000
  H   H1420     1.0  0.81481  0.23507  0.69096  1.0000
  C   C1772     1.0  0.75502  0.04567  0.76945  1.0000
  H   H1421     1.0  0.78401  0.15342  0.71518  1.0000
  H   H1422     1.0  0.82790  0.16314  0.71929  1.0000
  C   C1773     1.0  0.98176  0.27199  0.71939  1.0000
  H   H1423     1.0  0.79168  0.31727  0.70698  1.0000
  C   C1774     1.0  0.98188  0.28185  0.69600  1.0000
  H   H1424     1.0  0.82900  0.18978  0.65210  1.0000
  H   H1425     1.0  0.96479  0.28642  0.68738  1.0000
  C   C1775     1.0  0.88900  0.31448  0.61107  1.0000
  C   C1776     1.0  0.89659  0.31631  0.58683  1.0000
  C   C1777     1.0  0.88659  0.33410  0.57120  1.0000
  C   C1778     1.0  0.86876  0.35013  0.57966  1.0000
  C   C1779     1.0  0.86109  0.34824  0.60391  1.0000
  C   C1780     1.0  0.87126  0.33055  0.61961  1.0000
  H   H1426     1.0  0.91035  0.30398  0.58012  1.0000
  H   H1427     1.0  0.89269  0.33538  0.55260  1.0000
  H   H1428     1.0  0.84731  0.36058  0.61059  1.0000
  H   H1429     1.0  0.86552  0.32946  0.63833  1.0000
  C   C1781     1.0  0.81796  0.30796  0.81446  1.0000
  C   C1782     1.0  0.84047  0.29990  0.80543  1.0000
  C   C1783     1.0  0.84642  0.30292  0.78082  1.0000
  C   C1784     1.0  0.83035  0.31498  0.76514  1.0000
  C   C1785     1.0  0.80809  0.32367  0.77426  1.0000
  C   C1786     1.0  0.80172  0.31977  0.79876  1.0000
  H   H1430     1.0  0.85347  0.29137  0.81756  1.0000
  H   H1431     1.0  0.86378  0.29655  0.77417  1.0000
  H   H1432     1.0  0.79571  0.33325  0.76228  1.0000
  H   H1433     1.0  0.78464  0.32644  0.80577  1.0000
  H   H1434     1.0  0.83434  0.25933  0.57572  1.0000
  C   C1787     1.0  0.97144  0.28053  0.57292  1.0000
  C   C1788     1.0  0.95672  0.28286  0.55238  1.0000
  C   C1789     1.0  0.95081  0.30598  0.54338  1.0000
  C   C1790     1.0  0.95941  0.32683  0.55499  1.0000
  C   C1791     1.0  0.97343  0.32462  0.57616  1.0000
  C   C1792     1.0  0.97998  0.30132  0.58466  1.0000
  P   P60       1.0  0.98365  0.35123  0.59218  1.0000
  C   C1793     1.0  0.96369  0.37701  0.58750  1.0000
  C   C1794     1.0  0.98051  0.34552  0.62426  1.0000
  H   H1435     1.0  0.75509  0.20796  0.85205  1.0000
  C   C1795     1.0  0.97925  0.21488  0.61055  1.0000
  C   C1796     1.0  0.97221  0.33982  0.67418  1.0000
  C   C1797     1.0  0.95658  0.32893  0.65751  1.0000
  C   C1798     1.0  0.96065  0.33178  0.63270  1.0000
  C   C1799     1.0  0.96900  0.46565  0.51898  1.0000
  C   C1800     1.0  0.95713  0.42085  0.58682  1.0000
  C   C1801     1.0  0.93200  0.41716  0.58582  1.0000
  C   C1802     1.0  0.92263  0.39354  0.58570  1.0000
  C   C1803     1.0  0.93839  0.37355  0.58680  1.0000
  C   C1804     1.0  0.97296  0.40086  0.58777  1.0000
  H   H1436     1.0  0.80456  0.34444  0.56803  1.0000
  C   C1805     1.0  0.82777  0.27789  0.57439  1.0000
  C   C1806     1.0  0.98972  0.46354  0.53354  1.0000
  C   C1807     1.0  0.77527  0.39827  0.97432  1.0000
  C   C1808     1.0  0.82666  0.31627  0.55248  1.0000
  H   H1437     1.0  0.89609  0.44464  0.53363  1.0000
  H   H1438     1.0  0.94983  0.26681  0.54341  1.0000
  H   H1439     1.0  0.93941  0.30779  0.52742  1.0000
  H   H1440     1.0  0.95481  0.34458  0.54752  1.0000
  H   H1441     1.0  0.75419  0.20548  0.57482  1.0000
  H   H1442     1.0  0.78922  0.12298  0.76983  1.0000
  H   H1443     1.0  0.75934  0.00842  0.75827  1.0000
  H   H1444     1.0  0.96907  0.33734  0.69346  1.0000
  H   H1445     1.0  0.94113  0.31836  0.66376  1.0000
  H   H1446     1.0  0.94785  0.32364  0.62018  1.0000
  H   H1447     1.0  0.99233  0.40405  0.58929  1.0000
  H   H1448     1.0  0.79226  0.22435  0.58917  1.0000
  H   H1449     1.0  0.91971  0.43254  0.58545  1.0000
  H   H1450     1.0  0.90310  0.39067  0.58495  1.0000
  H   H1451     1.0  0.93075  0.35540  0.58758  1.0000
  C   C1809     1.0  0.99029  0.25193  0.63138  1.0000
  H   H1452     1.0  0.86185  0.43128  0.55964  1.0000
  H   H1453     1.0  0.76964  0.41457  0.98366  1.0000
  C   C1810     1.0  0.80324  0.31129  0.58937  1.0000
  H   H1454     1.0  0.98823  0.45650  0.55182  1.0000
  C   C1811     1.0  0.78301  0.16153  0.77294  1.0000
  H   H1455     1.0  0.79969  0.38129  0.92021  1.0000
  C   C1812     1.0  0.79260  0.37973  0.93849  1.0000
  C   C1813     1.0  0.88073  0.48056  0.59181  1.0000
  C   C1814     1.0  0.81066  0.30633  0.64937  1.0000
  H   H1456     1.0  0.78105  0.33679  0.98155  1.0000
  H   H1457     1.0  0.98398  0.19857  0.60079  1.0000
  C   C1815     1.0  0.79707  0.14035  0.77466  1.0000
  C   C1816     1.0  0.99179  0.35385  0.66598  1.0000
  H   H1458     1.0  0.75258  0.20838  0.74445  1.0000
  H   H1459     1.0  0.95144  0.45984  0.52569  1.0000
  C   C1817     1.0  0.87087  0.48358  0.50513  1.0000
  C   C1818     1.0  0.83519  0.29238  0.55480  1.0000
  H   H1460     1.0  0.76368  0.16888  0.83089  1.0000
  H   H1461     1.0  0.75365  0.34194  0.77901  1.0000
  C   C1819     1.0  0.79713  0.28526  0.64454  1.0000
  H   H1462     1.0  0.77188  0.25899  0.65954  1.0000
  H   H1463     1.0  0.79731  0.34071  0.94020  1.0000
  H   H1464     1.0  0.76430  0.16066  0.76684  1.0000
  C   C1820     1.0  0.75960  0.28106  0.98081  1.0000
  H   H1465     1.0  0.76076  0.09050  0.66776  1.0000
  C   C1821     1.0  0.75345  0.22222  0.58507  1.0000
  C   C1822     1.0  0.81715  0.22349  0.63551  1.0000
  H   H1466     1.0  0.79807  0.21919  0.63796  1.0000
  C   C1823     1.0  0.90057  0.48780  0.57741  1.0000
  Fe  Fe129     1.0  0.77457  0.30142  0.86362  1.0000
  C   C1824     1.0  0.77809  0.26609  0.77994  1.0000
  C   C1825     1.0  0.78468  0.27278  0.75636  1.0000
  C   C1826     1.0  0.80489  0.26199  0.74543  1.0000
  C   C1827     1.0  0.81857  0.24456  0.75807  1.0000
  C   C1828     1.0  0.81239  0.23809  0.78195  1.0000
  C   C1829     1.0  0.79174  0.24866  0.79265  1.0000
  P   P61       1.0  0.82903  0.21421  0.79744  1.0000
  C   C1830     1.0  0.81691  0.18538  0.78778  1.0000
  C   C1831     1.0  0.86085  0.21683  0.78929  1.0000
  C   C1832     1.0  0.86974  0.20473  0.76876  1.0000
  C   C1833     1.0  0.89400  0.20749  0.76160  1.0000
  C   C1834     1.0  0.90957  0.22259  0.77468  1.0000
  C   C1835     1.0  0.90088  0.23484  0.79502  1.0000
  C   C1836     1.0  0.87664  0.23201  0.80232  1.0000
  C   C1837     1.0  0.83097  0.16404  0.78963  1.0000
  C   C1838     1.0  0.82108  0.14161  0.78294  1.0000
  H   H1467     1.0  0.80953  0.18336  0.87989  1.0000
  C   C1839     1.0  0.89199  0.45448  0.55006  1.0000
  C   C1840     1.0  0.79282  0.18391  0.77956  1.0000
  C   C1841     1.0  0.82504  0.21688  0.82987  1.0000
  C   C1842     1.0  0.81866  0.19652  0.84414  1.0000
  C   C1843     1.0  0.81491  0.19899  0.86908  1.0000
  C   C1844     1.0  0.81768  0.22170  0.87999  1.0000
  C   C1845     1.0  0.82401  0.24198  0.86594  1.0000
  C   C1846     1.0  0.82736  0.23964  0.84098  1.0000
  C   C1847     1.0  0.75310  0.12764  0.65720  1.0000
  H   H1468     1.0  0.77451  0.28669  0.74675  1.0000
  H   H1469     1.0  0.81036  0.26747  0.72734  1.0000
  H   H1470     1.0  0.83397  0.23622  0.74913  1.0000
  H   H1471     1.0  0.78605  0.24350  0.81075  1.0000
  H   H1472     1.0  0.85776  0.19380  0.75771  1.0000
  H   H1473     1.0  0.90036  0.19875  0.74523  1.0000
  H   H1474     1.0  0.92809  0.22554  0.76851  1.0000
  H   H1475     1.0  0.91278  0.24710  0.80472  1.0000
  H   H1476     1.0  0.87031  0.24218  0.81773  1.0000
  H   H1477     1.0  0.84946  0.16474  0.79642  1.0000
  H   H1478     1.0  0.76258  0.27457  0.78859  1.0000
  P   P62       1.0  0.80196  0.26848  0.61698  1.0000
  H   H1479     1.0  0.94065  0.20854  0.60675  1.0000
  H   H1480     1.0  0.78143  0.19993  0.77855  1.0000
  H   H1481     1.0  0.81611  0.17881  0.83612  1.0000
  H   H1482     1.0  0.92063  0.46853  0.61822  1.0000
  H   H1483     1.0  0.81445  0.22376  0.89924  1.0000
  H   H1484     1.0  0.82567  0.25976  0.87422  1.0000
  H   H1485     1.0  0.83128  0.25574  0.83029  1.0000
  H   H1486     1.0  0.79074  0.31887  0.60245  1.0000
  H   H1487     1.0  0.76796  0.27971  0.69887  1.0000
  H   H1488     1.0  0.83279  0.32771  0.53756  1.0000
  C   C1848     1.0  0.87256  0.44709  0.56463  1.0000
  C   C1849     1.0  0.85934  0.21247  0.64223  1.0000
  C   C1850     1.0  0.79278  0.30856  0.68943  1.0000
  C   C1851     1.0  0.79128  0.35688  0.94971  1.0000
  C   C1852     1.0  0.90578  0.47491  0.55621  1.0000
  H   H1489     1.0  0.85518  0.26930  0.61779  1.0000
  C   C1853     1.0  0.77498  0.23287  0.59337  1.0000
  S   S253      1.0  0.77235  0.29223  0.95345  1.0000
  C   C1854     1.0  0.93484  0.48081  0.62391  1.0000
  C   C1855     1.0  0.94984  0.47365  0.64320  1.0000
  C   C1856     1.0  0.77947  0.28742  0.68486  1.0000
  H   H1490     1.0  0.96427  0.43920  0.58719  1.0000
  H   H1491     1.0  0.83194  0.12517  0.78434  1.0000
  C   C1857     1.0  0.78170  0.27575  0.66255  1.0000
  S   S254      1.0  0.76305  0.32623  0.89395  1.0000
  C   C1858     1.0  0.77415  0.25434  0.60699  1.0000
  H   H1492     1.0  0.85158  0.45461  0.59660  1.0000
  S   S255      1.0  0.77032  0.26714  0.88596  1.0000
  C   C1859     1.0  0.81211  0.28741  0.59209  1.0000
  H   H1493     1.0  0.96029  0.27416  0.64356  1.0000
  H   H1494     1.0  0.77097  0.22497  0.68617  1.0000
  H   H1495     1.0  0.99131  0.29922  0.60062  1.0000
  C   C1860     1.0  0.95460  0.22057  0.61367  1.0000
  C   C1861     1.0  0.94785  0.24185  0.62567  1.0000
  C   C1862     1.0  0.96567  0.25757  0.63445  1.0000
  C   C1863     1.0  0.75163  0.26575  0.61101  1.0000
  H   H1496     1.0  0.84774  0.28524  0.54149  1.0000
  C   C1864     1.0  0.86662  0.23486  0.63247  1.0000
  C   C1865     1.0  0.78189  0.35467  0.97314  1.0000
  C   C1866     1.0  0.84921  0.25161  0.62428  1.0000
  H   H1497     1.0  0.87277  0.19995  0.64961  1.0000
  C   C1867     1.0  0.78485  0.40047  0.95089  1.0000
  H   H1498     1.0  0.97594  0.26262  0.57991  1.0000
  H   H1499     1.0  0.94689  0.45623  0.65213  1.0000
  H   H1500     1.0  0.88569  0.23967  0.63206  1.0000
  H   H1501     1.0  0.76900  0.13502  0.66619  1.0000
  H   H1502     1.0  0.75067  0.28290  0.62055  1.0000
  H   H1503     1.0  0.92020  0.48069  0.54419  1.0000
  C   C1868     1.0  0.77311  0.37521  0.98535  1.0000
  H   H1504     1.0  0.86151  0.46670  0.50912  1.0000
  Fe  Fe130     1.0  0.75636  0.29173  0.91529  1.0000
  C   C1869     1.0  0.99728  0.23042  0.61975  1.0000
  H   H1505     1.0  0.87616  0.49049  0.60808  1.0000
  C   C1870     1.0  0.96855  0.48891  0.65101  1.0000
  C   C1871     1.0  0.99582  0.35694  0.64109  1.0000
  Fe  Fe131     1.0  0.77836  0.73321  0.14494  1.0000
  S   S256      1.0  0.81738  0.74139  0.15603  1.0000
  H   H1506     1.0  0.78451  0.58900  0.07414  1.0000
  C   C1872     1.0  0.77403  0.91789  0.35256  1.0000
  Fe  Fe132     1.0  0.87934  0.74573  0.28878  1.0000
  S   S257      1.0  0.89177  0.78450  0.28445  1.0000
  S   S258      1.0  0.85236  0.72547  0.26507  1.0000
  Fe  Fe133     1.0  0.90527  0.73922  0.33768  1.0000
  S   S259      1.0  0.91862  0.77788  0.33710  1.0000
  S   S260      1.0  0.92151  0.71449  0.36672  1.0000
  Fe  Fe134     1.0  0.88121  0.78793  0.32356  1.0000
  S   S261      1.0  0.86184  0.82211  0.33644  1.0000
  Fe  Fe135     1.0  0.92810  0.77101  0.29831  1.0000
  S   S262      1.0  0.96431  0.78572  0.28459  1.0000
  S   S263      1.0  0.86700  0.74977  0.32759  1.0000
  S   S264      1.0  0.91655  0.73185  0.29929  1.0000
  C   C1873     1.0  0.83272  0.95366  0.24568  1.0000
  H   H1507     1.0  0.84126  0.95288  0.22801  1.0000
  C   C1874     1.0  0.93631  0.59102  0.21330  1.0000
  C   C1875     1.0  0.90594  0.65790  0.33281  1.0000
  C   C1876     1.0  0.99118  0.74336  0.28974  1.0000
  H   H1508     1.0  0.95239  0.68831  0.29633  1.0000
  Fe  Fe136     1.0  0.88367  0.63408  0.47567  1.0000
  S   S265      1.0  0.86358  0.65230  0.44469  1.0000
  S   S266      1.0  0.89913  0.59618  0.47500  1.0000
  H   H1509     1.0  0.85830  0.64996  0.26415  1.0000
  C   C1877     1.0  0.89441  0.52760  0.49429  1.0000
  C   C1878     1.0  0.85577  0.67918  0.19994  1.0000
  C   C1879     1.0  0.92224  0.64304  0.29487  1.0000
  C   C1880     1.0  0.99160  0.76873  0.28782  1.0000
  C   C1881     1.0  0.87943  0.66607  0.23499  1.0000
  C   C1882     1.0  0.75441  0.99166  0.22609  1.0000
  C   C1883     1.0  0.82974  0.82376  0.33364  1.0000
  C   C1884     1.0  0.81748  0.84478  0.34139  1.0000
  C   C1885     1.0  0.79201  0.84685  0.33898  1.0000
  C   C1886     1.0  0.77857  0.82776  0.32900  1.0000
  C   C1887     1.0  0.79078  0.80649  0.32181  1.0000
  C   C1888     1.0  0.81628  0.80458  0.32386  1.0000
  H   H1510     1.0  0.82770  0.85949  0.34927  1.0000
  H   H1511     1.0  0.78273  0.86306  0.34508  1.0000
  H   H1512     1.0  0.78049  0.79148  0.31443  1.0000
  H   H1513     1.0  0.82546  0.78825  0.31792  1.0000
  C   C1889     1.0  0.75539  0.70965  0.01309  1.0000
  H   H1514     1.0  0.76908  0.82630  0.24406  1.0000
  C   C1890     1.0  0.91291  0.61102  0.24460  1.0000
  H   H1515     1.0  0.97393  0.73399  0.28960  1.0000
  C   C1891     1.0  0.96600  0.69557  0.45600  1.0000
  C   C1892     1.0  0.90493  0.69721  0.38796  1.0000
  C   C1893     1.0  0.87957  0.69575  0.38712  1.0000
  C   C1894     1.0  0.86709  0.68185  0.40462  1.0000
  C   C1895     1.0  0.87987  0.66948  0.42305  1.0000
  C   C1896     1.0  0.90526  0.67101  0.42388  1.0000
  C   C1897     1.0  0.91774  0.68481  0.40632  1.0000
  H   H1516     1.0  0.86959  0.70529  0.37303  1.0000
  H   H1517     1.0  0.84743  0.68068  0.40392  1.0000
  H   H1518     1.0  0.91523  0.66155  0.43801  1.0000
  H   H1519     1.0  0.93737  0.68608  0.40709  1.0000
  C   C1898     1.0  0.95668  0.54877  0.45359  1.0000
  H   H1520     1.0  0.97625  0.66330  0.38305  1.0000
  H   H1521     1.0  0.89459  0.68225  0.20239  1.0000
  H   H1522     1.0  0.99154  0.73400  0.41478  1.0000
  C   C1899     1.0  0.82663  0.73820  0.18665  1.0000
  C   C1900     1.0  0.81053  0.73015  0.20456  1.0000
  C   C1901     1.0  0.81856  0.72704  0.22860  1.0000
  C   C1902     1.0  0.84277  0.73201  0.23504  1.0000
  C   C1903     1.0  0.85893  0.74011  0.21711  1.0000
  C   C1904     1.0  0.85083  0.74333  0.19305  1.0000
  H   H1523     1.0  0.79195  0.72596  0.19988  1.0000
  H   H1524     1.0  0.80600  0.72045  0.24224  1.0000
  H   H1525     1.0  0.87762  0.74397  0.22171  1.0000
  H   H1526     1.0  0.86341  0.74961  0.17931  1.0000
  H   H1527     1.0  0.97091  0.74347  0.23825  1.0000
  H   H1528     1.0  0.95314  0.57600  0.42559  1.0000
  C   C1905     1.0  0.96646  0.68512  0.30973  1.0000
  C   C1906     1.0  0.76723  0.86352  0.21081  1.0000
  H   H1529     1.0  0.90342  0.54445  0.48971  1.0000
  C   C1907     1.0  0.77906  0.81597  0.11559  1.0000
  S   S267      1.0  0.75162  0.76309  0.13585  1.0000
  H   H1530     1.0  0.81879  0.65598  0.24372  1.0000
  H   H1531     1.0  0.91514  0.57209  0.24035  1.0000
  H   H1532     1.0  0.85477  0.68778  0.18220  1.0000
  H   H1533     1.0  0.98747  0.62849  0.45177  1.0000
  H   H1534     1.0  0.98877  0.70227  0.24363  1.0000
  C   C1908     1.0  0.94327  0.61374  0.20402  1.0000
  C   C1909     1.0  0.97828  0.72719  0.42763  1.0000
  H   H1535     1.0  0.87940  0.68706  0.28516  1.0000
  C   C1910     1.0  0.89099  0.67422  0.29470  1.0000
  H   H1536     1.0  0.77465  0.81336  0.09663  1.0000
  H   H1537     1.0  0.93519  0.63163  0.28552  1.0000
  H   H1538     1.0  0.94009  0.65254  0.20717  1.0000
  H   H1539     1.0  0.81696  0.67464  0.20267  1.0000
  H   H1540     1.0  0.93390  0.63059  0.33026  1.0000
  C   C1911     1.0  0.98682  0.79810  0.39375  1.0000
  H   H1541     1.0  0.94393  0.55774  0.46558  1.0000
  H   H1542     1.0  0.96195  0.66632  0.24800  1.0000
  C   C1912     1.0  0.92173  0.64252  0.32024  1.0000
  C   C1913     1.0  0.98827  0.80771  0.47418  1.0000
  S   S268      1.0  0.91615  0.65021  0.49399  1.0000
  C   C1914     1.0  0.94583  0.81944  0.47634  1.0000
  C   C1915     1.0  0.94057  0.80438  0.45669  1.0000
  C   C1916     1.0  0.95928  0.79124  0.44534  1.0000
  C   C1917     1.0  0.98307  0.79261  0.45455  1.0000
  P   P63       1.0  0.95283  0.77094  0.42062  1.0000
  C   C1918     1.0  0.95729  0.74073  0.43318  1.0000
  C   C1919     1.0  0.92244  0.77635  0.40917  1.0000
  C   C1920     1.0  0.90500  0.75772  0.40836  1.0000
  C   C1921     1.0  0.88188  0.76225  0.39864  1.0000
  C   C1922     1.0  0.87601  0.78537  0.38961  1.0000
  C   C1923     1.0  0.89326  0.80401  0.39031  1.0000
  C   C1924     1.0  0.91643  0.79951  0.39988  1.0000
  H   H1543     1.0  0.76961  0.96079  0.16495  1.0000
  C   C1925     1.0  0.98260  0.66558  0.30744  1.0000
  C   C1926     1.0  0.90662  0.65873  0.28189  1.0000
  C   C1927     1.0  0.92101  0.58968  0.23350  1.0000
  C   C1928     1.0  0.98729  0.76527  0.35528  1.0000
  C   C1929     1.0  0.97268  0.77681  0.39514  1.0000
  C   C1930     1.0  0.96183  0.55902  0.43094  1.0000
  C   C1931     1.0  0.83439  0.67175  0.21148  1.0000
  H   H1544     1.0  0.90930  0.87747  0.34157  1.0000
  H   H1545     1.0  0.75359  0.00032  0.30866  1.0000
  C   C1932     1.0  0.97279  0.76064  0.37560  1.0000
  S   S269      1.0  0.96735  0.59785  0.49110  1.0000
  H   H1546     1.0  0.95631  0.71621  0.33085  1.0000
  H   H1547     1.0  0.75095  0.74549  0.20938  1.0000
  H   H1548     1.0  0.92190  0.80295  0.45058  1.0000
  C   C1933     1.0  0.77024  0.83445  0.15437  1.0000
  H   H1549     1.0  0.90928  0.73948  0.41444  1.0000
  H   H1550     1.0  0.86871  0.74762  0.39756  1.0000
  H   H1551     1.0  0.85829  0.78872  0.38148  1.0000
  H   H1552     1.0  0.88880  0.82173  0.38269  1.0000
  H   H1553     1.0  0.92980  0.81398  0.39964  1.0000
  C   C1934     1.0  0.98900  0.52534  0.42237  1.0000
  C   C1935     1.0  0.93517  0.63511  0.21509  1.0000
  H   H1554     1.0  0.78065  0.91688  0.23877  1.0000
  C   C1936     1.0  0.83545  0.66131  0.23464  1.0000
  C   C1937     1.0  0.92054  0.63388  0.23591  1.0000
  C   C1938     1.0  0.80904  0.91066  0.37816  1.0000
  C   C1939     1.0  0.94522  0.70902  0.46179  1.0000
  H   H1555     1.0  0.96133  0.74465  0.37593  1.0000
  H   H1556     1.0  0.82243  0.90048  0.23363  1.0000
  H   H1557     1.0  0.90580  0.65789  0.35246  1.0000
  C   C1940     1.0  0.87823  0.67628  0.21158  1.0000
  H   H1558     1.0  0.87873  0.68606  0.32978  1.0000
  C   C1941     1.0  0.96850  0.70082  0.32935  1.0000
  C   C1942     1.0  0.96916  0.70439  0.24255  1.0000
  H   H1559     1.0  0.93134  0.82968  0.48489  1.0000
  C   C1943     1.0  0.94107  0.73168  0.45073  1.0000
  H   H1560     1.0  0.91320  0.95273  0.31956  1.0000
  C   C1944     1.0  0.95392  0.68410  0.24497  1.0000
  C   C1945     1.0  0.85790  0.65824  0.24630  1.0000
  H   H1561     1.0  0.82905  0.86080  0.21547  1.0000
  H   H1562     1.0  0.92511  0.74208  0.45581  1.0000
  H   H1563     1.0  0.89914  0.71316  0.24214  1.0000
  C   C1946     1.0  0.76540  0.80879  0.23620  1.0000
  H   H1564     1.0  0.92613  0.74879  0.23741  1.0000
  C   C1947     1.0  0.93389  0.73065  0.23894  1.0000
  H   H1565     1.0  0.92064  0.50526  0.47573  1.0000
  H   H1566     1.0  0.96319  0.51932  0.47827  1.0000
  C   C1948     1.0  0.76541  0.62320  0.07330  1.0000
  C   C1949     1.0  0.98261  0.70475  0.43909  1.0000
  C   C1950     1.0  0.92851  0.68698  0.24415  1.0000
  C   C1951     1.0  0.90414  0.50533  0.48634  1.0000
  P   P64       1.0  0.90865  0.66129  0.24929  1.0000
  C   C1952     1.0  0.95913  0.72765  0.23946  1.0000
  C   C1953     1.0  0.91864  0.71042  0.24145  1.0000
  H   H1567     1.0  0.90050  0.60972  0.25981  1.0000
  C   C1954     1.0  0.89060  0.67375  0.32003  1.0000
  H   H1568     1.0  0.77232  0.57770  0.03263  1.0000
  H   H1569     1.0  0.98115  0.65353  0.29209  1.0000
  H   H1570     1.0  0.98630  0.81149  0.40799  1.0000
  H   H1571     1.0  0.93222  0.70182  0.47476  1.0000
  C   C1955     1.0  0.82409  0.91049  0.35772  1.0000
  C   C1956     1.0  0.81420  0.91381  0.33438  1.0000
  C   C1957     1.0  0.78896  0.91731  0.33210  1.0000
  P   P65       1.0  0.83347  0.91241  0.30766  1.0000
  C   C1958     1.0  0.86502  0.91370  0.31696  1.0000
  C   C1959     1.0  0.82824  0.88414  0.29171  1.0000
  C   C1960     1.0  0.84766  0.87092  0.28156  1.0000
  C   C1961     1.0  0.84363  0.84789  0.27165  1.0000
  C   C1962     1.0  0.82014  0.83829  0.27107  1.0000
  C   C1963     1.0  0.80059  0.85207  0.27936  1.0000
  C   C1964     1.0  0.80458  0.87488  0.28954  1.0000
  C   C1965     1.0  0.87842  0.93534  0.31450  1.0000
  C   C1966     1.0  0.90288  0.93604  0.32159  1.0000
  C   C1967     1.0  0.91407  0.91521  0.33127  1.0000
  C   C1968     1.0  0.90074  0.89372  0.33411  1.0000
  C   C1969     1.0  0.87629  0.89300  0.32717  1.0000
  C   C1970     1.0  0.82726  0.93676  0.28620  1.0000
  C   C1971     1.0  0.81075  0.95564  0.29130  1.0000
  C   C1972     1.0  0.83874  0.93639  0.26350  1.0000
  H   H1572     1.0  0.99757  0.78202  0.44646  1.0000
  C   C1973     1.0  0.75966  0.95519  0.20228  1.0000
  H   H1573     1.0  0.94244  0.57448  0.20459  1.0000
  H   H1574     1.0  0.84333  0.90739  0.36038  1.0000
  H   H1575     1.0  0.78068  0.91975  0.31448  1.0000
  H   H1576     1.0  0.86607  0.87778  0.28202  1.0000
  H   H1577     1.0  0.85883  0.83705  0.26533  1.0000
  H   H1578     1.0  0.81703  0.81990  0.26500  1.0000
  H   H1579     1.0  0.78241  0.84446  0.27940  1.0000
  H   H1580     1.0  0.78913  0.88446  0.29669  1.0000
  H   H1581     1.0  0.87003  0.95169  0.30718  1.0000
  H   H1582     1.0  0.93305  0.91570  0.33661  1.0000
  C   C1974     1.0  0.76564  0.59458  0.04021  1.0000
  C   C1975     1.0  0.98643  0.69699  0.34688  1.0000
  H   H1583     1.0  0.86621  0.87618  0.32964  1.0000
  H   H1584     1.0  0.80218  0.95716  0.30884  1.0000
  H   H1585     1.0  0.85202  0.92237  0.25944  1.0000
  S   S270      1.0  0.77024  0.71264  0.11077  1.0000
  C   C1976     1.0  0.76553  0.96948  0.18205  1.0000
  C   C1977     1.0  0.79790  0.80254  0.12629  1.0000
  C   C1978     1.0  0.80283  0.80493  0.15101  1.0000
  C   C1979     1.0  0.78929  0.82119  0.16522  1.0000
  H   H1586     1.0  0.79095  0.98655  0.27717  1.0000
  P   P66       1.0  0.79499  0.82308  0.19744  1.0000
  C   C1980     1.0  0.97793  0.54726  0.41528  1.0000
  C   C1981     1.0  0.82602  0.81398  0.20353  1.0000
  C   C1982     1.0  0.83138  0.79866  0.22326  1.0000
  C   C1983     1.0  0.85550  0.79426  0.22988  1.0000
  C   C1984     1.0  0.87454  0.80399  0.21617  1.0000
  C   C1985     1.0  0.86938  0.81847  0.19584  1.0000
  C   C1986     1.0  0.84520  0.82357  0.18958  1.0000
  H   H1587     1.0  0.95468  0.61481  0.18803  1.0000
  H   H1588     1.0  0.81677  0.90766  0.39601  1.0000
  H   H1589     1.0  0.98702  0.75292  0.34009  1.0000
  C   C1987     1.0  0.97935  0.64545  0.41746  1.0000
  H   H1590     1.0  0.95979  0.64354  0.41956  1.0000
  C   C1988     1.0  0.79078  0.85388  0.20833  1.0000
  H   H1591     1.0  0.75464  0.92086  0.35045  1.0000
  H   H1592     1.0  0.77696  0.77412  0.18647  1.0000
  C   C1989     1.0  0.80702  0.89046  0.22690  1.0000
  C   C1990     1.0  0.81069  0.86771  0.21635  1.0000
  H   H1593     1.0  0.75890  0.84640  0.16492  1.0000
  H   H1594     1.0  0.77140  0.62842  0.09127  1.0000
  H   H1595     1.0  0.80803  0.78940  0.11571  1.0000
  H   H1596     1.0  0.81680  0.79353  0.15907  1.0000
  H   H1597     1.0  0.99887  0.69444  0.43487  1.0000
  H   H1598     1.0  0.81706  0.79015  0.23380  1.0000
  H   H1599     1.0  0.85923  0.78250  0.24527  1.0000
  H   H1600     1.0  0.89322  0.79998  0.22116  1.0000
  H   H1601     1.0  0.88412  0.82578  0.18500  1.0000
  H   H1602     1.0  0.84139  0.83526  0.17412  1.0000
  C   C1991     1.0  0.78402  0.91437  0.37559  1.0000
  H   H1603     1.0  0.81013  0.98450  0.23649  1.0000
  C   C1992     1.0  0.76518  0.83186  0.12966  1.0000
  C   C1993     1.0  0.77474  0.80260  0.21335  1.0000
  C   C1994     1.0  0.75433  0.96627  0.22437  1.0000
  H   H1604     1.0  0.77231  0.91434  0.39138  1.0000
  C   C1995     1.0  0.76969  0.77953  0.20385  1.0000
  C   C1996     1.0  0.80455  0.97274  0.27337  1.0000
  C   C1997     1.0  0.96774  0.52692  0.46076  1.0000
  C   C1998     1.0  0.78352  0.89970  0.22964  1.0000
  H   H1605     1.0  0.98746  0.70920  0.36215  1.0000
  C   C1999     1.0  0.81534  0.97159  0.25049  1.0000
  C   C2000     1.0  0.76366  0.88639  0.22119  1.0000
  H   H1606     1.0  0.96920  0.67804  0.46462  1.0000
  C   C2001     1.0  0.77281  0.60099  0.06361  1.0000
  H   H1607     1.0  0.75892  0.93555  0.20071  1.0000
  C   C2002     1.0  0.98394  0.51499  0.44517  1.0000
  C   C2003     1.0  0.96968  0.82120  0.48501  1.0000
  H   H1608     1.0  0.75149  0.85289  0.20576  1.0000
  H   H1609     1.0  0.98163  0.55503  0.39757  1.0000
  C   C2004     1.0  0.98885  0.65668  0.39670  1.0000
  C   C2005     1.0  0.75533  0.76306  0.21696  1.0000
  C   C2006     1.0  0.76558  0.99490  0.18370  1.0000
  C   C2007     1.0  0.99494  0.63707  0.43571  1.0000
  H   H1610     1.0  0.75819  0.71157  0.05218  1.0000
  H   H1611     1.0  0.76536  0.69268  0.01205  1.0000
  S   S271      1.0  0.75240  0.71138  0.16762  1.0000
  C   C2008     1.0  0.75113  0.79225  0.24926  1.0000
  C   C2009     1.0  0.75133  0.72031  0.03591  1.0000
  Fe  Fe137     1.0  0.92956  0.61179  0.49701  1.0000
  H   H1612     1.0  0.81392  0.70321  0.49565  1.0000
  H   H1613     1.0  0.75007  0.84167  0.12154  1.0000
  C   C2010     1.0  0.75058  0.61016  0.02648  1.0000
  C   C2011     1.0  0.75055  0.63889  0.05978  1.0000
  Fe  Fe138     1.0  0.77117  0.72785  0.87674  1.0000
  S   S272      1.0  0.80718  0.74294  0.86347  1.0000
  C   C2012     1.0  0.95742  0.51854  0.62013  1.0000
  Fe  Fe139     1.0  0.89647  0.64184  0.52877  1.0000
  S   S273      1.0  0.89767  0.67415  0.55401  1.0000
  S   S274      1.0  0.91264  0.60446  0.53321  1.0000
  Fe  Fe140     1.0  0.92058  0.74422  0.71594  1.0000
  S   S275      1.0  0.91613  0.70477  0.72616  1.0000
  S   S276      1.0  0.95642  0.76522  0.71694  1.0000
  Fe  Fe141     1.0  0.86717  0.74993  0.70062  1.0000
  S   S277      1.0  0.85952  0.71056  0.70868  1.0000
  S   S278      1.0  0.83366  0.76928  0.68529  1.0000
  Fe  Fe142     1.0  0.88054  0.71631  0.74294  1.0000
  S   S279      1.0  0.86351  0.69630  0.77492  1.0000
  Fe  Fe143     1.0  0.89527  0.70214  0.69122  1.0000
  S   S280      1.0  0.89968  0.66790  0.66885  1.0000
  S   S281      1.0  0.88658  0.75639  0.73593  1.0000
  S   S282      1.0  0.90151  0.74097  0.67989  1.0000
  C   C2013     1.0  0.99057  0.61731  0.50048  1.0000
  C   C2014     1.0  0.97327  0.71828  0.53035  1.0000
  S   S283      1.0  0.78488  0.86589  0.72684  1.0000
  C   C2015     1.0  0.77499  0.71453  0.61579  1.0000
  C   C2016     1.0  0.82001  0.79549  0.69815  1.0000
  C   C2017     1.0  0.79494  0.79968  0.69477  1.0000
  C   C2018     1.0  0.78368  0.82082  0.70394  1.0000
  C   C2019     1.0  0.79764  0.83843  0.71576  1.0000
  C   C2020     1.0  0.82276  0.83444  0.71864  1.0000
  C   C2021     1.0  0.83385  0.81290  0.71032  1.0000
  H   H1614     1.0  0.78417  0.78650  0.68507  1.0000
  H   H1615     1.0  0.76435  0.82374  0.70144  1.0000
  H   H1616     1.0  0.83369  0.84828  0.72718  1.0000
  H   H1617     1.0  0.85321  0.81012  0.71266  1.0000
  C   C2022     1.0  0.98588  0.75178  0.71756  1.0000
  H   H1618     1.0  0.82782  0.87883  0.80437  1.0000
  C   C2023     1.0  0.95790  0.69874  0.53577  1.0000
  C   C2024     1.0  0.96365  0.51491  0.56121  1.0000
  H   H1619     1.0  0.94684  0.78211  0.63041  1.0000
  C   C2025     1.0  0.81850  0.58580  0.96095  1.0000
  C   C2026     1.0  0.81538  0.60662  0.97504  1.0000
  C   C2027     1.0  0.89868  0.67160  0.58585  1.0000
  C   C2028     1.0  0.89468  0.64947  0.59789  1.0000
  C   C2029     1.0  0.89535  0.64849  0.62339  1.0000
  C   C2030     1.0  0.89939  0.66970  0.63691  1.0000
  C   C2031     1.0  0.90314  0.69182  0.62481  1.0000
  C   C2032     1.0  0.90320  0.69263  0.59937  1.0000
  H   H1620     1.0  0.89109  0.63319  0.58757  1.0000
  H   H1621     1.0  0.89230  0.63139  0.63272  1.0000
  H   H1622     1.0  0.90630  0.70823  0.63501  1.0000
  H   H1623     1.0  0.90684  0.70962  0.59010  1.0000
  H   H1624     1.0  0.82412  0.84682  0.77404  1.0000
  C   C2033     1.0  0.80094  0.63738  0.80431  1.0000
  C   C2034     1.0  0.78074  0.81145  0.81104  1.0000
  C   C2035     1.0  0.82154  0.73093  0.83760  1.0000
  C   C2036     1.0  0.84282  0.74202  0.82880  1.0000
  C   C2037     1.0  0.85527  0.73231  0.80878  1.0000
  C   C2038     1.0  0.84658  0.71124  0.79764  1.0000
  C   C2039     1.0  0.82493  0.70061  0.80605  1.0000
  C   C2040     1.0  0.81245  0.71035  0.82599  1.0000
  H   H1625     1.0  0.85001  0.75783  0.83785  1.0000
  H   H1626     1.0  0.87200  0.74057  0.80253  1.0000
  H   H1627     1.0  0.81787  0.68477  0.79707  1.0000
  H   H1628     1.0  0.79615  0.70166  0.83274  1.0000
  C   C2041     1.0  0.79888  0.57015  0.95702  1.0000
  H   H1629     1.0  0.80049  0.78199  0.82847  1.0000
  C   C2042     1.0  0.76856  0.87232  0.82130  1.0000
  C   C2043     1.0  0.81841  0.64287  0.61433  1.0000
  C   C2044     1.0  0.83008  0.64133  0.63678  1.0000
  C   C2045     1.0  0.98662  0.64233  0.50321  1.0000
  H   H1630     1.0  0.75675  0.65860  0.68403  1.0000
  C   C2046     1.0  0.82678  0.68641  0.61239  1.0000
  C   C2047     1.0  0.81644  0.66535  0.60234  1.0000
  C   C2048     1.0  0.81914  0.71152  0.56548  1.0000
  H   H1631     1.0  0.76799  0.54456  0.90090  1.0000
  C   C2049     1.0  0.77956  0.77456  0.74969  1.0000
  C   C2050     1.0  0.97056  0.70206  0.62329  1.0000
  C   C2051     1.0  0.93912  0.52230  0.56208  1.0000
  H   H1632     1.0  0.94560  0.64259  0.60797  1.0000
  C   C2052     1.0  0.83428  0.69496  0.55339  1.0000
  C   C2053     1.0  0.80850  0.82848  0.90434  1.0000
  H   H1633     1.0  0.80132  0.55399  0.94613  1.0000
  H   H1634     1.0  0.76884  0.62424  0.85522  1.0000
  C   C2054     1.0  0.81530  0.70556  0.51511  1.0000
  C   C2055     1.0  0.84838  0.73532  0.60322  1.0000
  C   C2056     1.0  0.86555  0.74004  0.58490  1.0000
  C   C2057     1.0  0.88467  0.75632  0.58890  1.0000
  C   C2058     1.0  0.88676  0.76813  0.61113  1.0000
  C   C2059     1.0  0.86983  0.76353  0.62942  1.0000
  C   C2060     1.0  0.85092  0.74700  0.62562  1.0000
  H   H1635     1.0  0.81084  0.62666  0.60619  1.0000
  H   H1636     1.0  0.83170  0.62396  0.64612  1.0000
  C   C2061     1.0  0.83242  0.69207  0.52832  1.0000
  H   H1637     1.0  0.80680  0.66619  0.58523  1.0000
  H   H1638     1.0  0.94995  0.70199  0.68145  1.0000
  H   H1639     1.0  0.77425  0.80941  0.90302  1.0000
  H   H1640     1.0  0.84778  0.68448  0.56332  1.0000
  H   H1641     1.0  0.83797  0.74378  0.64006  1.0000
  C   C2062     1.0  0.77277  0.76459  0.62460  1.0000
  H   H1642     1.0  0.76282  0.78455  0.74676  1.0000
  S   S284      1.0  0.86287  0.62793  0.51024  1.0000
  H   H1643     1.0  0.86450  0.73110  0.56754  1.0000
  H   H1644     1.0  0.89789  0.75967  0.57472  1.0000
  H   H1645     1.0  0.90142  0.78089  0.61421  1.0000
  H   H1646     1.0  0.87118  0.77287  0.64661  1.0000
  C   C2063     1.0  0.77611  0.57526  0.96714  1.0000
  H   H1647     1.0  0.96076  0.53590  0.61122  1.0000
  H   H1648     1.0  0.95119  0.66796  0.55886  1.0000
  H   H1649     1.0  0.81374  0.92076  0.79690  1.0000
  H   H1650     1.0  0.96553  0.77301  0.59049  1.0000
  C   C2064     1.0  0.78236  0.68561  0.67168  1.0000
  C   C2065     1.0  0.76011  0.81748  0.79717  1.0000
  C   C2066     1.0  0.78455  0.62792  0.84401  1.0000
  H   H1651     1.0  0.78912  0.67455  0.65697  1.0000
  C   C2067     1.0  0.76702  0.76942  0.81318  1.0000
  H   H1652     1.0  0.86399  0.83667  0.75590  1.0000
  C   C2068     1.0  0.77705  0.91377  0.80867  1.0000
  C   C2069     1.0  0.94536  0.60788  0.59059  1.0000
  C   C2070     1.0  0.78602  0.82066  0.86745  1.0000
  H   H1653     1.0  0.97370  0.83292  0.50020  1.0000
  C   C2071     1.0  0.97015  0.54000  0.52550  1.0000
  H   H1654     1.0  0.79039  0.73829  0.56091  1.0000
  C   C2072     1.0  0.79243  0.86533  0.81559  1.0000
  C   C2073     1.0  0.78446  0.78713  0.81821  1.0000
  C   C2074     1.0  0.93845  0.50339  0.61223  1.0000
  C   C2075     1.0  0.98703  0.72252  0.77980  1.0000
  H   H1655     1.0  0.76999  0.81315  0.85888  1.0000
  P   P67       1.0  0.99154  0.66622  0.59399  1.0000
  H   H1656     1.0  0.76985  0.75088  0.81948  1.0000
  H   H1657     1.0  0.83613  0.58171  0.95318  1.0000
  H   H1658     1.0  0.98213  0.54731  0.51164  1.0000
  H   H1659     1.0  0.79044  0.62808  0.99598  1.0000
  C   C2076     1.0  0.83978  0.66226  0.64722  1.0000
  C   C2077     1.0  0.96632  0.67127  0.66370  1.0000
  C   C2078     1.0  0.97933  0.77359  0.65053  1.0000
  C   C2079     1.0  0.97868  0.67782  0.62182  1.0000
  C   C2080     1.0  0.83105  0.82695  0.80750  1.0000
  C   C2081     1.0  0.76617  0.61505  0.90534  1.0000
  C   C2082     1.0  0.97645  0.66250  0.64223  1.0000
  P   P68       1.0  0.91961  0.51280  0.58684  1.0000
  C   C2083     1.0  0.82649  0.84043  0.89088  1.0000
  H   H1660     1.0  0.98159  0.76022  0.77016  1.0000
  S   S285      1.0  0.76698  0.69391  0.89907  1.0000
  C   C2084     1.0  0.87327  0.52797  0.50835  1.0000
  C   C2085     1.0  0.79506  0.72927  0.61000  1.0000
  C   C2086     1.0  0.79353  0.75451  0.61393  1.0000
  C   C2087     1.0  0.94559  0.54653  0.52561  1.0000
  H   H1661     1.0  0.75575  0.85912  0.82830  1.0000
  H   H1662     1.0  0.97162  0.71423  0.60784  1.0000
  H   H1663     1.0  0.96849  0.64975  0.50153  1.0000
  C   C2088     1.0  0.98917  0.72662  0.72009  1.0000
  C   C2089     1.0  0.80012  0.72210  0.52699  1.0000
  H   H1664     1.0  0.94164  0.69561  0.52507  1.0000
  H   H1665     1.0  0.76025  0.68613  0.81268  1.0000
  H   H1666     1.0  0.97101  0.77701  0.66800  1.0000
  H   H1667     1.0  0.89261  0.80910  0.77743  1.0000
  H   H1668     1.0  0.80838  0.76650  0.60902  1.0000
  C   C2090     1.0  0.96033  0.71069  0.64480  1.0000
  C   C2091     1.0  0.78103  0.74937  0.74565  1.0000
  H   H1669     1.0  0.93857  0.55880  0.51181  1.0000
  C   C2092     1.0  0.80011  0.78741  0.75717  1.0000
  C   C2093     1.0  0.82226  0.77531  0.76032  1.0000
  C   C2094     1.0  0.82392  0.75043  0.75592  1.0000
  C   C2095     1.0  0.80345  0.73743  0.74869  1.0000
  H   H1670     1.0  0.95336  0.72909  0.64577  1.0000
  C   C2096     1.0  0.95566  0.63032  0.59643  1.0000
  C   C2097     1.0  0.80437  0.83204  0.85371  1.0000
  H   H1671     1.0  0.76466  0.63474  0.90535  1.0000
  P   P69       1.0  0.82246  0.71575  0.59776  1.0000
  C   C2098     1.0  0.79195  0.70882  0.67548  1.0000
  C   C2099     1.0  0.78330  0.72306  0.69446  1.0000
  H   H1672     1.0  0.97350  0.71477  0.72103  1.0000
  H   H1673     1.0  0.84444  0.67947  0.51911  1.0000
  C   C2100     1.0  0.96339  0.68299  0.55506  1.0000
  H   H1674     1.0  0.79895  0.80689  0.75989  1.0000
  H   H1675     1.0  0.83830  0.78519  0.76565  1.0000
  H   H1676     1.0  0.84118  0.74120  0.75783  1.0000
  H   H1677     1.0  0.80528  0.71810  0.74525  1.0000
  C   C2101     1.0  0.99370  0.74705  0.77867  1.0000
  H   H1678     1.0  0.84929  0.56740  0.57376  1.0000
  H   H1679     1.0  0.88144  0.79179  0.81760  1.0000
  C   C2102     1.0  0.98432  0.68671  0.56917  1.0000
  H   H1680     1.0  0.80623  0.71590  0.66389  1.0000
  H   H1681     1.0  0.79104  0.74098  0.69710  1.0000
  C   C2103     1.0  0.96571  0.77641  0.62932  1.0000
  C   C2104     1.0  0.78790  0.57802  0.89542  1.0000
  H   H1682     1.0  0.84659  0.70039  0.64338  1.0000
  Fe  Fe144     1.0  0.88109  0.59103  0.51102  1.0000
  C   C2105     1.0  0.76770  0.56422  0.90257  1.0000
  H   H1683     1.0  0.98209  0.64360  0.64141  1.0000
  H   H1684     1.0  0.76121  0.56284  0.96388  1.0000
  C   C2106     1.0  0.99399  0.72232  0.54452  1.0000
  H   H1685     1.0  0.96912  0.73020  0.51515  1.0000
  C   C2107     1.0  0.82440  0.84232  0.86566  1.0000
  H   H1686     1.0  0.99761  0.68638  0.79101  1.0000
  H   H1687     1.0  0.83844  0.85164  0.85543  1.0000
  H   H1688     1.0  0.94924  0.57499  0.57012  1.0000
  C   C2108     1.0  0.93010  0.53770  0.54371  1.0000
  C   C2109     1.0  0.89986  0.53793  0.59489  1.0000
  C   C2110     1.0  0.90527  0.55322  0.61449  1.0000
  C   C2111     1.0  0.89055  0.57345  0.61938  1.0000
  C   C2112     1.0  0.87048  0.57870  0.60465  1.0000
  C   C2113     1.0  0.86471  0.56334  0.58544  1.0000
  C   C2114     1.0  0.87914  0.54290  0.58077  1.0000
  H   H1689     1.0  0.97097  0.50225  0.57446  1.0000
  S   S286      1.0  0.86179  0.55562  0.52030  1.0000
  H   H1690     1.0  0.98859  0.58718  0.55172  1.0000
  C   C2115     1.0  0.84711  0.81078  0.81927  1.0000
  H   H1691     1.0  0.84212  0.84814  0.90000  1.0000
  H   H1692     1.0  0.77612  0.71384  0.78136  1.0000
  C   C2116     1.0  0.80114  0.90724  0.80381  1.0000
  H   H1693     1.0  0.90020  0.56662  0.89753  1.0000
  C   C2117     1.0  0.78823  0.81870  0.89263  1.0000
  C   C2118     1.0  0.95832  0.69537  0.66499  1.0000
  H   H1694     1.0  0.91123  0.54331  0.54341  1.0000
  H   H1695     1.0  0.92079  0.54983  0.62602  1.0000
  H   H1696     1.0  0.89492  0.58528  0.63439  1.0000
  H   H1697     1.0  0.87440  0.53134  0.56564  1.0000
  P   P70       1.0  0.80205  0.83424  0.82111  1.0000
  H   H1698     1.0  0.85946  0.59473  0.60802  1.0000
  H   H1699     1.0  0.81020  0.82678  0.92385  1.0000
  C   C2119     1.0  0.86851  0.57309  0.87533  1.0000
  C   C2120     1.0  0.88356  0.57707  0.89534  1.0000
  C   C2121     1.0  0.87718  0.59458  0.91246  1.0000
  C   C2122     1.0  0.85578  0.60818  0.90957  1.0000
  C   C2123     1.0  0.84068  0.60445  0.88938  1.0000
  C   C2124     1.0  0.84713  0.58666  0.87237  1.0000
  P   P71       1.0  0.81272  0.62154  0.88579  1.0000
  C   C2125     1.0  0.78736  0.60358  0.89685  1.0000
  C   C2126     1.0  0.81578  0.64990  0.90204  1.0000
  C   C2127     1.0  0.80880  0.65130  0.92650  1.0000
  C   C2128     1.0  0.81149  0.67307  0.93923  1.0000
  C   C2129     1.0  0.82161  0.69348  0.92780  1.0000
  C   C2130     1.0  0.82901  0.69213  0.90362  1.0000
  C   C2131     1.0  0.82608  0.67048  0.89075  1.0000
  C   C2132     1.0  0.97838  0.63703  0.58688  1.0000
  H   H1700     1.0  0.80361  0.56863  0.88831  1.0000
  C   C2133     1.0  0.80894  0.88321  0.80762  1.0000
  C   C2134     1.0  0.77287  0.59609  0.98138  1.0000
  H   H1701     1.0  0.79820  0.64125  0.78521  1.0000
  C   C2135     1.0  0.80809  0.62809  0.85395  1.0000
  C   C2136     1.0  0.82801  0.63323  0.83880  1.0000
  C   C2137     1.0  0.82443  0.63771  0.81407  1.0000
  C   C2138     1.0  0.76515  0.71413  0.71006  1.0000
  H   H1702     1.0  0.84240  0.80273  0.83663  1.0000
  H   H1703     1.0  0.84877  0.66110  0.66470  1.0000
  C   C2139     1.0  0.97628  0.77133  0.60689  1.0000
  H   H1704     1.0  0.88892  0.59773  0.92791  1.0000
  H   H1705     1.0  0.85123  0.62166  0.92303  1.0000
  H   H1706     1.0  0.83563  0.58328  0.85678  1.0000
  H   H1707     1.0  0.80097  0.63573  0.93564  1.0000
  H   H1708     1.0  0.80508  0.67446  0.95776  1.0000
  H   H1709     1.0  0.82302  0.71055  0.93744  1.0000
  H   H1710     1.0  0.83627  0.70817  0.89457  1.0000
  H   H1711     1.0  0.83156  0.67018  0.87194  1.0000
  C   C2140     1.0  0.83843  0.68465  0.63501  1.0000
  C   C2141     1.0  0.99014  0.62135  0.57061  1.0000
  C   C2142     1.0  0.80208  0.72518  0.55209  1.0000
  H   H1712     1.0  0.96397  0.65925  0.67920  1.0000
  H   H1713     1.0  0.96978  0.71680  0.77217  1.0000
  H   H1714     1.0  0.84631  0.63398  0.84607  1.0000
  H   H1715     1.0  0.83984  0.64209  0.80251  1.0000
  H   H1716     1.0  0.77547  0.69514  0.61249  1.0000
  H   H1717     1.0  0.76271  0.63269  0.81193  1.0000
  H   H1718     1.0  0.87346  0.55951  0.86204  1.0000
  C   C2143     1.0  0.86927  0.80447  0.80851  1.0000
  C   C2144     1.0  0.87553  0.81416  0.78587  1.0000
  C   C2145     1.0  0.85937  0.82972  0.77373  1.0000
  C   C2146     1.0  0.83693  0.83563  0.78420  1.0000
  C   C2147     1.0  0.97970  0.59896  0.56469  1.0000
  H   H1719     1.0  0.77085  0.93224  0.80527  1.0000
  H   H1720     1.0  0.83057  0.61880  0.97813  1.0000
  C   C2148     1.0  0.76087  0.89636  0.81772  1.0000
  H   H1721     1.0  0.75718  0.83584  0.79045  1.0000
  H   H1722     1.0  0.92765  0.60304  0.59767  1.0000
  C   C2149     1.0  0.97913  0.52400  0.54316  1.0000
  C   C2150     1.0  0.99935  0.70675  0.56402  1.0000
  S   S287      1.0  0.75009  0.75129  0.90266  1.0000
  C   C2151     1.0  0.95747  0.59213  0.57493  1.0000
  C   C2152     1.0  0.75415  0.72471  0.62624  1.0000
  H   H1723     1.0  0.98691  0.52315  0.64546  1.0000
  C   C2153     1.0  0.78100  0.63262  0.81932  1.0000
  C   C2154     1.0  0.79263  0.61182  0.98514  1.0000
  C   C2155     1.0  0.97236  0.51133  0.63946  1.0000
  C   C2156     1.0  0.86144  0.50587  0.51360  1.0000
  H   H1724     1.0  0.78695  0.73264  0.51668  1.0000
  H   H1725     1.0  0.77201  0.78398  0.62815  1.0000
  C   C2157     1.0  0.75787  0.70680  0.77934  1.0000
  H   H1726     1.0  0.75828  0.63631  0.95551  1.0000
  H   H1727     1.0  0.84492  0.50596  0.52425  1.0000
  C   C2158     1.0  0.76409  0.67665  0.68692  1.0000
  H   H1728     1.0  0.99812  0.51863  0.54277  1.0000
  C   C2159     1.0  0.75312  0.74969  0.63083  1.0000
  P   P72       1.0  0.75501  0.73248  0.73517  1.0000
  C   C2160     1.0  0.75551  0.69082  0.70609  1.0000
  S   S288      1.0  0.75326  0.70677  0.96346  1.0000
