data_image0
_chemical_formula_structural       FeS2FeS2FeSFeS3CFeS2FeSFeSFeS3H3C7H2CHC2PHCHC2HCHC7H4C6H4C4HC3HCH3CHC2HC2PC2H2C3HC5HC6H5C2HC2H5CH2C6PC18H6CHCH11C6HC3H8CHC3H2C4HC11H2CHC3HC2H4C4H2CHPC2HCH2CHCHC2PC3HCH2CH2C4H3CHC2HC3H7CH2C2HC2HCHCH9CH3CHCH3C3H2CFeSFeS2FeSFeS3FeS2FeS2Fe2S3PCHC8H5C2HC2H5C2HCHC2H2CHCHC7PHC5HCHC2HC2H7CHC2HC4H2C6PC16HCH20C7PHCH3C3HCHC4HC2H5C3H2SH2CH4CPH3C2HCHC3HC5SCH2C2SFeS2FeHFeSFeHS2FeSCFeSFe2SCSHC6H3SCH3CHCHSC3HC2H4CHSC3HPH4CHC3H2SC2SC2HC2HCH2SH7C2H2CH2CHC5HCH4C3HC2H2CH2C4H2CH2CHCHCHCFeS2FeSCFeSFeS3FeS2FeS2FeSFeS3H2CHC6H4CHCH4CH2C9H2C6H6CH2CHC6H3CH3CHC3H3SH4CPC6H2CHC3PHC10H3CH4CH4C3HCH2C2H2C4HCH2CHCHC3H2PC2HC4HC3H3CHC2HCH2CHC2HCH2C5HC2H3CHCHCHC4H2C2HC4HC3HC4HPCH2CH2PC2H2CH4C4SHCPH2CH3C3HC2HCHCH2C3H3C3HC2HSFeS2FeS2FeSFeS3FeSCFeS2Fe2S3CH2C5HC5HCHC2H3C6H4C6H4C6HCH2C7HCH2PCHC3HC4H2C6P2C5HC7HC3H8C3H5CSCHC6HCH2C4H2CPCHC2H4CH2CH2CHC2HCH2CH2C2HC7H8C6H2CHC5HCHC2H8C2H3CPHCHCH3C2H2CPHC2SC2H2CH3C3H2C3HC2HCH2C5H6C2H3FeSFeS2FeSFeS3FeSHFeS2Fe2SHSCHCH2C6H4C2SH2C2HC4HCH2CH4C2H2C2HCH2CH3C3HC2PC18H13SH2C3H3CH2C2HC6H2CH4C2HC2H2C2HCH2C3HC2HC4PC4H2CHCHCHC2HSC3HCHCH2C4H2FeS2FeS2FeSFeS3CFeS2FeS2Fe2S3HC3H2C4H4C4HC3H2C6H4C6H6CHCSHCHC2H2C2H2C2HC3H2C2HCHCH7C6HCHCHC5H3C3H3CHC2H2SCPC2SCH2C4H7C2SC12PC9H2C3H2PCH12CH2CHC2HCHCH3C2HCHCHC3PHCHCHCHCHCHPH2C5H2C2H2C3H3CPCHC6HC2HC4HCH3C3HC2H2CH2CH2C3HSFeS2FeSFeS3FeS2FeS2Fe2S3CH2C8H4C2H4C2H2C2H3CHCHC3HCHCH3CH2C2H3C2HC3HCHCH2C5SH2CHC5HC3HC7PC3HCSCH2C3H3CH7C3H4C6HC3H4CHC2PHC2FeHCHC4HC2H2CHC2H2CH3CHCH2C3HC3HC2H2CHCHC8H2C2H3C5H2C3H6CPHCFeS2FeSFeHS2FeHFeS2Fe2CHSC2PC6H4C2H3FeCHC2HC2PC16H2C5HC3H7CSC3H3C2HCHC4SH3C2H2C3HC2H2SCH7SHCHCHCH2CSCH2C2H2C4HC2HCHCHFeS2FeS2FeHFeS3FeS2FeS2FeSFeS3HC2HC2H2C6H5CH5C6PH3C6H4C2H2C2H2CH3CH2CH4C7H2CHCHCHCH2C2HCH2C3HC2H4C4HPHC3H3C3HCHCHSHC6H4C5HCHC2HC6PC16H16CPC2H3C3HCH2CHCHC2HCH2C4HC4H2CH2C7HCH6C2HC2HCHC2HCHCH3SC3HPFeS2FeS2FeSFeS3FeSFeSCFeSFeS3CH5C3HC2H2CH2C2H3C6H4C7H4C2H3CHCHC5HPC7H3C3H2C4H3C5HC2H6C2H3C8H4SHSHC2H3C3HC2H4CHCHCHC2PC3HC2PC11HC2H7C7H3CH2CH3C4H2C2H2C4H2C4HCH2C2H4PC2HCHC2H5CHCHCHC2H2C2H2CFeHFeS2FeSFeS3FeS2FeHFeHFeS3C3H2C6H4C4HC5HCSHCHCH3CHC2HC3PC4H2C2HC7HC2HC3H3C2H9C2PC3H2C3HC4HC2H6CH5C4H2CHC2H4SCH4CH2C3H2C2H3CH7C7PC3H2C8HCHC2SCHC2HCHC2SHCHC2HCH3
_chemical_formula_sum              "Fe96 S192 C1440 H1152 P48"
_cell_length_a       58.9464
_cell_length_b       58.7873
_cell_length_c       33.9016
_cell_angle_alpha    90.0742
_cell_angle_beta     89.7563
_cell_angle_gamma    89.5994

_space_group_name_H-M_alt    "P 1"
_space_group_IT_number       1

loop_
  _space_group_symop_operation_xyz
  'x, y, z'

loop_
  _atom_site_type_symbol
  _atom_site_label
  _atom_site_symmetry_multiplicity
  _atom_site_fract_x
  _atom_site_fract_y
  _atom_site_fract_z
  _atom_site_occupancy
  Fe  Fe1       1.0  0.36596  0.06614  0.21876  1.0000
  S   S1        1.0  0.37270  0.07525  0.28177  1.0000
  S   S2        1.0  0.34894  0.03179  0.21791  1.0000
  Fe  Fe2       1.0  0.37762  0.11410  0.19001  1.0000
  S   S3        1.0  0.38400  0.12629  0.25189  1.0000
  S   S4        1.0  0.38359  0.14387  0.14872  1.0000
  Fe  Fe3       1.0  0.40317  0.09354  0.25881  1.0000
  S   S5        1.0  0.43572  0.09330  0.29398  1.0000
  Fe  Fe4       1.0  0.35298  0.10685  0.26884  1.0000
  S   S6        1.0  0.32365  0.11983  0.30576  1.0000
  S   S7        1.0  0.39843  0.08187  0.19622  1.0000
  S   S8        1.0  0.34475  0.09736  0.20663  1.0000
  C   C1        1.0  0.21981  0.25400  0.38560  1.0000
  Fe  Fe5       1.0  0.12215  0.28288  0.36272  1.0000
  S   S9        1.0  0.10670  0.24846  0.37571  1.0000
  S   S10       1.0  0.12817  0.29227  0.29673  1.0000
  Fe  Fe6       1.0  0.11666  0.29651  0.45113  1.0000
  S   S11       1.0  0.10191  0.26275  0.46833  1.0000
  Fe  Fe7       1.0  0.12973  0.24757  0.42951  1.0000
  S   S12       1.0  0.14980  0.21378  0.44045  1.0000
  Fe  Fe8       1.0  0.08028  0.26620  0.41369  1.0000
  S   S13       1.0  0.04070  0.26684  0.41522  1.0000
  S   S14       1.0  0.14584  0.28152  0.41510  1.0000
  S   S15       1.0  0.09456  0.30038  0.39763  1.0000
  H   H1        1.0  0.44738  0.14453  0.05754  1.0000
  H   H2        1.0  0.43772  0.01380  0.35530  1.0000
  H   H3        1.0  0.21632  0.20148  0.42659  1.0000
  C   C2        1.0  0.00522  0.23592  0.40411  1.0000
  C   C3        1.0  0.25300  0.02845  0.46003  1.0000
  C   C4        1.0  0.17241  0.20055  0.46826  1.0000
  C   C5        1.0  0.44096  0.09456  0.00778  1.0000
  C   C6        1.0  0.22780  0.12778  0.42448  1.0000
  C   C7        1.0  0.01145  0.25835  0.41253  1.0000
  C   C8        1.0  0.29866  0.05042  0.36768  1.0000
  H   H4        1.0  0.01830  0.22316  0.39965  1.0000
  H   H5        1.0  0.31158  0.03046  0.41504  1.0000
  C   C9        1.0  0.39122  0.12990  0.44618  1.0000
  H   H6        1.0  0.29507  0.26808  0.04729  1.0000
  C   C10       1.0  0.42886  0.14054  0.00382  1.0000
  C   C11       1.0  0.33606  0.03485  0.32413  1.0000
  P   P1        1.0  0.35535  0.01092  0.38693  1.0000
  H   H7        1.0  0.24796  0.26633  0.35129  1.0000
  C   C12       1.0  0.44535  0.20127  0.01921  1.0000
  H   H8        1.0  0.26336  0.31431  0.25190  1.0000
  C   C13       1.0  0.14747  0.30653  0.26371  1.0000
  C   C14       1.0  0.01935  0.31852  0.26477  1.0000
  H   H9        1.0  0.35064  0.02933  0.30695  1.0000
  C   C15       1.0  0.44217  0.13265  0.03507  1.0000
  H   H10       1.0  0.41930  0.11474  0.41360  1.0000
  C   C16       1.0  0.35015  0.01202  0.43972  1.0000
  C   C17       1.0  0.32347  0.11234  0.35597  1.0000
  C   C18       1.0  0.30518  0.11887  0.38024  1.0000
  C   C19       1.0  0.30585  0.11475  0.42111  1.0000
  C   C20       1.0  0.32496  0.10439  0.43774  1.0000
  C   C21       1.0  0.34277  0.09716  0.41320  1.0000
  C   C22       1.0  0.34197  0.10097  0.37244  1.0000
  H   H11       1.0  0.29070  0.12751  0.36757  1.0000
  H   H12       1.0  0.29200  0.12027  0.43988  1.0000
  H   H13       1.0  0.35772  0.08955  0.42586  1.0000
  H   H14       1.0  0.35623  0.09622  0.35408  1.0000
  C   C23       1.0  0.37784  0.14509  0.09773  1.0000
  C   C24       1.0  0.37118  0.12595  0.07633  1.0000
  C   C25       1.0  0.36725  0.12773  0.03550  1.0000
  C   C26       1.0  0.36999  0.14858  0.01587  1.0000
  C   C27       1.0  0.37659  0.16771  0.03736  1.0000
  C   C28       1.0  0.38045  0.16595  0.07814  1.0000
  H   H15       1.0  0.36915  0.10980  0.09116  1.0000
  H   H16       1.0  0.36216  0.11286  0.01901  1.0000
  H   H17       1.0  0.29436  0.15036  0.14028  1.0000
  H   H18       1.0  0.38541  0.18083  0.09469  1.0000
  C   C29       1.0  0.46106  0.09302  0.26609  1.0000
  C   C30       1.0  0.40323  0.05988  0.36669  1.0000
  C   C31       1.0  0.46060  0.08859  0.22565  1.0000
  C   C32       1.0  0.31427  0.03544  0.38480  1.0000
  H   H19       1.0  0.44479  0.08504  0.21120  1.0000
  C   C33       1.0  0.03651  0.31798  0.47524  1.0000
  C   C34       1.0  0.36155  0.00680  0.19937  1.0000
  C   C35       1.0  0.37383  0.24723  0.04548  1.0000
  H   H20       1.0  0.38100  0.02347  0.15455  1.0000
  C   C36       1.0  0.45145  0.18904  0.08646  1.0000
  H   H21       1.0  0.39087  0.27727  0.06607  1.0000
  H   H22       1.0  0.28614  0.18224  0.09480  1.0000
  H   H23       1.0  0.41901  0.19944  0.06324  1.0000
  C   C37       1.0  0.28678  0.24161  0.08904  1.0000
  H   H24       1.0  0.43407  0.20715  0.99609  1.0000
  C   C38       1.0  0.17696  0.17713  0.46298  1.0000
  C   C39       1.0  0.35767  0.27401  0.09217  1.0000
  H   H25       1.0  0.42489  0.04742  0.25832  1.0000
  C   C40       1.0  0.25037  0.27032  0.11035  1.0000
  C   C41       1.0  0.40000  0.07489  0.47656  1.0000
  P   P2        1.0  0.46538  0.09894  0.07752  1.0000
  C   C42       1.0  0.46529  0.11953  0.11728  1.0000
  C   C43       1.0  0.44830  0.10958  0.03729  1.0000
  H   H26       1.0  0.45921  0.18165  0.47442  1.0000
  H   H27       1.0  0.40536  0.12669  0.34839  1.0000
  C   C44       1.0  0.33488  0.20206  0.13590  1.0000
  C   C45       1.0  0.27637  0.18746  0.44199  1.0000
  C   C46       1.0  0.25349  0.24956  0.12965  1.0000
  H   H28       1.0  0.24830  0.04449  0.47379  1.0000
  C   C47       1.0  0.42684  0.02909  0.25637  1.0000
  C   C48       1.0  0.46513  0.14838  0.18342  1.0000
  C   C49       1.0  0.44497  0.13846  0.17076  1.0000
  C   C50       1.0  0.44502  0.12410  0.13788  1.0000
  C   C51       1.0  0.45166  0.07357  0.09624  1.0000
  H   H29       1.0  0.30495  0.20727  0.38105  1.0000
  C   C52       1.0  0.47452  0.18559  0.07824  1.0000
  C   C53       1.0  0.42957  0.03594  0.12975  1.0000
  C   C54       1.0  0.41693  0.05317  0.11174  1.0000
  C   C55       1.0  0.42785  0.07201  0.09542  1.0000
  C   C56       1.0  0.33577  0.24127  0.07119  1.0000
  C   C57       1.0  0.45316  0.03730  0.13077  1.0000
  H   H30       1.0  0.21135  0.31320  0.34100  1.0000
  H   H31       1.0  0.35898  0.28951  0.10932  1.0000
  H   H32       1.0  0.46176  0.03099  0.24017  1.0000
  H   H33       1.0  0.22022  0.02340  0.43405  1.0000
  H   H34       1.0  0.32278  0.05558  0.27701  1.0000
  C   C58       1.0  0.32474  0.16542  0.16323  1.0000
  C   C59       1.0  0.31564  0.20167  0.11159  1.0000
  H   H35       1.0  0.28759  0.23934  0.00262  1.0000
  C   C60       1.0  0.20978  0.12763  0.39785  1.0000
  C   C61       1.0  0.28349  0.26258  0.07009  1.0000
  H   H36       1.0  0.46521  0.15881  0.20979  1.0000
  H   H37       1.0  0.42934  0.14141  0.18701  1.0000
  H   H38       1.0  0.42922  0.11634  0.12909  1.0000
  H   H39       1.0  0.37872  0.18381  0.02258  1.0000
  H   H40       1.0  0.40358  0.07826  0.36430  1.0000
  C   C62       1.0  0.30115  0.19590  0.35681  1.0000
  H   H41       1.0  0.39856  0.05227  0.11131  1.0000
  H   H42       1.0  0.41758  0.08552  0.08289  1.0000
  C   C63       1.0  0.18058  0.21263  0.33311  1.0000
  C   C64       1.0  0.15794  0.21969  0.33146  1.0000
  C   C65       1.0  0.15116  0.23565  0.30332  1.0000
  C   C66       1.0  0.16697  0.24464  0.27694  1.0000
  C   C67       1.0  0.18967  0.23728  0.27780  1.0000
  C   C68       1.0  0.19648  0.22143  0.30647  1.0000
  P   P3        1.0  0.21010  0.24981  0.24466  1.0000
  C   C69       1.0  0.19623  0.25591  0.19819  1.0000
  C   C70       1.0  0.22123  0.27558  0.26608  1.0000
  C   C71       1.0  0.21088  0.28551  0.29933  1.0000
  C   C72       1.0  0.48322  0.19007  0.04038  1.0000
  C   C73       1.0  0.23718  0.01652  0.43770  1.0000
  C   C74       1.0  0.24900  0.30599  0.26565  1.0000
  C   C75       1.0  0.24042  0.28596  0.24941  1.0000
  C   C76       1.0  0.20025  0.27636  0.17796  1.0000
  C   C77       1.0  0.18944  0.28083  0.14214  1.0000
  C   C78       1.0  0.17435  0.26511  0.12632  1.0000
  C   C79       1.0  0.16997  0.24487  0.14642  1.0000
  C   C80       1.0  0.18079  0.24030  0.18223  1.0000
  C   C81       1.0  0.23297  0.22961  0.23629  1.0000
  C   C82       1.0  0.23062  0.21187  0.20881  1.0000
  C   C83       1.0  0.24863  0.19679  0.20151  1.0000
  C   C84       1.0  0.26905  0.19916  0.22180  1.0000
  C   C85       1.0  0.27130  0.21629  0.25007  1.0000
  C   C86       1.0  0.25331  0.23133  0.25757  1.0000
  H   H43       1.0  0.18570  0.20069  0.35577  1.0000
  H   H44       1.0  0.14572  0.21310  0.35250  1.0000
  H   H45       1.0  0.19751  0.14789  0.47951  1.0000
  H   H46       1.0  0.16145  0.25760  0.25631  1.0000
  H   H47       1.0  0.21404  0.21613  0.30876  1.0000
  H   H48       1.0  0.19569  0.27831  0.31217  1.0000
  C   C87       1.0  0.21972  0.30537  0.31584  1.0000
  H   H49       1.0  0.34711  0.15808  0.40279  1.0000
  C   C88       1.0  0.29602  0.17400  0.44597  1.0000
  H   H50       1.0  0.24843  0.27884  0.22330  1.0000
  H   H51       1.0  0.21122  0.28930  0.18981  1.0000
  H   H52       1.0  0.19235  0.29688  0.12720  1.0000
  H   H53       1.0  0.16578  0.26885  0.09883  1.0000
  H   H54       1.0  0.15795  0.23286  0.13447  1.0000
  H   H55       1.0  0.17684  0.22472  0.19773  1.0000
  H   H56       1.0  0.21504  0.20970  0.19264  1.0000
  H   H57       1.0  0.24679  0.18330  0.17995  1.0000
  H   H58       1.0  0.28308  0.18761  0.21582  1.0000
  H   H59       1.0  0.28703  0.21793  0.26621  1.0000
  H   H60       1.0  0.25538  0.24432  0.27987  1.0000
  C   C89       1.0  0.27164  0.23523  0.11915  1.0000
  C   C90       1.0  0.30539  0.16503  0.13957  1.0000
  C   C91       1.0  0.35041  0.03316  0.45919  1.0000
  C   C92       1.0  0.25348  0.23171  0.37025  1.0000
  C   C93       1.0  0.39587  0.13131  0.37478  1.0000
  C   C94       1.0  0.04666  0.29568  0.31931  1.0000
  H   H61       1.0  0.38779  0.24188  0.02671  1.0000
  C   C95       1.0  0.33937  0.18398  0.16156  1.0000
  C   C96       1.0  0.30178  0.05771  0.32888  1.0000
  C   C97       1.0  0.37086  0.14225  0.44264  1.0000
  H   H62       1.0  0.48527  0.17913  0.10139  1.0000
  H   H63       1.0  0.24181  0.24469  0.15272  1.0000
  H   H64       1.0  0.29012  0.06989  0.31590  1.0000
  H   H65       1.0  0.16650  0.16745  0.44300  1.0000
  H   H66       1.0  0.39182  0.02251  0.27047  1.0000
  H   H67       1.0  0.44476  0.18522  0.11555  1.0000
  H   H68       1.0  0.34685  0.21590  0.13438  1.0000
  H   H69       1.0  0.35287  0.21898  0.02953  1.0000
  C   C98       1.0  0.24470  0.21322  0.39149  1.0000
  H   H70       1.0  0.19757  0.11393  0.39868  1.0000
  C   C99       1.0  0.27619  0.16921  0.32448  1.0000
  C   C100      1.0  0.48069  0.08892  0.20353  1.0000
  C   C101      1.0  0.29670  0.31323  0.01268  1.0000
  H   H71       1.0  0.25665  0.14574  0.44606  1.0000
  H   H72       1.0  0.36764  0.05885  0.37913  1.0000
  C   C102      1.0  0.18174  0.32843  0.24945  1.0000
  C   C103      1.0  0.31882  0.30472  0.01930  1.0000
  C   C104      1.0  0.00978  0.31095  0.30046  1.0000
  C   C105      1.0  0.30576  0.21061  0.02794  1.0000
  H   H73       1.0  0.12836  0.29753  0.21197  1.0000
  C   C106      1.0  0.33793  0.26101  0.09427  1.0000
  C   C107      1.0  0.04241  0.31477  0.25668  1.0000
  C   C108      1.0  0.37562  0.26713  0.06778  1.0000
  C   C109      1.0  0.38208  0.02495  0.37703  1.0000
  C   C110      1.0  0.42301  0.04727  0.35989  1.0000
  C   C111      1.0  0.42246  0.02356  0.36157  1.0000
  C   C112      1.0  0.40212  0.01241  0.37005  1.0000
  C   C113      1.0  0.20730  0.14532  0.37070  1.0000
  C   C114      1.0  0.37573  0.14382  0.37162  1.0000
  C   C115      1.0  0.36324  0.14928  0.40552  1.0000
  C   C116      1.0  0.33336  0.02779  0.36340  1.0000
  H   H74       1.0  0.48240  0.05636  0.11568  1.0000
  H   H75       1.0  0.35474  0.18385  0.17903  1.0000
  C   C117      1.0  0.38287  0.04879  0.37510  1.0000
  H   H76       1.0  0.43865  0.05592  0.35241  1.0000
  C   C118      1.0  0.35398  0.23432  0.04710  1.0000
  C   C119      1.0  0.04667  0.32629  0.44090  1.0000
  C   C120      1.0  0.23869  0.31567  0.29890  1.0000
  H   H77       1.0  0.27382  0.21938  0.13476  1.0000
  C   C121      1.0  0.29374  0.22219  0.99830  1.0000
  C   C122      1.0  0.14322  0.30620  0.22276  1.0000
  H   H78       1.0  0.32487  0.17978  0.04110  1.0000
  H   H79       1.0  0.35456  0.04853  0.44339  1.0000
  H   H80       1.0  0.36934  0.14853  0.34278  1.0000
  H   H81       1.0  0.26289  0.29289  0.06558  1.0000
  C   C123      1.0  0.32031  0.04973  0.30702  1.0000
  C   C124      1.0  0.40361  0.12439  0.41185  1.0000
  C   C125      1.0  0.26532  0.27676  0.08053  1.0000
  C   C126      1.0  0.31457  0.18880  0.01974  1.0000
  H   H82       1.0  0.32434  0.26651  0.11371  1.0000
  H   H83       1.0  0.32883  0.15105  0.18205  1.0000
  C   C127      1.0  0.26835  0.19991  0.47460  1.0000
  H   H84       1.0  0.19318  0.14530  0.35035  1.0000
  P   P4        1.0  0.31080  0.22378  0.07543  1.0000
  C   C128      1.0  0.30083  0.18307  0.11385  1.0000
  C   C129      1.0  0.24106  0.25203  0.36739  1.0000
  H   H85       1.0  0.23647  0.28156  0.11841  1.0000
  C   C130      1.0  0.49399  0.09299  0.06001  1.0000
  H   H86       1.0  0.46285  0.02415  0.14543  1.0000
  H   H87       1.0  0.48246  0.10061  0.31578  1.0000
  C   C131      1.0  0.46420  0.05586  0.11381  1.0000
  H   H88       1.0  0.28444  0.05684  0.38486  1.0000
  C   C132      1.0  0.48194  0.09730  0.28441  1.0000
  H   H89       1.0  0.42115  0.02166  0.14345  1.0000
  C   C133      1.0  0.22288  0.16315  0.37014  1.0000
  C   C134      1.0  0.43690  0.19695  0.05699  1.0000
  P   P5        1.0  0.26060  0.18696  0.39644  1.0000
  C   C135      1.0  0.16680  0.31797  0.27680  1.0000
  C   C136      1.0  0.28052  0.18405  0.35599  1.0000
  C   C137      1.0  0.24094  0.16352  0.39701  1.0000
  H   H90       1.0  0.04713  0.31581  0.41458  1.0000
  C   C138      1.0  0.17759  0.32800  0.20849  1.0000
  H   H91       1.0  0.25257  0.20937  0.47322  1.0000
  H   H92       1.0  0.13369  0.24149  0.30237  1.0000
  C   C139      1.0  0.31296  0.17761  0.29602  1.0000
  H   H93       1.0  0.22944  0.11429  0.44604  1.0000
  H   H94       1.0  0.42886  0.15628  0.45210  1.0000
  C   C140      1.0  0.43275  0.05000  0.47063  1.0000
  C   C141      1.0  0.24326  0.14572  0.42433  1.0000
  C   C142      1.0  0.28066  0.99850  0.44869  1.0000
  C   C143      1.0  0.27470  0.01941  0.46567  1.0000
  H   H95       1.0  0.28940  0.15372  0.27147  1.0000
  H   H96       1.0  0.99838  0.29206  0.42413  1.0000
  H   H97       1.0  0.38183  0.07739  0.47452  1.0000
  C   C144      1.0  0.29235  0.16606  0.29467  1.0000
  H   H98       1.0  0.26078  0.15938  0.32336  1.0000
  C   C145      1.0  0.44792  0.01957  0.24635  1.0000
  C   C146      1.0  0.48531  0.13037  0.12924  1.0000
  H   H99       1.0  0.21015  0.26970  0.38363  1.0000
  C   C147      1.0  0.15798  0.31695  0.19547  1.0000
  C   C148      1.0  0.05607  0.30337  0.28397  1.0000
  C   C149      1.0  0.21097  0.23569  0.40665  1.0000
  H   H100      1.0  0.26992  0.23065  0.35616  1.0000
  H   H101      1.0  0.19441  0.23718  0.42058  1.0000
  H   H102      1.0  0.44538  0.07666  0.00908  1.0000
  H   H103      1.0  0.30195  0.16342  0.42183  1.0000
  H   H104      1.0  0.33344  0.20133  0.32828  1.0000
  H   H105      1.0  0.32580  0.17429  0.27369  1.0000
  H   H106      1.0  0.05716  0.28658  0.34030  1.0000
  C   C150      1.0  0.31730  0.19265  0.32695  1.0000
  H   H107      1.0  0.15429  0.31644  0.16427  1.0000
  H   H108      1.0  0.22081  0.17670  0.34887  1.0000
  C   C151      1.0  0.46835  0.19771  0.01086  1.0000
  C   C152      1.0  0.37659  0.00733  0.16749  1.0000
  H   H109      1.0  0.48008  0.08564  0.17230  1.0000
  C   C153      1.0  0.22336  0.21541  0.40971  1.0000
  C   C154      1.0  0.02370  0.29955  0.32760  1.0000
  H   H110      1.0  0.07396  0.30040  0.27779  1.0000
  C   C155      1.0  0.48525  0.14444  0.16253  1.0000
  H   H111      1.0  0.48726  0.10104  0.99865  1.0000
  C   C156      1.0  0.40823  0.01507  0.26342  1.0000
  H   H112      1.0  0.36037  0.14578  0.46811  1.0000
  H   H113      1.0  0.28317  0.00045  0.35782  1.0000
  H   H114      1.0  0.32842  0.31125  0.04389  1.0000
  H   H115      1.0  0.02986  0.30086  0.47508  1.0000
  H   H116      1.0  0.43997  0.03341  0.46398  1.0000
  H   H117      1.0  0.17026  0.31875  0.30804  1.0000
  H   H118      1.0  0.29391  0.00603  0.28820  1.0000
  H   H119      1.0  0.39844  0.03941  0.46059  1.0000
  H   H120      1.0  0.01679  0.29354  0.35518  1.0000
  C   C157      1.0  0.40932  0.05340  0.46869  1.0000
  H   H121      1.0  0.04976  0.32064  0.22920  1.0000
  H   H122      1.0  0.34531  0.28113  0.00120  1.0000
  H   H123      1.0  0.42368  0.15824  0.00250  1.0000
  C   C158      1.0  0.32854  0.28758  0.99489  1.0000
  H   H124      1.0  0.48515  0.14811  0.99791  1.0000
  C   C159      1.0  0.43407  0.15560  0.48262  1.0000
  H   H125      1.0  0.49557  0.00009  0.06191  1.0000
  H   H126      1.0  0.00920  0.32733  0.24310  1.0000
  H   H127      1.0  0.32259  0.16264  0.48486  1.0000
  C   C160      1.0  0.44689  0.06804  0.48077  1.0000
  C   C161      1.0  0.30788  0.17364  0.48157  1.0000
  C   C162      1.0  0.19474  0.16593  0.48353  1.0000
  H   H128      1.0  0.28672  0.02850  0.48388  1.0000
  H   H129      1.0  0.46510  0.06544  0.48190  1.0000
  C   C163      1.0  0.34896  0.12465  0.59487  1.0000
  Fe  Fe9       1.0  0.37178  0.18211  0.92945  1.0000
  S   S16       1.0  0.38355  0.21556  0.95338  1.0000
  Fe  Fe10      1.0  0.36931  0.19879  0.84418  1.0000
  S   S17       1.0  0.38139  0.23385  0.86261  1.0000
  S   S18       1.0  0.36131  0.19184  0.77838  1.0000
  Fe  Fe11      1.0  0.40742  0.21547  0.90055  1.0000
  S   S19       1.0  0.44456  0.22534  0.91551  1.0000
  Fe  Fe12      1.0  0.35693  0.23159  0.91432  1.0000
  S   S20       1.0  0.32830  0.25787  0.92926  1.0000
  S   S21       1.0  0.39677  0.18091  0.87902  1.0000
  S   S22       1.0  0.34378  0.19764  0.89341  1.0000
  Fe  Fe13      1.0  0.26036  0.07959  0.56551  1.0000
  S   S23       1.0  0.29679  0.08459  0.58196  1.0000
  S   S24       1.0  0.24403  0.04396  0.55911  1.0000
  Fe  Fe14      1.0  0.25286  0.13189  0.54941  1.0000
  S   S25       1.0  0.28968  0.13913  0.56403  1.0000
  S   S26       1.0  0.23187  0.16487  0.53600  1.0000
  Fe  Fe15      1.0  0.29782  0.10754  0.52908  1.0000
  Fe  Fe16      1.0  0.28572  0.11590  0.61601  1.0000
  S   S27       1.0  0.29894  0.12250  0.67929  1.0000
  S   S28       1.0  0.26186  0.10163  0.51069  1.0000
  S   S29       1.0  0.24851  0.10951  0.60344  1.0000
  P   P6        1.0  0.40193  0.12118  0.49387  1.0000
  C   C164      1.0  0.25337  0.01470  0.56031  1.0000
  H   H130      1.0  0.37694  0.15878  0.53048  1.0000
  C   C165      1.0  0.05578  0.24782  0.56268  1.0000
  C   C166      1.0  0.08002  0.32218  0.82923  1.0000
  C   C167      1.0  0.34401  0.17222  0.75134  1.0000
  C   C168      1.0  0.33382  0.15335  0.76897  1.0000
  C   C169      1.0  0.32034  0.13836  0.74641  1.0000
  C   C170      1.0  0.31693  0.14176  0.70568  1.0000
  C   C171      1.0  0.32724  0.16059  0.68790  1.0000
  C   C172      1.0  0.34068  0.17561  0.71054  1.0000
  H   H131      1.0  0.33653  0.15014  0.79997  1.0000
  H   H132      1.0  0.31248  0.12397  0.76071  1.0000
  H   H133      1.0  0.32468  0.16371  0.65681  1.0000
  H   H134      1.0  0.34850  0.19005  0.69636  1.0000
  H   H135      1.0  0.31749  0.16168  0.97718  1.0000
  C   C173      1.0  0.47320  0.22085  0.89835  1.0000
  C   C174      1.0  0.38516  0.28478  0.92813  1.0000
  H   H136      1.0  0.46500  0.20134  0.84670  1.0000
  C   C175      1.0  0.37408  0.10237  0.55298  1.0000
  C   C176      1.0  0.35576  0.14445  0.57555  1.0000
  H   H137      1.0  0.44900  0.10327  0.49602  1.0000
  H   H138      1.0  0.38767  0.29782  0.83068  1.0000
  H   H139      1.0  0.21472  0.21108  0.53461  1.0000
  H   H140      1.0  0.09735  0.31768  0.83667  1.0000
  H   H141      1.0  0.28119  0.22119  0.93880  1.0000
  C   C177      1.0  0.03244  0.25067  0.56855  1.0000
  C   C178      1.0  0.37810  0.29214  0.89099  1.0000
  H   H142      1.0  0.42165  0.09088  0.95422  1.0000
  C   C179      1.0  0.47849  0.20873  0.86387  1.0000
  H   H143      1.0  0.35278  0.08836  0.59873  1.0000
  C   C180      1.0  0.12280  0.31327  0.60698  1.0000
  C   C181      1.0  0.12215  0.31116  0.56552  1.0000
  H   H144      1.0  0.48748  0.23986  0.94641  1.0000
  H   H145      1.0  0.41093  0.13166  0.95085  1.0000
  C   C182      1.0  0.38063  0.12212  0.53266  1.0000
  H   H146      1.0  0.12925  0.29624  0.55126  1.0000
  C   C183      1.0  0.28455  0.30427  0.98082  1.0000
  H   H147      1.0  0.27368  0.20876  0.53547  1.0000
  C   C184      1.0  0.47901  0.26618  0.81616  1.0000
  C   C185      1.0  0.42103  0.22106  0.78472  1.0000
  C   C186      1.0  0.40709  0.22506  0.75222  1.0000
  C   C187      1.0  0.40185  0.24735  0.74106  1.0000
  C   C188      1.0  0.41076  0.26569  0.76213  1.0000
  C   C189      1.0  0.42535  0.26179  0.79413  1.0000
  C   C190      1.0  0.42996  0.23935  0.80581  1.0000
  P   P7        1.0  0.43545  0.28512  0.82373  1.0000
  H   H148      1.0  0.38102  0.08591  0.54545  1.0000
  C   C191      1.0  0.41633  0.28643  0.86541  1.0000
  C   C192      1.0  0.42325  0.27903  0.90283  1.0000
  C   C193      1.0  0.39358  0.29284  0.85963  1.0000
  C   C194      1.0  0.49127  0.23015  0.92011  1.0000
  C   C195      1.0  0.28033  0.19963  0.51010  1.0000
  H   H149      1.0  0.20631  0.25770  0.87170  1.0000
  C   C196      1.0  0.29449  0.28748  0.95589  1.0000
  H   H150      1.0  0.47256  0.25619  0.79194  1.0000
  C   C197      1.0  0.46484  0.28122  0.83732  1.0000
  C   C198      1.0  0.43494  0.31130  0.79609  1.0000
  H   H151      1.0  0.06331  0.23095  0.56310  1.0000
  C   C199      1.0  0.23844  0.99752  0.54764  1.0000
  C   C200      1.0  0.33706  0.01562  0.51944  1.0000
  H   H152      1.0  0.05751  0.31476  0.61898  1.0000
  H   H153      1.0  0.42437  0.20377  0.79426  1.0000
  H   H154      1.0  0.39983  0.21083  0.73642  1.0000
  H   H155      1.0  0.39050  0.25033  0.71654  1.0000
  H   H156      1.0  0.40593  0.28280  0.75380  1.0000
  H   H157      1.0  0.44010  0.23600  0.83174  1.0000
  H   H158      1.0  0.44038  0.27306  0.90778  1.0000
  C   C201      1.0  0.05971  0.28844  0.55365  1.0000
  H   H159      1.0  0.28489  0.28106  0.93119  1.0000
  C   C202      1.0  0.47420  0.29453  0.86751  1.0000
  C   C203      1.0  0.41403  0.09307  0.48720  1.0000
  H   H160      1.0  0.33655  0.12551  0.61858  1.0000
  C   C204      1.0  0.26640  0.14024  0.81855  1.0000
  C   C205      1.0  0.99877  0.24477  0.84155  1.0000
  C   C206      1.0  0.35818  0.10367  0.58370  1.0000
  C   C207      1.0  0.43762  0.08951  0.48896  1.0000
  H   H161      1.0  0.07049  0.30285  0.54708  1.0000
  H   H162      1.0  0.36040  0.29658  0.88642  1.0000
  C   C208      1.0  0.23811  0.21062  0.67726  1.0000
  C   C209      1.0  0.24703  0.19201  0.65646  1.0000
  C   C210      1.0  0.26349  0.17816  0.67394  1.0000
  C   C211      1.0  0.27090  0.18279  0.71222  1.0000
  C   C212      1.0  0.26175  0.20116  0.73364  1.0000
  C   C213      1.0  0.24548  0.21527  0.71567  1.0000
  P   P8        1.0  0.27159  0.20669  0.78322  1.0000
  C   C214      1.0  0.29731  0.22326  0.78216  1.0000
  C   C215      1.0  0.25036  0.22260  0.81056  1.0000
  C   C216      1.0  0.23514  0.21157  0.83602  1.0000
  C   C217      1.0  0.21928  0.22421  0.85790  1.0000
  C   C218      1.0  0.21848  0.24790  0.85450  1.0000
  C   C219      1.0  0.23344  0.25897  0.82901  1.0000
  C   C220      1.0  0.24927  0.24640  0.80703  1.0000
  C   C221      1.0  0.31074  0.22426  0.74794  1.0000
  C   C222      1.0  0.33082  0.23682  0.74775  1.0000
  C   C223      1.0  0.33772  0.24828  0.78176  1.0000
  C   C224      1.0  0.32438  0.24747  0.81586  1.0000
  C   C225      1.0  0.30425  0.23504  0.81612  1.0000
  C   C226      1.0  0.27670  0.17973  0.80746  1.0000
  C   C227      1.0  0.29514  0.17690  0.83309  1.0000
  C   C228      1.0  0.29907  0.15596  0.85147  1.0000
  C   C229      1.0  0.28478  0.13761  0.84406  1.0000
  H   H163      1.0  0.48411  0.12840  0.93361  1.0000
  C   C230      1.0  0.26228  0.16123  0.80046  1.0000
  H   H164      1.0  0.22535  0.22135  0.66361  1.0000
  H   H165      1.0  0.24116  0.18822  0.62684  1.0000
  H   H166      1.0  0.27040  0.16365  0.65798  1.0000
  H   H167      1.0  0.28363  0.17187  0.72531  1.0000
  H   H168      1.0  0.23832  0.22971  0.73122  1.0000
  H   H169      1.0  0.23551  0.19329  0.83933  1.0000
  H   H170      1.0  0.20767  0.21564  0.87769  1.0000
  H   H171      1.0  0.34866  0.16070  0.58454  1.0000
  H   H172      1.0  0.02822  0.22429  0.82780  1.0000
  H   H173      1.0  0.26080  0.25529  0.78751  1.0000
  H   H174      1.0  0.30617  0.21489  0.72172  1.0000
  H   H175      1.0  0.34155  0.23678  0.72178  1.0000
  H   H176      1.0  0.35370  0.25724  0.78207  1.0000
  H   H177      1.0  0.32986  0.25606  0.84245  1.0000
  H   H178      1.0  0.29441  0.23426  0.84315  1.0000
  H   H179      1.0  0.30687  0.19059  0.83822  1.0000
  H   H180      1.0  0.31364  0.15379  0.87058  1.0000
  H   H181      1.0  0.22184  0.00232  0.53686  1.0000
  H   H182      1.0  0.23286  0.27736  0.82652  1.0000
  H   H183      1.0  0.24803  0.16290  0.78058  1.0000
  C   C231      1.0  0.40771  0.27821  0.93405  1.0000
  C   C232      1.0  0.05202  0.25501  0.67076  1.0000
  C   C233      1.0  0.07289  0.26430  0.65994  1.0000
  C   C234      1.0  0.08050  0.28406  0.67832  1.0000
  C   C235      1.0  0.06744  0.29449  0.70781  1.0000
  C   C236      1.0  0.04691  0.28474  0.72004  1.0000
  C   C237      1.0  0.03899  0.26527  0.70052  1.0000
  P   P9        1.0  0.02964  0.29801  0.75776  1.0000
  H   H184      1.0  0.18318  0.23055  0.49916  1.0000
  C   C238      1.0  0.01723  0.27683  0.78945  1.0000
  H   H185      1.0  0.08753  0.26461  0.55134  1.0000
  H   H186      1.0  0.00457  0.27423  0.57150  1.0000
  H   H187      1.0  0.47448  0.20081  0.98117  1.0000
  C   C239      1.0  0.01934  0.24018  0.82236  1.0000
  C   C240      1.0  0.02864  0.25621  0.79659  1.0000
  C   C241      1.0  0.02270  0.27244  0.56726  1.0000
  H   H188      1.0  0.34327  0.05152  0.51297  1.0000
  C   C242      1.0  0.45134  0.17009  0.49518  1.0000
  H   H189      1.0  0.46378  0.30675  0.88338  1.0000
  C   C243      1.0  0.30021  0.18671  0.51346  1.0000
  C   C244      1.0  0.04575  0.31540  0.79135  1.0000
  C   C245      1.0  0.06798  0.30918  0.80188  1.0000
  C   C246      1.0  0.44437  0.31186  0.75801  1.0000
  H   H190      1.0  0.26755  0.31045  0.97510  1.0000
  C   C247      1.0  0.20424  0.20144  0.51464  1.0000
  C   C248      1.0  0.18625  0.21259  0.49450  1.0000
  H   H191      1.0  0.04598  0.23986  0.65607  1.0000
  H   H192      1.0  0.08316  0.25631  0.63717  1.0000
  H   H193      1.0  0.09658  0.29135  0.66965  1.0000
  H   H194      1.0  0.07354  0.31010  0.72094  1.0000
  H   H195      1.0  0.02278  0.25797  0.70841  1.0000
  C   C249      1.0  0.42160  0.12551  0.97464  1.0000
  C   C250      1.0  0.42389  0.14049  0.50935  1.0000
  C   C251      1.0  0.37164  0.14323  0.54479  1.0000
  H   H196      1.0  0.47194  0.18085  0.54406  1.0000
  H   H197      1.0  0.04486  0.25261  0.78270  1.0000
  S   S30       1.0  0.32818  0.10187  0.48911  1.0000
  H   H198      1.0  0.02184  0.23596  0.57346  1.0000
  H   H199      1.0  0.33144  0.01710  0.54986  1.0000
  C   C252      1.0  0.20870  0.17797  0.50949  1.0000
  H   H200      1.0  0.28659  0.02083  0.58383  1.0000
  H   H201      1.0  0.07606  0.29427  0.78918  1.0000
  H   H202      1.0  0.28818  0.12125  0.85761  1.0000
  H   H203      1.0  0.13033  0.29978  0.62434  1.0000
  C   C253      1.0  0.31659  0.27896  0.96252  1.0000
  P   P10       1.0  0.02385  0.31947  0.55451  1.0000
  H   H204      1.0  0.30912  0.18608  0.54133  1.0000
  H   H205      1.0  0.29534  0.18202  0.92603  1.0000
  H   H206      1.0  0.45166  0.29660  0.74503  1.0000
  C   C254      1.0  0.00786  0.31379  0.73211  1.0000
  C   C255      1.0  0.45853  0.16964  0.53441  1.0000
  H   H207      1.0  0.25553  0.12590  0.81226  1.0000
  C   C256      1.0  0.31053  0.17845  0.98332  1.0000
  H   H208      1.0  0.45405  0.15431  0.59158  1.0000
  C   C257      1.0  0.03628  0.29147  0.55952  1.0000
  C   C258      1.0  0.06942  0.26674  0.55575  1.0000
  C   C259      1.0  0.28997  0.21187  0.96176  1.0000
  H   H209      1.0  0.42370  0.12852  0.56976  1.0000
  C   C260      1.0  0.29810  0.18991  0.95446  1.0000
  C   C261      1.0  0.27485  0.00800  0.57391  1.0000
  C   C262      1.0  0.44847  0.15467  0.56116  1.0000
  C   C263      1.0  0.43125  0.14012  0.54870  1.0000
  C   C264      1.0  0.42763  0.10253  0.97661  1.0000
  S   S31       1.0  0.36508  0.15003  0.96457  1.0000
  C   C265      1.0  0.34382  0.03496  0.49874  1.0000
  H   H210      1.0  0.41304  0.27181  0.96251  1.0000
  H   H211      1.0  0.37299  0.28363  0.95200  1.0000
  C   C266      1.0  0.99684  0.28155  0.80953  1.0000
  C   C267      1.0  0.11317  0.32879  0.54257  1.0000
  S   S32       1.0  0.11451  0.32836  0.49017  1.0000
  Fe  Fe17      1.0  0.20915  0.61679  0.10416  1.0000
  S   S33       1.0  0.24497  0.60755  0.08486  1.0000
  S   S34       1.0  0.20367  0.62901  0.16855  1.0000
  Fe  Fe18      1.0  0.19129  0.60781  0.02066  1.0000
  H   H212      1.0  0.00161  0.61334  0.20238  1.0000
  Fe  Fe19      1.0  0.22917  0.57778  0.05189  1.0000
  S   S35       1.0  0.24421  0.54128  0.04598  1.0000
  Fe  Fe20      1.0  0.23862  0.62895  0.03040  1.0000
  H   H213      1.0  0.07458  0.49811  0.19184  1.0000
  S   S36       1.0  0.19414  0.58568  0.07477  1.0000
  S   S37       1.0  0.20362  0.63919  0.05168  1.0000
  Fe  Fe21      1.0  0.20788  0.35269  0.11185  1.0000
  S   S38       1.0  0.24035  0.37308  0.10852  1.0000
  C   C268      1.0  0.15481  0.43915  0.03982  1.0000
  Fe  Fe22      1.0  0.20238  0.35720  0.02125  1.0000
  S   S39       1.0  0.23398  0.37798  0.01375  1.0000
  Fe  Fe23      1.0  0.24979  0.35187  0.05443  1.0000
  Fe  Fe24      1.0  0.22185  0.39744  0.06772  1.0000
  S   S40       1.0  0.21540  0.43648  0.07582  1.0000
  C   C269      1.0  0.10520  0.54404  0.22102  1.0000
  S   S41       1.0  0.18906  0.37763  0.07279  1.0000
  H   H214      1.0  0.19510  0.49336  0.99412  1.0000
  C   C270      1.0  0.23563  0.51228  0.05444  1.0000
  C   C271      1.0  0.21459  0.50655  0.07097  1.0000
  C   C272      1.0  0.20890  0.48344  0.07767  1.0000
  C   C273      1.0  0.22394  0.46552  0.06756  1.0000
  C   C274      1.0  0.24474  0.47125  0.05018  1.0000
  C   C275      1.0  0.25054  0.49435  0.04395  1.0000
  H   H215      1.0  0.20268  0.51994  0.07842  1.0000
  H   H216      1.0  0.19262  0.47937  0.09054  1.0000
  H   H217      1.0  0.25652  0.45786  0.04191  1.0000
  S   S42       1.0  0.19779  0.34091  0.17536  1.0000
  C   C276      1.0  0.18301  0.64463  0.19704  1.0000
  H   H218      1.0  0.08276  0.52115  0.25145  1.0000
  H   H219      1.0  0.11408  0.37934  0.43098  1.0000
  H   H220      1.0  0.20189  0.64090  0.25102  1.0000
  C   C277      1.0  0.12626  0.41303  0.41773  1.0000
  H   H221      1.0  0.14947  0.59754  0.31907  1.0000
  C   C278      1.0  0.14603  0.60414  0.12216  1.0000
  H   H222      1.0  0.99748  0.65022  0.23669  1.0000
  S   S43       1.0  0.21852  0.33046  0.06030  1.0000
  C   C279      1.0  0.05711  0.34751  0.44100  1.0000
  C   C280      1.0  0.18175  0.57659  0.19047  1.0000
  C   C281      1.0  0.14275  0.58673  0.25938  1.0000
  H   H223      1.0  0.12597  0.63261  0.31408  1.0000
  C   C282      1.0  0.10784  0.58936  0.11951  1.0000
  C   C283      1.0  0.15006  0.46100  0.02514  1.0000
  H   H224      1.0  0.09417  0.57943  0.13185  1.0000
  H   H225      1.0  0.26684  0.49836  0.03102  1.0000
  H   H226      1.0  0.24508  0.33145  0.31097  1.0000
  H   H227      1.0  0.20307  0.53407  0.99672  1.0000
  C   C284      1.0  0.12722  0.62095  0.28928  1.0000
  H   H228      1.0  0.15324  0.57160  0.26185  1.0000
  S   S44       1.0  0.28514  0.33455  0.04561  1.0000
  C   C285      1.0  0.16374  0.56268  0.17877  1.0000
  C   C286      1.0  0.14057  0.60127  0.29192  1.0000
  C   C287      1.0  0.11587  0.62597  0.25426  1.0000
  H   H229      1.0  0.10594  0.64152  0.25213  1.0000
  P   P11       1.0  0.13484  0.57332  0.18155  1.0000
  H   H230      1.0  0.01078  0.33896  0.36754  1.0000
  H   H231      1.0  0.21798  0.58041  0.19412  1.0000
  H   H232      1.0  0.11817  0.62467  0.04192  1.0000
  H   H233      1.0  0.10859  0.55379  0.24742  1.0000
  C   C288      1.0  0.09594  0.51810  0.15377  1.0000
  H   H234      1.0  0.15772  0.41810  0.09148  1.0000
  C   C289      1.0  0.14648  0.45200  0.10626  1.0000
  C   C290      1.0  0.14125  0.47367  0.09186  1.0000
  C   C291      1.0  0.14298  0.47818  0.05144  1.0000
  H   H235      1.0  0.17847  0.59347  0.20205  1.0000
  H   H236      1.0  0.10954  0.61616  0.19457  1.0000
  S   S45       1.0  0.11288  0.64976  0.46036  1.0000
  C   C292      1.0  0.16322  0.65385  0.18060  1.0000
  C   C293      1.0  0.16863  0.54078  0.16409  1.0000
  S   S46       1.0  0.25756  0.66079  0.00686  1.0000
  C   C294      1.0  0.12100  0.61531  0.06904  1.0000
  C   C295      1.0  0.11813  0.61159  0.22158  1.0000
  H   H237      1.0  0.11474  0.43820  0.98968  1.0000
  C   C296      1.0  0.20422  0.56915  0.18631  1.0000
  C   C297      1.0  0.15313  0.43475  0.08023  1.0000
  H   H238      1.0  0.13928  0.44708  0.41390  1.0000
  C   C298      1.0  0.19111  0.53320  0.16071  1.0000
  H   H239      1.0  0.16234  0.60564  0.13636  1.0000
  H   H240      1.0  0.11842  0.54067  0.12311  1.0000
  S   S47       1.0  0.22549  0.59876  0.99609  1.0000
  H   H241      1.0  0.12651  0.41027  0.38610  1.0000
  H   H242      1.0  0.08749  0.60114  0.07072  1.0000
  H   H243      1.0  0.14581  0.44859  0.13764  1.0000
  H   H244      1.0  0.13641  0.48710  0.11214  1.0000
  H   H245      1.0  0.13928  0.49517  0.04097  1.0000
  H   H246      1.0  0.22634  0.54184  0.16737  1.0000
  H   H247      1.0  0.19664  0.33707  0.26013  1.0000
  C   C299      1.0  0.08589  0.51252  0.18986  1.0000
  C   C300      1.0  0.05708  0.36064  0.47536  1.0000
  H   H248      1.0  0.29697  0.63382  0.05326  1.0000
  H   H249      1.0  0.25762  0.63169  0.29440  1.0000
  C   C301      1.0  0.20891  0.54750  0.17123  1.0000
  H   H250      1.0  0.15532  0.52948  0.15493  1.0000
  H   H251      1.0  0.26895  0.65480  0.09275  1.0000
  C   C302      1.0  0.18675  0.64793  0.23772  1.0000
  H   H252      1.0  0.02534  0.64962  0.30845  1.0000
  C   C303      1.0  0.11539  0.54974  0.18488  1.0000
  C   C304      1.0  0.14195  0.61668  0.08788  1.0000
  C   C305      1.0  0.13183  0.59198  0.22374  1.0000
  C   C306      1.0  0.17111  0.66022  0.26157  1.0000
  C   C307      1.0  0.09050  0.52550  0.22344  1.0000
  H   H253      1.0  0.33802  0.63662  0.06843  1.0000
  C   C308      1.0  0.13348  0.43374  0.43344  1.0000
  H   H254      1.0  0.09240  0.50803  0.12773  1.0000
  H   H255      1.0  0.19481  0.51632  0.14939  1.0000
  H   H256      1.0  0.06586  0.35340  0.41480  1.0000
  H   H257      1.0  0.25035  0.64374  0.17035  1.0000
  C   C309      1.0  0.25272  0.63559  0.23188  1.0000
  C   C310      1.0  0.30266  0.64454  0.07726  1.0000
  C   C311      1.0  0.11062  0.53663  0.15125  1.0000
  H   H258      1.0  0.24299  0.62011  0.22879  1.0000
  C   C312      1.0  0.11914  0.39568  0.44290  1.0000
  C   C313      1.0  0.12925  0.58986  0.13765  1.0000
  H   H259      1.0  0.35069  0.66005  0.12511  1.0000
  H   H260      1.0  0.16046  0.42557  0.02036  1.0000
  C   C314      1.0  0.10385  0.60187  0.08510  1.0000
  H   H261      1.0  0.15515  0.62726  0.07552  1.0000
  H   H262      1.0  0.15997  0.65164  0.14948  1.0000
  C   C315      1.0  0.33284  0.65937  0.11771  1.0000
  C   C316      1.0  0.28675  0.65680  0.09952  1.0000
  C   C317      1.0  0.26089  0.64218  0.26876  1.0000
  C   C318      1.0  0.25676  0.64913  0.19878  1.0000
  H   H263      1.0  0.19974  0.45686  0.00219  1.0000
  H   H264      1.0  0.00073  0.65382  0.45181  1.0000
  C   C319      1.0  0.32573  0.64606  0.08595  1.0000
  H   H265      1.0  0.17430  0.66244  0.29273  1.0000
  H   H266      1.0  0.00482  0.35462  0.43425  1.0000
  C   C320      1.0  0.18683  0.52827  0.98584  1.0000
  H   H267      1.0  0.00804  0.65906  0.38091  1.0000
  C   C321      1.0  0.13366  0.43711  0.47433  1.0000
  H   H268      1.0  0.06589  0.37673  0.47576  1.0000
  C   C322      1.0  0.27332  0.66224  0.27245  1.0000
  H   H269      1.0  0.13978  0.45312  0.48564  1.0000
  C   C323      1.0  0.11917  0.39907  0.48370  1.0000
  Fe  Fe25      1.0  0.12203  0.41699  0.72388  1.0000
  S   S48       1.0  0.09571  0.42353  0.77019  1.0000
  S   S49       1.0  0.14527  0.44501  0.70382  1.0000
  Fe  Fe26      1.0  0.10829  0.36771  0.71239  1.0000
  S   S50       1.0  0.08059  0.37012  0.75857  1.0000
  C   C324      1.0  0.13034  0.47095  0.55967  1.0000
  Fe  Fe27      1.0  0.07251  0.40394  0.73111  1.0000
  S   S51       1.0  0.03859  0.41871  0.71376  1.0000
  Fe  Fe28      1.0  0.10616  0.38958  0.79473  1.0000
  S   S52       1.0  0.10821  0.39102  0.86165  1.0000
  S   S53       1.0  0.09802  0.39997  0.68243  1.0000
  S   S54       1.0  0.13453  0.38444  0.75104  1.0000
  Fe  Fe29      1.0  0.10068  0.56794  0.69780  1.0000
  S   S55       1.0  0.09496  0.57286  0.76270  1.0000
  S   S56       1.0  0.08960  0.53506  0.66971  1.0000
  Fe  Fe30      1.0  0.11603  0.61683  0.68480  1.0000
  S   S57       1.0  0.11158  0.62558  0.74899  1.0000
  S   S58       1.0  0.12734  0.64592  0.64577  1.0000
  Fe  Fe31      1.0  0.12803  0.59175  0.76106  1.0000
  S   S59       1.0  0.15822  0.58589  0.80136  1.0000
  Fe  Fe32      1.0  0.07897  0.60605  0.74476  1.0000
  S   S60       1.0  0.04563  0.61970  0.76833  1.0000
  S   S61       1.0  0.13498  0.58426  0.69681  1.0000
  S   S62       1.0  0.08236  0.59987  0.68002  1.0000
  H   H270      1.0  0.14476  0.35937  0.84133  1.0000
  H   H271      1.0  0.09816  0.36538  0.61707  1.0000
  C   C325      1.0  0.02276  0.58694  0.72640  1.0000
  H   H272      1.0  0.09579  0.51244  0.77547  1.0000
  C   C326      1.0  0.15792  0.59263  0.85213  1.0000
  C   C327      1.0  0.13812  0.59969  0.87158  1.0000
  C   C328      1.0  0.13864  0.60466  0.91224  1.0000
  C   C329      1.0  0.15891  0.60264  0.93367  1.0000
  C   C330      1.0  0.17865  0.59546  0.91413  1.0000
  C   C331      1.0  0.17816  0.59060  0.87353  1.0000
  H   H273      1.0  0.12244  0.60134  0.85531  1.0000
  H   H274      1.0  0.12328  0.61018  0.92709  1.0000
  H   H275      1.0  0.19433  0.59366  0.93019  1.0000
  H   H276      1.0  0.19356  0.58542  0.85850  1.0000
  C   C332      1.0  0.12086  0.64708  0.59492  1.0000
  H   H277      1.0  0.20359  0.53383  0.66739  1.0000
  C   C333      1.0  0.11460  0.62764  0.57388  1.0000
  H   H278      1.0  0.17997  0.55684  0.71360  1.0000
  H   H279      1.0  0.11271  0.61160  0.58913  1.0000
  H   H280      1.0  0.21438  0.49419  0.68497  1.0000
  H   H281      1.0  0.05762  0.57858  0.50822  1.0000
  C   C334      1.0  0.10404  0.34805  0.56170  1.0000
  H   H282      1.0  0.11727  0.54489  0.88251  1.0000
  H   H283      1.0  0.03927  0.58030  0.71819  1.0000
  C   C335      1.0  0.13145  0.37999  0.88863  1.0000
  C   C336      1.0  0.13403  0.38617  0.92843  1.0000
  C   C337      1.0  0.15144  0.37655  0.95154  1.0000
  C   C338      1.0  0.16604  0.36019  0.93519  1.0000
  C   C339      1.0  0.16367  0.35431  0.89520  1.0000
  C   C340      1.0  0.14664  0.36436  0.87185  1.0000
  C   C341      1.0  0.19817  0.52663  0.69525  1.0000
  C   C342      1.0  0.21477  0.53769  0.88339  1.0000
  C   C343      1.0  0.04977  0.65979  0.53270  1.0000
  H   H284      1.0  0.15304  0.38112  0.98232  1.0000
  H   H285      1.0  0.07750  0.44266  0.88160  1.0000
  C   C344      1.0  0.13009  0.47040  0.69594  1.0000
  C   C345      1.0  0.10647  0.47066  0.69907  1.0000
  C   C346      1.0  0.09428  0.49076  0.69213  1.0000
  C   C347      1.0  0.10559  0.51086  0.68247  1.0000
  C   C348      1.0  0.12931  0.51084  0.68031  1.0000
  C   C349      1.0  0.14152  0.49053  0.68662  1.0000
  H   H286      1.0  0.09750  0.45526  0.70623  1.0000
  H   H287      1.0  0.07603  0.49072  0.69460  1.0000
  H   H288      1.0  0.13817  0.52630  0.67278  1.0000
  H   H289      1.0  0.15978  0.49038  0.68416  1.0000
  H   H290      1.0  0.15478  0.52672  0.87631  1.0000
  H   H291      1.0  0.19665  0.47448  0.88350  1.0000
  C   C350      1.0  0.14194  0.52283  0.85471  1.0000
  H   H292      1.0  0.01790  0.33844  0.80412  1.0000
  H   H293      1.0  0.03348  0.38967  0.78257  1.0000
  C   C351      1.0  0.22601  0.65218  0.78236  1.0000
  H   H294      1.0  0.15391  0.38196  0.67039  1.0000
  C   C352      1.0  0.24737  0.62586  0.87531  1.0000
  C   C353      1.0  0.24592  0.60767  0.84853  1.0000
  C   C354      1.0  0.25428  0.58614  0.85875  1.0000
  C   C355      1.0  0.26410  0.58262  0.89573  1.0000
  C   C356      1.0  0.26560  0.60063  0.92248  1.0000
  C   C357      1.0  0.25714  0.62212  0.91244  1.0000
  H   H295      1.0  0.01405  0.46033  0.56596  1.0000
  H   H296      1.0  0.10529  0.47020  0.85532  1.0000
  H   H297      1.0  0.13896  0.42063  0.81790  1.0000
  C   C358      1.0  0.20928  0.41548  0.93481  1.0000
  H   H298      1.0  0.99808  0.62963  0.77932  1.0000
  H   H299      1.0  0.11426  0.38510  0.50246  1.0000
  H   H300      1.0  0.02670  0.34530  0.72994  1.0000
  C   C359      1.0  0.05917  0.41461  0.57457  1.0000
  H   H301      1.0  0.03952  0.36165  0.85151  1.0000
  C   C360      1.0  0.03972  0.49958  0.75126  1.0000
  C   C361      1.0  0.09148  0.44821  0.89984  1.0000
  C   C362      1.0  0.42637  0.33146  0.81290  1.0000
  H   H302      1.0  0.23835  0.60997  0.81978  1.0000
  H   H303      1.0  0.25310  0.57218  0.83798  1.0000
  H   H304      1.0  0.27053  0.56594  0.90374  1.0000
  S   S63       1.0  0.18615  0.34523  0.96407  1.0000
  H   H305      1.0  0.06630  0.55395  0.56599  1.0000
  H   H306      1.0  0.22146  0.40210  0.92806  1.0000
  H   H307      1.0  0.21163  0.42072  0.81153  1.0000
  H   H308      1.0  0.23448  0.52884  0.93467  1.0000
  C   C363      1.0  0.02076  0.35865  0.60071  1.0000
  P   P12       1.0  0.00909  0.49669  0.62587  1.0000
  C   C364      1.0  0.99896  0.54249  0.61248  1.0000
  C   C365      1.0  0.30117  0.65870  0.97308  1.0000
  C   C366      1.0  0.21147  0.64874  0.75039  1.0000
  C   C367      1.0  0.17776  0.53032  0.75701  1.0000
  C   C368      1.0  0.16303  0.44989  0.58335  1.0000
  C   C369      1.0  0.18488  0.53958  0.72115  1.0000
  H   H309      1.0  0.43578  0.36782  0.73654  1.0000
  H   H310      1.0  0.04749  0.50016  0.78013  1.0000
  C   C370      1.0  0.12611  0.46962  0.90752  1.0000
  H   H311      1.0  0.03005  0.53335  0.67229  1.0000
  C   C371      1.0  0.10483  0.35023  0.60304  1.0000
  C   C372      1.0  0.11264  0.44581  0.96087  1.0000
  C   C373      1.0  0.12648  0.41978  0.49996  1.0000
  P   P13       1.0  0.12738  0.42376  0.55308  1.0000
  H   H312      1.0  0.09028  0.49815  0.59015  1.0000
  C   C374      1.0  0.14180  0.40038  0.57743  1.0000
  C   C375      1.0  0.14305  0.40025  0.61874  1.0000
  C   C376      1.0  0.15339  0.38211  0.63849  1.0000
  C   C377      1.0  0.16263  0.36393  0.61719  1.0000
  C   C378      1.0  0.16222  0.36424  0.57603  1.0000
  C   C379      1.0  0.15224  0.38257  0.55615  1.0000
  C   C380      1.0  0.17659  0.44865  0.95516  1.0000
  C   C381      1.0  0.09901  0.42545  0.57417  1.0000
  C   C382      1.0  0.07322  0.43993  0.62486  1.0000
  C   C383      1.0  0.09495  0.43864  0.60821  1.0000
  H   H313      1.0  0.04619  0.53488  0.73853  1.0000
  H   H314      1.0  0.17212  0.43411  0.58834  1.0000
  H   H315      1.0  0.13617  0.41428  0.63576  1.0000
  C   C384      1.0  0.15473  0.42989  0.81604  1.0000
  H   H316      1.0  0.16985  0.34949  0.63266  1.0000
  H   H317      1.0  0.16928  0.35007  0.55948  1.0000
  H   H318      1.0  0.15276  0.38244  0.52436  1.0000
  H   H319      1.0  0.21801  0.64936  0.72050  1.0000
  C   C385      1.0  0.03978  0.59766  0.61346  1.0000
  H   H320      1.0  0.07032  0.44968  0.65159  1.0000
  H   H321      1.0  0.10864  0.44753  0.62269  1.0000
  H   H322      1.0  0.06301  0.64815  0.54212  1.0000
  H   H323      1.0  0.13889  0.48055  0.89483  1.0000
  C   C386      1.0  0.05539  0.42785  0.60823  1.0000
  C   C387      1.0  0.02936  0.51827  0.69029  1.0000
  C   C388      1.0  0.99947  0.61466  0.76087  1.0000
  H   H324      1.0  0.03880  0.42842  0.62214  1.0000
  C   C389      1.0  0.20430  0.50436  0.70523  1.0000
  H   H325      1.0  0.03497  0.60277  0.64311  1.0000
  H   H326      1.0  0.01148  0.50871  0.54217  1.0000
  C   C390      1.0  0.14459  0.51343  0.95964  1.0000
  C   C391      1.0  0.14021  0.49126  0.57227  1.0000
  H   H327      1.0  0.20171  0.47763  0.74751  1.0000
  H   H328      1.0  0.16732  0.54065  0.77641  1.0000
  C   C392      1.0  0.03116  0.47913  0.73674  1.0000
  C   C393      1.0  0.02015  0.49796  0.67572  1.0000
  C   C394      1.0  0.01687  0.39341  0.77070  1.0000
  C   C395      1.0  0.02736  0.37320  0.63118  1.0000
  H   H329      1.0  0.11374  0.47140  0.54613  1.0000
  C   C396      1.0  0.18898  0.41692  0.91392  1.0000
  H   H330      1.0  0.01705  0.54514  0.61263  1.0000
  H   H331      1.0  0.13129  0.50731  0.56866  1.0000
  C   C397      1.0  0.18386  0.50799  0.76750  1.0000
  H   H332      1.0  0.17484  0.34159  0.88242  1.0000
  C   C398      1.0  0.22336  0.52268  0.91161  1.0000
  H   H333      1.0  0.19376  0.54179  0.83240  1.0000
  C   C399      1.0  0.14148  0.45004  0.56576  1.0000
  C   C400      1.0  0.04691  0.50917  0.52668  1.0000
  C   C401      1.0  0.17281  0.47023  0.59600  1.0000
  H   H334      1.0  0.13342  0.49435  0.76851  1.0000
  H   H335      1.0  0.03779  0.61524  0.51771  1.0000
  P   P14       1.0  0.17486  0.49676  0.81476  1.0000
  C   C402      1.0  0.20035  0.52979  0.85376  1.0000
  C   C403      1.0  0.06917  0.50619  0.53996  1.0000
  H   H336      1.0  0.05000  0.37777  0.68021  1.0000
  C   C404      1.0  0.12058  0.53313  0.85849  1.0000
  C   C405      1.0  0.02105  0.60625  0.75038  1.0000
  C   C406      1.0  0.10732  0.46354  0.88488  1.0000
  C   C407      1.0  0.06978  0.34111  0.84699  1.0000
  H   H337      1.0  0.99897  0.37345  0.81412  1.0000
  C   C408      1.0  0.20201  0.49201  0.88217  1.0000
  C   C409      1.0  0.18018  0.64279  0.79544  1.0000
  C   C410      1.0  0.14668  0.50837  0.82264  1.0000
  H   H338      1.0  0.16870  0.50656  0.60141  1.0000
  H   H339      1.0  0.27315  0.59795  0.95122  1.0000
  H   H340      1.0  0.22337  0.48828  0.93329  1.0000
  C   C411      1.0  0.08085  0.41342  0.55757  1.0000
  H   H341      1.0  0.10763  0.61353  0.51638  1.0000
  C   C412      1.0  0.05732  0.56993  0.56996  1.0000
  C   C413      1.0  0.03259  0.49993  0.59204  1.0000
  H   H342      1.0  0.12229  0.39813  0.94168  1.0000
  C   C414      1.0  0.11176  0.62877  0.53269  1.0000
  H   H343      1.0  0.20436  0.63480  0.91812  1.0000
  H   H344      1.0  0.13823  0.46219  0.81620  1.0000
  C   C415      1.0  0.03537  0.33403  0.81026  1.0000
  H   H345      1.0  0.17409  0.56209  0.97628  1.0000
  C   C416      1.0  0.05520  0.34546  0.65231  1.0000
  C   C417      1.0  0.17276  0.43351  0.92368  1.0000
  H   H346      1.0  0.18905  0.46990  0.61082  1.0000
  C   C418      1.0  0.19715  0.49503  0.74113  1.0000
  H   H347      1.0  0.24385  0.65511  0.77668  1.0000
  H   H348      1.0  0.21144  0.46272  0.81194  1.0000
  C   C419      1.0  0.09411  0.43940  0.93782  1.0000
  C   C420      1.0  0.12878  0.46101  0.94587  1.0000
  C   C421      1.0  0.05493  0.49655  0.60481  1.0000
  C   C422      1.0  0.17480  0.46588  0.81376  1.0000
  C   C423      1.0  0.05077  0.57675  0.60778  1.0000
  H   H349      1.0  0.00438  0.56084  0.69564  1.0000
  C   C424      1.0  0.11481  0.64937  0.51239  1.0000
  C   C425      1.0  0.10847  0.51494  0.79814  1.0000
  H   H350      1.0  0.12774  0.50828  0.95111  1.0000
  H   H351      1.0  0.05458  0.56599  0.63290  1.0000
  H   H352      1.0  0.09641  0.36144  0.54453  1.0000
  C   C426      1.0  0.15443  0.45366  0.81543  1.0000
  H   H353      1.0  0.05846  0.49176  0.63486  1.0000
  C   C427      1.0  0.02865  0.50607  0.55263  1.0000
  H   H354      1.0  0.41985  0.36724  0.80440  1.0000
  C   C428      1.0  0.19700  0.44682  0.97610  1.0000
  H   H355      1.0  0.33509  0.65798  0.94847  1.0000
  C   C429      1.0  0.07314  0.49995  0.57910  1.0000
  C   C430      1.0  0.19546  0.45375  0.81264  1.0000
  C   C431      1.0  0.00304  0.57587  0.71377  1.0000
  C   C432      1.0  0.19567  0.42995  0.81256  1.0000
  H   H356      1.0  0.08747  0.53755  0.83280  1.0000
  H   H357      1.0  0.17533  0.39958  0.81431  1.0000
  C   C433      1.0  0.17528  0.41803  0.81413  1.0000
  C   C434      1.0  0.02155  0.47826  0.69911  1.0000
  H   H358      1.0  0.18536  0.40444  0.89134  1.0000
  C   C435      1.0  0.12984  0.50475  0.79418  1.0000
  C   C436      1.0  0.05250  0.58383  0.53758  1.0000
  C   C437      1.0  0.03887  0.51913  0.72796  1.0000
  C   C438      1.0  0.10382  0.52910  0.83035  1.0000
  H   H359      1.0  0.07921  0.35127  0.86794  1.0000
  C   C439      1.0  0.19398  0.50679  0.85265  1.0000
  C   C440      1.0  0.04146  0.60476  0.54315  1.0000
  C   C441      1.0  0.21704  0.49983  0.91089  1.0000
  H   H360      1.0  0.03237  0.46374  0.75426  1.0000
  C   C442      1.0  0.03562  0.61210  0.58132  1.0000
  C   C443      1.0  0.16136  0.49088  0.59067  1.0000
  C   C444      1.0  0.00067  0.45569  0.58627  1.0000
  C   C445      1.0  0.04470  0.36661  0.65672  1.0000
  H   H361      1.0  0.08328  0.40286  0.53190  1.0000
  P   P15       1.0  0.15418  0.46726  0.97340  1.0000
  C   C446      1.0  0.01471  0.40754  0.73777  1.0000
  H   H362      1.0  0.01586  0.46197  0.68828  1.0000
  H   H363      1.0  0.06849  0.64077  0.62092  1.0000
  C   C447      1.0  0.04873  0.33086  0.62194  1.0000
  H   H364      1.0  0.21906  0.55554  0.88481  1.0000
  H   H365      1.0  0.99652  0.62305  0.65824  1.0000
  P   P16       1.0  0.02222  0.63940  0.58961  1.0000
  C   C448      1.0  0.42656  0.35173  0.79134  1.0000
  C   C449      1.0  0.21335  0.43056  0.96574  1.0000
  H   H366      1.0  0.25832  0.63589  0.93356  1.0000
  H   H367      1.0  0.01907  0.38956  0.63532  1.0000
  C   C450      1.0  0.19492  0.66159  0.95788  1.0000
  H   H368      1.0  0.15694  0.43349  0.90770  1.0000
  H   H369      1.0  0.04538  0.40499  0.56203  1.0000
  H   H370      1.0  0.16254  0.63848  0.80053  1.0000
  H   H371      1.0  0.08219  0.42696  0.94883  1.0000
  C   C451      1.0  0.16122  0.49723  0.97010  1.0000
  C   C452      1.0  0.43557  0.35208  0.75314  1.0000
  C   C453      1.0  0.44455  0.33217  0.73655  1.0000
  C   C454      1.0  0.04743  0.34698  0.83764  1.0000
  S   S64       1.0  0.11638  0.33518  0.67821  1.0000
  H   H372      1.0  0.04380  0.51417  0.49643  1.0000
  C   C455      1.0  0.21765  0.65139  0.82125  1.0000
  P   P17       1.0  0.23701  0.65386  0.86244  1.0000
  H   H373      1.0  0.13661  0.54922  0.95302  1.0000
  H   H374      1.0  0.17730  0.64094  0.73227  1.0000
  C   C456      1.0  0.18856  0.64403  0.75694  1.0000
  H   H375      1.0  0.08334  0.50901  0.52015  1.0000
  H   H376      1.0  0.06870  0.34058  0.67213  1.0000
  H   H377      1.0  0.41974  0.33167  0.84274  1.0000
  C   C457      1.0  0.19462  0.64635  0.82746  1.0000
  C   C458      1.0  0.11449  0.33296  0.62596  1.0000
  C   C459      1.0  0.03152  0.33740  0.59569  1.0000
  H   H378      1.0  0.18763  0.64470  0.85678  1.0000
  C   C460      1.0  0.14935  0.53673  0.96125  1.0000
  C   C461      1.0  0.01114  0.33670  0.72223  1.0000
  H   H379      1.0  0.00745  0.36404  0.58081  1.0000
  C   C462      1.0  0.05735  0.64981  0.64117  1.0000
  H   H380      1.0  0.18267  0.65124  0.97342  1.0000
  C   C463      1.0  0.20710  0.65236  0.92620  1.0000
  H   H381      1.0  0.30101  0.64068  0.97937  1.0000
  H   H382      1.0  0.04758  0.36272  0.53608  1.0000
  C   C464      1.0  0.17048  0.54409  0.97432  1.0000
  C   C465      1.0  0.06643  0.65877  0.67586  1.0000
  C   C466      1.0  0.03409  0.65220  0.63326  1.0000
  H   H383      1.0  0.28617  0.65298  0.88059  1.0000
  H   H384      1.0  0.08428  0.65645  0.68227  1.0000
  H   H385      1.0  0.99648  0.36667  0.69599  1.0000
  C   C467      1.0  0.02816  0.65947  0.55044  1.0000
  C   C468      1.0  0.04654  0.35257  0.50962  1.0000
  C   C469      1.0  0.99740  0.38419  0.78844  1.0000
  H   H386      1.0  0.45180  0.33249  0.70712  1.0000
  C   C470      1.0  0.03598  0.33117  0.50978  1.0000
  C   C471      1.0  0.18223  0.50500  0.98394  1.0000
  H   H387      1.0  0.22866  0.42892  0.98318  1.0000
  S   S65       1.0  0.15882  0.60892  0.98481  1.0000
  Fe  Fe33      1.0  0.38606  0.90929  0.18311  1.0000
  S   S66       1.0  0.38801  0.91185  0.24873  1.0000
  S   S67       1.0  0.38755  0.94047  0.14447  1.0000
  Fe  Fe34      1.0  0.38927  0.85757  0.18332  1.0000
  S   S68       1.0  0.39207  0.85598  0.24995  1.0000
  S   S69       1.0  0.39242  0.82540  0.14591  1.0000
  Fe  Fe35      1.0  0.36408  0.88230  0.25017  1.0000
  S   S70       1.0  0.33201  0.88331  0.28841  1.0000
  Fe  Fe36      1.0  0.41583  0.88570  0.24332  1.0000
  S   S71       1.0  0.44749  0.89587  0.27624  1.0000
  S   S72       1.0  0.35966  0.88184  0.18388  1.0000
  S   S73       1.0  0.41538  0.88501  0.17736  1.0000
  Fe  Fe37      1.0  0.13746  0.72905  0.40776  1.0000
  S   S74       1.0  0.14726  0.69284  0.39082  1.0000
  C   C472      1.0  0.46948  0.83665  0.14135  1.0000
  Fe  Fe38      1.0  0.08613  0.71959  0.39006  1.0000
  S   S75       1.0  0.09364  0.68370  0.37115  1.0000
  S   S76       1.0  0.04926  0.73410  0.38880  1.0000
  Fe  Fe39      1.0  0.11605  0.68235  0.42466  1.0000
  Fe  Fe40      1.0  0.12433  0.69679  0.33834  1.0000
  S   S77       1.0  0.13059  0.68505  0.27366  1.0000
  S   S78       1.0  0.10755  0.71775  0.44543  1.0000
  S   S79       1.0  0.11550  0.73343  0.35341  1.0000
  C   C473      1.0  0.34762  0.95420  0.31727  1.0000
  H   H388      1.0  0.43406  0.84612  0.06169  1.0000
  H   H389      1.0  0.25030  0.77703  0.00281  1.0000
  C   C474      1.0  0.04450  0.68020  0.30162  1.0000
  C   C475      1.0  0.19989  0.81680  0.47936  1.0000
  C   C476      1.0  0.24675  0.69513  0.09257  1.0000
  C   C477      1.0  0.02437  0.66792  0.30532  1.0000
  C   C478      1.0  0.37141  0.94333  0.37205  1.0000
  H   H390      1.0  0.43789  0.79021  0.16340  1.0000
  C   C479      1.0  0.27566  0.78058  0.45502  1.0000
  C   C480      1.0  0.32991  0.92193  0.42859  1.0000
  C   C481      1.0  0.29383  0.67128  0.13001  1.0000
  C   C482      1.0  0.23187  0.94059  0.37675  1.0000
  C   C483      1.0  0.34585  0.97630  0.33246  1.0000
  H   H391      1.0  0.44774  0.91354  0.12289  1.0000
  C   C484      1.0  0.45143  0.79785  0.10583  1.0000
  H   H392      1.0  0.25899  0.77400  0.44871  1.0000
  C   C485      1.0  0.31691  0.67160  0.14015  1.0000
  C   C486      1.0  0.01861  0.73382  0.39203  1.0000
  H   H393      1.0  0.40223  0.99406  0.37022  1.0000
  H   H394      1.0  0.01622  0.76877  0.37383  1.0000
  H   H395      1.0  0.01439  0.69906  0.41046  1.0000
  C   C487      1.0  0.33093  0.87622  0.33923  1.0000
  C   C488      1.0  0.31033  0.87879  0.35992  1.0000
  C   C489      1.0  0.30862  0.87277  0.40008  1.0000
  C   C490      1.0  0.32760  0.86422  0.41999  1.0000
  C   C491      1.0  0.34818  0.86167  0.39926  1.0000
  C   C492      1.0  0.34988  0.86771  0.35914  1.0000
  H   H396      1.0  0.29560  0.88541  0.34480  1.0000
  H   H397      1.0  0.29270  0.87488  0.41567  1.0000
  H   H398      1.0  0.36294  0.85508  0.41439  1.0000
  H   H399      1.0  0.36584  0.86563  0.34358  1.0000
  C   C493      1.0  0.38160  0.82337  0.09725  1.0000
  C   C494      1.0  0.38738  0.80436  0.07401  1.0000
  C   C495      1.0  0.37866  0.80185  0.03560  1.0000
  C   C496      1.0  0.36378  0.81819  0.02024  1.0000
  C   C497      1.0  0.35765  0.83699  0.04376  1.0000
  C   C498      1.0  0.36666  0.83969  0.08194  1.0000
  H   H400      1.0  0.39876  0.79157  0.08571  1.0000
  H   H401      1.0  0.38341  0.78728  0.01791  1.0000
  H   H402      1.0  0.34608  0.84966  0.03223  1.0000
  H   H403      1.0  0.36187  0.85429  0.09965  1.0000
  C   C499      1.0  0.47387  0.88270  0.26631  1.0000
  C   C500      1.0  0.44623  0.94915  0.13748  1.0000
  C   C501      1.0  0.35658  0.98204  0.36799  1.0000
  C   C502      1.0  0.34315  0.99268  0.46078  1.0000
  C   C503      1.0  0.47534  0.86043  0.25201  1.0000
  C   C504      1.0  0.37823  0.96587  0.16697  1.0000
  H   H404      1.0  0.23488  0.94971  0.34954  1.0000
  C   C505      1.0  0.36360  0.96540  0.19953  1.0000
  H   H405      1.0  0.43315  0.96350  0.24820  1.0000
  H   H406      1.0  0.35825  0.94928  0.21159  1.0000
  C   C506      1.0  0.28774  0.94854  0.28742  1.0000
  C   C507      1.0  0.29219  0.97044  0.27352  1.0000
  C   C508      1.0  0.44160  0.82632  0.00890  1.0000
  C   C509      1.0  0.46967  0.96120  0.19237  1.0000
  C   C510      1.0  0.27957  0.96386  0.35271  1.0000
  C   C511      1.0  0.28126  0.94526  0.32674  1.0000
  C   C512      1.0  0.21743  0.75468  0.07527  1.0000
  H   H407      1.0  0.06076  0.67149  0.30176  1.0000
  C   C513      1.0  0.44008  0.77109  0.01460  1.0000
  H   H408      1.0  0.18981  0.69693  0.07650  1.0000
  H   H409      1.0  0.32263  0.68127  0.16537  1.0000
  P   P18       1.0  0.29096  0.77871  0.05411  1.0000
  C   C514      1.0  0.23338  0.75350  0.10557  1.0000
  H   H410      1.0  0.28963  0.93402  0.26785  1.0000
  C   C515      1.0  0.38477  0.98686  0.15104  1.0000
  C   C516      1.0  0.45441  0.92692  0.14145  1.0000
  C   C517      1.0  0.47785  0.74505  0.99215  1.0000
  H   H411      1.0  0.27806  0.92814  0.33713  1.0000
  C   C518      1.0  0.26203  0.76954  0.06204  1.0000
  C   C519      1.0  0.41119  0.85430  0.01512  1.0000
  C   C520      1.0  0.22371  0.76314  0.03833  1.0000
  C   C521      1.0  0.25555  0.76092  0.09901  1.0000
  H   H412      1.0  0.26248  0.69614  0.07614  1.0000
  H   H413      1.0  0.26773  0.75982  0.12268  1.0000
  C   C522      1.0  0.22246  0.91786  0.44729  1.0000
  C   C523      1.0  0.31837  0.77608  0.28869  1.0000
  C   C524      1.0  0.33271  0.79469  0.28347  1.0000
  C   C525      1.0  0.32995  0.81403  0.30698  1.0000
  C   C526      1.0  0.31292  0.81476  0.33578  1.0000
  C   C527      1.0  0.29816  0.79630  0.34096  1.0000
  P   P19       1.0  0.47716  0.98296  0.22761  1.0000
  P   P20       1.0  0.27595  0.79791  0.37808  1.0000
  C   C528      1.0  0.26362  0.82611  0.37679  1.0000
  C   C529      1.0  0.25374  0.77736  0.36925  1.0000
  C   C530      1.0  0.25803  0.75405  0.37511  1.0000
  C   C531      1.0  0.24050  0.73824  0.37167  1.0000
  C   C532      1.0  0.24242  0.93042  0.44345  1.0000
  H   H414      1.0  0.19983  0.92745  0.35673  1.0000
  C   C533      1.0  0.17649  0.81550  0.47111  1.0000
  C   C534      1.0  0.26275  0.83828  0.34115  1.0000
  C   C535      1.0  0.25274  0.85989  0.33987  1.0000
  C   C536      1.0  0.24304  0.86925  0.37388  1.0000
  C   C537      1.0  0.24320  0.85698  0.40912  1.0000
  C   C538      1.0  0.25364  0.83558  0.41077  1.0000
  C   C539      1.0  0.47285  0.83278  0.10099  1.0000
  H   H415      1.0  0.31854  0.81220  0.41602  1.0000
  C   C540      1.0  0.30133  0.72528  0.15571  1.0000
  C   C541      1.0  0.48047  0.96265  0.30221  1.0000
  C   C542      1.0  0.28200  0.71529  0.17254  1.0000
  H   H416      1.0  0.42055  0.74131  0.00072  1.0000
  H   H417      1.0  0.13246  0.67325  0.19118  1.0000
  H   H418      1.0  0.34608  0.79416  0.26138  1.0000
  H   H419      1.0  0.34101  0.82855  0.30298  1.0000
  H   H420      1.0  0.31115  0.82990  0.35377  1.0000
  H   H421      1.0  0.22744  0.80235  0.35622  1.0000
  H   H422      1.0  0.27479  0.74821  0.38357  1.0000
  H   H423      1.0  0.36169  0.73982  0.01227  1.0000
  C   C543      1.0  0.32280  0.79515  0.10827  1.0000
  C   C544      1.0  0.49484  0.96384  0.07105  1.0000
  C   C545      1.0  0.00273  0.70309  0.30306  1.0000
  H   H424      1.0  0.04220  0.70350  0.46805  1.0000
  H   H425      1.0  0.25256  0.86938  0.31251  1.0000
  H   H426      1.0  0.23531  0.88595  0.37292  1.0000
  H   H427      1.0  0.23513  0.86401  0.43523  1.0000
  H   H428      1.0  0.25366  0.82644  0.43848  1.0000
  C   C546      1.0  0.22594  0.68926  0.15343  1.0000
  S   S80       1.0  0.16896  0.75046  0.42624  1.0000
  C   C547      1.0  0.00569  0.71467  0.40293  1.0000
  H   H429      1.0  0.34229  0.91198  0.41222  1.0000
  C   C548      1.0  0.45715  0.82112  0.16387  1.0000
  C   C549      1.0  0.21414  0.76865  0.35649  1.0000
  C   C550      1.0  0.27730  0.67590  0.23936  1.0000
  C   C551      1.0  0.23160  0.78452  0.35978  1.0000
  C   C552      1.0  0.24305  0.99553  0.42090  1.0000
  C   C553      1.0  0.36028  0.93770  0.33715  1.0000
  H   H430      1.0  0.19689  0.77432  0.35089  1.0000
  C   C554      1.0  0.29694  0.94608  0.47094  1.0000
  H   H431      1.0  0.22530  0.68582  0.18480  1.0000
  H   H432      1.0  0.33700  0.77343  0.02240  1.0000
  C   C555      1.0  0.45383  0.96625  0.16276  1.0000
  C   C556      1.0  0.33032  0.92184  0.46969  1.0000
  C   C557      1.0  0.49189  0.81995  0.01083  1.0000
  C   C558      1.0  0.43735  0.74855  0.00234  1.0000
  H   H433      1.0  0.28718  0.69120  0.24273  1.0000
  H   H434      1.0  0.36155  0.92057  0.32536  1.0000
  C   C559      1.0  0.26880  0.72800  0.19938  1.0000
  P   P21       1.0  0.27322  0.68687  0.15927  1.0000
  C   C560      1.0  0.00327  0.67925  0.30604  1.0000
  H   H435      1.0  0.29738  0.97297  0.24309  1.0000
  C   C561      1.0  0.04377  0.70388  0.29888  1.0000
  C   C562      1.0  0.47034  0.92179  0.17056  1.0000
  H   H436      1.0  0.24375  0.72035  0.37703  1.0000
  H   H437      1.0  0.32071  0.76099  0.27073  1.0000
  H   H438      1.0  0.05940  0.71350  0.29748  1.0000
  H   H439      1.0  0.14883  0.79512  0.44863  1.0000
  C   C563      1.0  0.22630  0.69737  0.07220  1.0000
  H   H440      1.0  0.44354  0.78318  0.09260  1.0000
  H   H441      1.0  0.33938  0.94982  0.28978  1.0000
  C   C564      1.0  0.36950  0.96534  0.38754  1.0000
  H   H442      1.0  0.34141  0.97635  0.44645  1.0000
  H   H443      1.0  0.02246  0.73372  0.29870  1.0000
  C   C565      1.0  0.42969  0.84267  0.03134  1.0000
  H   H444      1.0  0.38149  0.93054  0.38709  1.0000
  C   C566      1.0  0.29476  0.75963  0.19378  1.0000
  C   C567      1.0  0.49206  0.96990  0.26827  1.0000
  H   H445      1.0  0.48169  0.84542  0.08365  1.0000
  C   C568      1.0  0.27521  0.75004  0.21004  1.0000
  H   H446      1.0  0.42523  0.78107  0.02242  1.0000
  H   H447      1.0  0.45997  0.85113  0.24621  1.0000
  C   C569      1.0  0.45620  0.73560  0.99082  1.0000
  H   H448      1.0  0.33636  0.98882  0.31601  1.0000
  H   H449      1.0  0.34775  0.70127  0.02740  1.0000
  C   C570      1.0  0.26484  0.98626  0.42651  1.0000
  C   C571      1.0  0.30109  0.77689  0.31717  1.0000
  H   H450      1.0  0.33563  0.78572  0.09212  1.0000
  C   C572      1.0  0.33716  0.71599  0.03376  1.0000
  C   C573      1.0  0.31536  0.71315  0.04910  1.0000
  C   C574      1.0  0.30133  0.73210  0.05550  1.0000
  C   C575      1.0  0.32948  0.80792  0.14102  1.0000
  C   C576      1.0  0.31366  0.82116  0.16165  1.0000
  C   C577      1.0  0.29098  0.82143  0.14984  1.0000
  C   C578      1.0  0.28415  0.80845  0.11742  1.0000
  H   H451      1.0  0.22857  0.74666  0.13406  1.0000
  H   H452      1.0  0.30907  0.69616  0.05458  1.0000
  H   H453      1.0  0.28441  0.72938  0.06665  1.0000
  H   H454      1.0  0.34712  0.80800  0.14989  1.0000
  H   H455      1.0  0.31911  0.83153  0.18633  1.0000
  H   H456      1.0  0.27879  0.83204  0.16544  1.0000
  H   H457      1.0  0.26659  0.80925  0.10823  1.0000
  H   H458      1.0  0.43317  0.95288  0.11595  1.0000
  C   C579      1.0  0.16679  0.79559  0.45478  1.0000
  C   C580      1.0  0.21854  0.74556  0.36257  1.0000
  C   C581      1.0  0.46177  0.78080  0.01581  1.0000
  C   C582      1.0  0.24675  0.69053  0.13320  1.0000
  C   C583      1.0  0.18029  0.77646  0.44633  1.0000
  C   C584      1.0  0.43175  0.98186  0.25091  1.0000
  H   H459      1.0  0.45394  0.82438  0.19483  1.0000
  H   H460      1.0  0.22307  0.71966  0.46198  1.0000
  C   C585      1.0  0.46386  0.81329  0.08292  1.0000
  H   H461      1.0  0.18953  0.69028  0.14873  1.0000
  C   C586      1.0  0.34493  0.73776  0.02476  1.0000
  C   C587      1.0  0.30901  0.75407  0.04650  1.0000
  C   C588      1.0  0.29998  0.79500  0.09655  1.0000
  C   C589      1.0  0.29026  0.98907  0.29899  1.0000
  C   C590      1.0  0.24745  0.94170  0.40799  1.0000
  H   H462      1.0  0.29412  0.82830  0.04138  1.0000
  C   C591      1.0  0.33089  0.75673  0.03069  1.0000
  H   H463      1.0  0.26981  0.83118  0.31428  1.0000
  C   C592      1.0  0.29597  0.94576  0.42954  1.0000
  C   C593      1.0  0.24591  0.77054  0.03166  1.0000
  H   H464      1.0  0.20024  0.74892  0.08039  1.0000
  H   H465      1.0  0.31141  0.71639  0.13388  1.0000
  H   H466      1.0  0.29970  0.77675  0.20188  1.0000
  H   H467      1.0  0.23131  0.79831  0.47725  1.0000
  H   H468      1.0  0.47574  0.85200  0.15511  1.0000
  H   H469      1.0  0.39618  0.98058  0.26560  1.0000
  H   H470      1.0  0.31296  0.93304  0.37676  1.0000
  H   H471      1.0  0.27986  0.66719  0.30099  1.0000
  C   C594      1.0  0.31291  0.93383  0.40853  1.0000
  C   C595      1.0  0.21183  0.92815  0.38082  1.0000
  H   H472      1.0  0.26497  0.75972  0.23085  1.0000
  H   H473      1.0  0.32291  0.75467  0.15387  1.0000
  H   H474      1.0  0.29012  0.76238  0.32029  1.0000
  C   C596      1.0  0.28787  0.79286  0.42646  1.0000
  P   P22       1.0  0.46492  0.81032  0.02988  1.0000
  H   H475      1.0  0.39580  0.98724  0.12550  1.0000
  C   C597      1.0  0.20551  0.69183  0.13305  1.0000
  H   H476      1.0  0.19937  0.68606  0.44663  1.0000
  C   C598      1.0  0.02291  0.71528  0.29943  1.0000
  H   H477      1.0  0.25355  0.72080  0.21212  1.0000
  H   H478      1.0  0.21457  0.76351  0.44735  1.0000
  H   H479      1.0  0.22657  0.69984  0.04053  1.0000
  C   C599      1.0  0.20567  0.69567  0.09239  1.0000
  C   C600      1.0  0.35505  0.98583  0.21533  1.0000
  H   H480      1.0  0.44655  0.98315  0.16035  1.0000
  H   H481      1.0  0.47592  0.90437  0.17479  1.0000
  C   C601      1.0  0.20716  0.91674  0.41605  1.0000
  P   P23       1.0  0.27245  0.95930  0.40409  1.0000
  H   H482      1.0  0.48998  0.93427  0.21874  1.0000
  C   C602      1.0  0.20850  0.71578  0.48021  1.0000
  C   C603      1.0  0.30905  0.80189  0.43656  1.0000
  S   S81       1.0  0.32660  0.85675  0.47065  1.0000
  C   C604      1.0  0.44820  0.80173  0.14615  1.0000
  C   C605      1.0  0.21344  0.79777  0.47062  1.0000
  H   H483      1.0  0.21134  0.76402  0.01481  1.0000
  H   H484      1.0  0.37843  0.96939  0.41448  1.0000
  C   C606      1.0  0.41071  0.99147  0.26081  1.0000
  H   H485      1.0  0.20469  0.73350  0.36135  1.0000
  H   H486      1.0  0.33414  0.80589  0.48195  1.0000
  H   H487      1.0  0.23051  0.98656  0.40379  1.0000
  C   C607      1.0  0.47811  0.93887  0.19578  1.0000
  C   C608      1.0  0.14764  0.66623  0.20440  1.0000
  C   C609      1.0  0.30781  0.74723  0.16668  1.0000
  H   H488      1.0  0.40164  0.86635  0.03296  1.0000
  H   H489      1.0  0.19168  0.90704  0.41928  1.0000
  C   C610      1.0  0.00678  0.75382  0.38232  1.0000
  C   C611      1.0  0.48067  0.76753  0.00461  1.0000
  C   C612      1.0  0.20377  0.77793  0.45405  1.0000
  H   H490      1.0  0.25360  0.93149  0.46855  1.0000
  C   C613      1.0  0.29245  0.79607  0.01028  1.0000
  C   C614      1.0  0.31804  0.79832  0.47417  1.0000
  H   H491      1.0  0.49274  0.91175  0.28580  1.0000
  C   C615      1.0  0.28418  0.98581  0.33853  1.0000
  H   H492      1.0  0.18939  0.69094  0.99462  1.0000
  H   H493      1.0  0.47679  0.96350  0.07703  1.0000
  C   C616      1.0  0.29350  0.81988  0.01304  1.0000
  C   C617      1.0  0.19513  0.69689  0.47147  1.0000
  C   C618      1.0  0.49382  0.89456  0.27472  1.0000
  C   C619      1.0  0.15137  0.66956  0.24511  1.0000
  C   C620      1.0  0.26863  0.66960  0.20242  1.0000
  H   H494      1.0  0.46233  0.96492  0.30504  1.0000
  H   H495      1.0  0.48318  0.94571  0.35836  1.0000
  H   H496      1.0  0.29752  0.99190  0.45309  1.0000
  H   H497      1.0  0.34314  0.98538  0.23964  1.0000
  H   H498      1.0  0.16569  0.82998  0.47763  1.0000
  H   H499      1.0  0.21879  0.90913  0.47475  1.0000
  C   C621      1.0  0.49227  0.95174  0.33262  1.0000
  C   C622      1.0  0.45061  0.99581  0.24367  1.0000
  H   H500      1.0  0.11200  0.76701  0.48078  1.0000
  H   H501      1.0  0.34293  0.91175  0.48513  1.0000
  H   H502      1.0  0.36288  0.84987  0.75224  1.0000
  Fe  Fe41      1.0  0.36369  0.78845  0.92829  1.0000
  S   S82       1.0  0.38452  0.75806  0.94523  1.0000
  Fe  Fe42      1.0  0.36227  0.77533  0.84001  1.0000
  S   S83       1.0  0.38350  0.74369  0.85227  1.0000
  S   S84       1.0  0.35428  0.78531  0.77502  1.0000
  Fe  Fe43      1.0  0.36049  0.73867  0.90575  1.0000
  S   S85       1.0  0.34676  0.70341  0.92491  1.0000
  Fe  Fe44      1.0  0.40586  0.76549  0.89125  1.0000
  S   S86       1.0  0.44465  0.77279  0.89607  1.0000
  S   S87       1.0  0.33848  0.76901  0.89136  1.0000
  S   S88       1.0  0.38565  0.79715  0.87621  1.0000
  Fe  Fe45      1.0  0.24547  0.85504  0.52581  1.0000
  S   S89       1.0  0.27602  0.83290  0.53763  1.0000
  H   H503      1.0  0.12753  0.68300  0.59098  1.0000
  Fe  Fe46      1.0  0.26958  0.89930  0.55565  1.0000
  S   S90       1.0  0.30140  0.87915  0.56923  1.0000
  S   S91       1.0  0.27423  0.93802  0.56791  1.0000
  Fe  Fe47      1.0  0.29585  0.86189  0.51076  1.0000
  Fe  Fe48      1.0  0.27947  0.85177  0.59550  1.0000
  S   S92       1.0  0.28332  0.83518  0.65747  1.0000
  H   H504      1.0  0.31426  0.93389  0.52279  1.0000
  S   S93       1.0  0.24757  0.87279  0.58529  1.0000
  C   C623      1.0  0.26577  0.96744  0.56381  1.0000
  H   H505      1.0  0.23855  0.69886  0.90232  1.0000
  C   C624      1.0  0.24461  0.97418  0.54901  1.0000
  H   H506      1.0  0.29734  0.97979  0.58721  1.0000
  H   H507      1.0  0.23275  0.96138  0.53938  1.0000
  C   C625      1.0  0.33427  0.79953  0.74318  1.0000
  C   C626      1.0  0.31334  0.80810  0.75652  1.0000
  C   C627      1.0  0.29818  0.81895  0.73001  1.0000
  C   C628      1.0  0.30358  0.82158  0.68965  1.0000
  C   C629      1.0  0.32449  0.81301  0.67634  1.0000
  C   C630      1.0  0.33965  0.80217  0.70284  1.0000
  H   H508      1.0  0.30879  0.80632  0.78728  1.0000
  H   H509      1.0  0.28209  0.82534  0.74091  1.0000
  H   H510      1.0  0.32887  0.81437  0.64548  1.0000
  H   H511      1.0  0.35567  0.79561  0.69187  1.0000
  C   C631      1.0  0.48023  0.74059  0.89047  1.0000
  C   C632      1.0  0.47381  0.76332  0.89670  1.0000
  S   S94       1.0  0.35245  0.81581  0.97199  1.0000
  H   H512      1.0  0.46730  0.72804  0.88487  1.0000
  H   H513      1.0  0.23924  0.69632  0.81756  1.0000
  C   C633      1.0  0.01700  0.69160  0.50943  1.0000
  C   C634      1.0  0.32139  0.69205  0.94677  1.0000
  H   H514      1.0  0.36766  0.91962  0.67234  1.0000
  C   C635      1.0  0.27398  0.70707  0.81864  1.0000
  C   C636      1.0  0.11982  0.66902  0.53374  1.0000
  C   C637      1.0  0.18308  0.72588  0.53415  1.0000
  C   C638      1.0  0.17266  0.70794  0.62269  1.0000
  H   H515      1.0  0.07134  0.67548  0.48912  1.0000
  C   C639      1.0  0.11770  0.79300  0.52442  1.0000
  H   H516      1.0  0.25447  0.91835  0.65455  1.0000
  H   H517      1.0  0.01867  0.68247  0.71512  1.0000
  C   C640      1.0  0.35692  0.92342  0.77109  1.0000
  H   H518      1.0  0.24851  0.79901  0.62376  1.0000
  H   H519      1.0  0.31269  0.78365  0.53160  1.0000
  H   H520      1.0  0.31716  0.67914  0.86434  1.0000
  H   H521      1.0  0.05940  0.67648  0.73019  1.0000
  C   C641      1.0  0.13062  0.79958  0.55689  1.0000
  C   C642      1.0  0.30591  0.78588  0.50217  1.0000
  H   H522      1.0  0.32943  0.83914  0.86268  1.0000
  H   H523      1.0  0.37027  0.94935  0.80933  1.0000
  C   C643      1.0  0.38202  0.95346  0.74951  1.0000
  C   C644      1.0  0.38127  0.94500  0.71100  1.0000
  H   H524      1.0  0.11812  0.72778  0.67755  1.0000
  C   C645      1.0  0.25623  0.69219  0.82743  1.0000
  H   H525      1.0  0.33101  0.97962  0.51646  1.0000
  H   H526      1.0  0.99582  0.67721  0.55435  1.0000
  C   C646      1.0  0.15197  0.76406  0.55313  1.0000
  H   H527      1.0  0.14197  0.74169  0.50533  1.0000
  H   H528      1.0  0.30968  0.71393  0.82552  1.0000
  H   H529      1.0  0.47854  0.83161  0.95486  1.0000
  C   C647      1.0  0.02947  0.67350  0.69430  1.0000
  C   C648      1.0  0.36838  0.92573  0.70248  1.0000
  C   C649      1.0  0.36984  0.94269  0.77952  1.0000
  H   H530      1.0  0.35930  0.82892  0.81428  1.0000
  C   C650      1.0  0.14297  0.73607  0.63305  1.0000
  C   C651      1.0  0.35625  0.91467  0.73255  1.0000
  P   P24       1.0  0.33878  0.89045  0.72086  1.0000
  C   C652      1.0  0.31160  0.90026  0.70285  1.0000
  C   C653      1.0  0.35298  0.87412  0.68272  1.0000
  C   C654      1.0  0.37649  0.87019  0.68469  1.0000
  C   C655      1.0  0.38764  0.85807  0.65472  1.0000
  C   C656      1.0  0.37547  0.85004  0.62234  1.0000
  C   C657      1.0  0.35213  0.85403  0.62001  1.0000
  C   C658      1.0  0.34088  0.86586  0.65018  1.0000
  C   C659      1.0  0.29272  0.88589  0.70473  1.0000
  C   C660      1.0  0.27215  0.89245  0.68762  1.0000
  C   C661      1.0  0.27020  0.91350  0.66883  1.0000
  C   C662      1.0  0.28879  0.92808  0.66743  1.0000
  C   C663      1.0  0.30945  0.92149  0.68417  1.0000
  C   C664      1.0  0.33515  0.87336  0.76481  1.0000
  C   C665      1.0  0.31810  0.87899  0.79233  1.0000
  C   C666      1.0  0.31598  0.86668  0.82746  1.0000
  C   C667      1.0  0.33097  0.84877  0.83554  1.0000
  C   C668      1.0  0.34792  0.84307  0.80836  1.0000
  C   C669      1.0  0.34992  0.85512  0.77300  1.0000
  H   H531      1.0  0.34747  0.91551  0.79472  1.0000
  H   H532      1.0  0.38615  0.87635  0.70956  1.0000
  H   H533      1.0  0.40570  0.85480  0.65667  1.0000
  H   H534      1.0  0.38404  0.84058  0.59914  1.0000
  H   H535      1.0  0.34260  0.84765  0.59508  1.0000
  H   H536      1.0  0.32272  0.86829  0.64804  1.0000
  H   H537      1.0  0.29411  0.86921  0.71804  1.0000
  H   H538      1.0  0.25796  0.88081  0.68781  1.0000
  H   H539      1.0  0.28728  0.94424  0.65222  1.0000
  H   H540      1.0  0.32371  0.93283  0.68160  1.0000
  H   H541      1.0  0.30654  0.89302  0.78679  1.0000
  H   H542      1.0  0.30275  0.87104  0.84845  1.0000
  H   H543      1.0  0.10466  0.80423  0.51296  1.0000
  S   S95       1.0  0.26539  0.88311  0.49562  1.0000
  H   H544      1.0  0.12759  0.81596  0.57068  1.0000
  H   H545      1.0  0.29310  0.79107  0.90999  1.0000
  C   C670      1.0  0.29592  0.70231  0.83188  1.0000
  C   C671      1.0  0.28244  0.66778  0.86281  1.0000
  C   C672      1.0  0.16989  0.70675  0.52538  1.0000
  H   H546      1.0  0.15467  0.70331  0.54215  1.0000
  H   H547      1.0  0.13468  0.75198  0.62584  1.0000
  H   H548      1.0  0.39189  0.96848  0.75606  1.0000
  C   C673      1.0  0.22246  0.66576  0.90489  1.0000
  H   H549      1.0  0.29509  0.83303  0.91531  1.0000
  H   H550      1.0  0.00449  0.70424  0.50070  1.0000
  C   C674      1.0  0.32055  0.66860  0.95544  1.0000
  C   C675      1.0  0.31403  0.93416  0.49084  1.0000
  H   H551      1.0  0.27074  0.72241  0.80183  1.0000
  C   C676      1.0  0.22631  0.68826  0.91718  1.0000
  C   C677      1.0  0.16254  0.72885  0.61267  1.0000
  C   C678      1.0  0.30014  0.68265  0.85378  1.0000
  C   C679      1.0  0.13888  0.75761  0.52050  1.0000
  C   C680      1.0  0.14349  0.70149  0.67185  1.0000
  C   C681      1.0  0.12309  0.66782  0.57479  1.0000
  H   H552      1.0  0.21265  0.74517  0.51695  1.0000
  H   H553      1.0  0.30245  0.72341  0.94914  1.0000
  C   C682      1.0  0.19865  0.68401  0.96967  1.0000
  H   H554      1.0  0.17036  0.67775  0.65860  1.0000
  H   H555      1.0  0.41050  0.82951  0.92454  1.0000
  H   H556      1.0  0.18760  0.70186  0.60710  1.0000
  H   H557      1.0  0.20672  0.73997  0.63748  1.0000
  C   C683      1.0  0.13351  0.72241  0.66252  1.0000
  C   C684      1.0  0.22897  0.76860  0.63394  1.0000
  H   H558      1.0  0.23894  0.76345  0.65923  1.0000
  C   C685      1.0  0.23443  0.78863  0.61393  1.0000
  C   C686      1.0  0.16310  0.69431  0.65206  1.0000
  H   H559      1.0  0.19357  0.78772  0.54368  1.0000
  H   H560      1.0  0.38943  0.85797  0.96458  1.0000
  C   C687      1.0  0.21449  0.69728  0.94954  1.0000
  C   C688      1.0  0.28089  0.98461  0.57586  1.0000
  H   H561      1.0  0.15737  0.79047  0.59669  1.0000
  C   C689      1.0  0.01205  0.67601  0.53943  1.0000
  H   H562      1.0  0.22574  0.81097  0.56587  1.0000
  H   H563      1.0  0.27499  0.76799  0.51472  1.0000
  C   C690      1.0  0.19761  0.76215  0.58895  1.0000
  C   C691      1.0  0.20335  0.78220  0.56889  1.0000
  C   C692      1.0  0.05244  0.67026  0.70272  1.0000
  H   H564      1.0  0.48653  0.79684  0.90872  1.0000
  C   C693      1.0  0.22163  0.79539  0.58136  1.0000
  C   C694      1.0  0.28468  0.77708  0.49264  1.0000
  H   H565      1.0  0.12154  0.68504  0.51844  1.0000
  C   C695      1.0  0.29402  0.82277  0.94174  1.0000
  C   C696      1.0  0.14760  0.78513  0.57137  1.0000
  C   C697      1.0  0.02036  0.66480  0.65941  1.0000
  C   C698      1.0  0.26033  0.67235  0.84950  1.0000
  P   P25       1.0  0.17384  0.74540  0.57228  1.0000
  C   C699      1.0  0.21065  0.75536  0.62152  1.0000
  C   C700      1.0  0.29298  0.79910  0.93877  1.0000
  C   C701      1.0  0.03826  0.69124  0.49101  1.0000
  C   C702      1.0  0.20249  0.73028  0.51140  1.0000
  H   H566      1.0  0.28417  0.95509  0.48801  1.0000
  H   H567      1.0  0.00257  0.66768  0.65330  1.0000
  C   C703      1.0  0.41606  0.83343  0.95413  1.0000
  H   H568      1.0  0.21772  0.71453  0.95908  1.0000
  C   C704      1.0  0.30223  0.70541  0.95564  1.0000
  H   H569      1.0  0.44307  0.80886  0.95265  1.0000
  C   C705      1.0  0.12177  0.77199  0.50636  1.0000
  H   H570      1.0  0.39051  0.95348  0.68764  1.0000
  C   C706      1.0  0.05467  0.67543  0.50284  1.0000
  C   C707      1.0  0.49351  0.82903  0.97264  1.0000
  H   H571      1.0  0.13573  0.69051  0.69370  1.0000
  S   S96       1.0  0.21108  0.84232  0.50115  1.0000
  C   C708      1.0  0.49114  0.77924  0.90394  1.0000
  C   C709      1.0  0.43454  0.82175  0.97022  1.0000
  C   C710      1.0  0.17588  0.69231  0.49419  1.0000
  H   H572      1.0  0.29202  0.76740  0.97000  1.0000
  C   C711      1.0  0.40432  0.84963  0.97659  1.0000
  H   H573      1.0  0.29577  0.85145  0.98113  1.0000
  C   C712      1.0  0.28289  0.69552  0.97359  1.0000
  H   H574      1.0  0.45397  0.71843  0.97994  1.0000
  H   H575      1.0  0.26839  0.70615  0.98067  1.0000
  C   C713      1.0  0.29241  0.78575  0.97287  1.0000
  C   C714      1.0  0.33685  0.99449  0.50056  1.0000
  C   C715      1.0  0.28222  0.67211  0.98274  1.0000
  C   C716      1.0  0.29432  0.83315  0.97884  1.0000
  H   H576      1.0  0.49239  0.73522  0.98210  1.0000
  H   H577      1.0  0.16525  0.67788  0.48711  1.0000
  Fe  Fe49      1.0  0.56115  0.10009  0.21450  1.0000
  S   S97       1.0  0.58686  0.09565  0.16590  1.0000
  S   S98       1.0  0.52575  0.09535  0.19110  1.0000
  Fe  Fe50      1.0  0.59750  0.11219  0.27548  1.0000
  S   S99       1.0  0.62567  0.10940  0.23097  1.0000
  S   S100      1.0  0.60255  0.12275  0.33954  1.0000
  Fe  Fe51      1.0  0.60211  0.12771  0.18926  1.0000
  S   S101      1.0  0.61012  0.15921  0.15318  1.0000
  Fe  Fe52      1.0  0.60751  0.07761  0.21172  1.0000
  S   S102      1.0  0.62703  0.04507  0.20029  1.0000
  S   S103      1.0  0.57521  0.13322  0.23548  1.0000
  S   S104      1.0  0.58056  0.07929  0.25860  1.0000
  C   C717      1.0  0.76410  0.14852  0.35185  1.0000
  Fe  Fe53      1.0  0.84901  0.24598  0.41235  1.0000
  S   S105      1.0  0.83953  0.28223  0.39681  1.0000
  S   S106      1.0  0.82003  0.21967  0.41878  1.0000
  Fe  Fe54      1.0  0.90075  0.25563  0.39939  1.0000
  S   S107      1.0  0.89409  0.29195  0.38180  1.0000
  S   S108      1.0  0.93566  0.23731  0.40113  1.0000
  Fe  Fe55      1.0  0.86986  0.29192  0.43355  1.0000
  Fe  Fe56      1.0  0.86417  0.27964  0.34595  1.0000
  S   S109      1.0  0.85812  0.28806  0.27976  1.0000
  S   S110      1.0  0.87759  0.25610  0.45283  1.0000
  S   S111      1.0  0.87264  0.24297  0.35981  1.0000
  H   H578      1.0  0.66411  0.06205  0.46393  1.0000
  C   C718      1.0  0.64467  0.26378  0.03740  1.0000
  C   C719      1.0  0.93996  0.12269  0.48205  1.0000
  C   C720      1.0  0.78986  0.18663  0.44329  1.0000
  H   H579      1.0  0.55570  0.08088  0.02342  1.0000
  H   H580      1.0  0.78436  0.18673  0.41294  1.0000
  C   C721      1.0  0.58743  0.02035  0.20355  1.0000
  C   C722      1.0  0.96461  0.24616  0.40625  1.0000
  C   C723      1.0  0.98208  0.22990  0.40123  1.0000
  C   C724      1.0  0.97077  0.26861  0.41484  1.0000
  H   H581      1.0  0.97768  0.21248  0.39461  1.0000
  H   H582      1.0  0.95765  0.28134  0.41879  1.0000
  H   H583      1.0  0.76757  0.28909  0.08216  1.0000
  H   H584      1.0  0.80799  0.28309  0.32704  1.0000
  C   C725      1.0  0.95515  0.32501  0.38043  1.0000
  C   C726      1.0  0.81009  0.26615  0.13724  1.0000
  C   C727      1.0  0.83948  0.30475  0.24900  1.0000
  C   C728      1.0  0.55284  0.25171  0.01315  1.0000
  H   H585      1.0  0.93184  0.30749  0.29611  1.0000
  C   C729      1.0  0.73104  0.02855  0.43568  1.0000
  C   C730      1.0  0.84167  0.30323  0.20757  1.0000
  C   C731      1.0  0.50215  0.09784  0.26203  1.0000
  H   H586      1.0  0.71195  0.26787  0.24890  1.0000
  H   H587      1.0  0.85444  0.29201  0.19513  1.0000
  C   C732      1.0  0.62764  0.11659  0.36636  1.0000
  C   C733      1.0  0.64699  0.10771  0.34781  1.0000
  C   C734      1.0  0.66677  0.10339  0.36976  1.0000
  C   C735      1.0  0.66742  0.10776  0.41050  1.0000
  C   C736      1.0  0.64801  0.11636  0.42927  1.0000
  C   C737      1.0  0.62826  0.12091  0.40719  1.0000
  H   H588      1.0  0.64676  0.10424  0.31650  1.0000
  H   H589      1.0  0.68166  0.09662  0.35502  1.0000
  H   H590      1.0  0.64824  0.11961  0.46066  1.0000
  H   H591      1.0  0.61333  0.12771  0.42181  1.0000
  C   C738      1.0  0.61142  0.15882  0.10095  1.0000
  C   C739      1.0  0.61229  0.17950  0.08018  1.0000
  C   C740      1.0  0.61414  0.17975  0.03871  1.0000
  C   C741      1.0  0.61547  0.15927  0.01776  1.0000
  C   C742      1.0  0.61449  0.13862  0.03853  1.0000
  C   C743      1.0  0.61235  0.13837  0.07990  1.0000
  H   H592      1.0  0.61160  0.19539  0.09627  1.0000
  H   H593      1.0  0.61475  0.19573  0.02305  1.0000
  H   H594      1.0  0.61555  0.12271  0.02255  1.0000
  H   H595      1.0  0.61183  0.12236  0.09555  1.0000
  H   H596      1.0  0.52386  0.19635  0.10957  1.0000
  H   H597      1.0  0.74554  0.27909  0.14125  1.0000
  C   C744      1.0  0.99396  0.27461  0.41805  1.0000
  H   H598      1.0  0.57857  0.03643  0.20096  1.0000
  C   C745      1.0  0.56427  0.23122  0.02013  1.0000
  S   S112      1.0  0.86940  0.32314  0.47318  1.0000
  H   H599      1.0  0.67135  0.01723  0.34066  1.0000
  C   C746      1.0  0.67829  0.24535  0.06326  1.0000
  H   H600      1.0  0.51815  0.10156  0.27609  1.0000
  C   C747      1.0  0.72961  0.23298  0.03583  1.0000
  C   C748      1.0  0.71655  0.32521  0.24006  1.0000
  H   H601      1.0  0.94197  0.10747  0.46426  1.0000
  H   H602      1.0  0.65177  0.21161  0.99590  1.0000
  C   C749      1.0  0.68424  0.02238  0.42500  1.0000
  C   C750      1.0  0.61984  0.05866  0.34047  1.0000
  H   H603      1.0  0.65924  0.03570  0.27844  1.0000
  H   H604      1.0  0.64081  0.99835  0.20896  1.0000
  C   C751      1.0  0.77755  0.25460  0.25767  1.0000
  C   C752      1.0  0.53300  0.08154  0.07335  1.0000
  H   H605      1.0  0.76810  0.30793  0.20621  1.0000
  C   C753      1.0  0.77596  0.28074  0.10667  1.0000
  C   C754      1.0  0.52823  0.21135  0.02282  1.0000
  C   C755      1.0  0.53749  0.14812  0.05841  1.0000
  H   H606      1.0  0.54594  0.07662  0.09443  1.0000
  H   H607      1.0  0.77746  0.14961  0.32995  1.0000
  C   C756      1.0  0.64012  0.03418  0.46201  1.0000
  C   C757      1.0  0.51685  0.23207  0.01653  1.0000
  H   H608      1.0  0.73817  0.23656  0.14809  1.0000
  C   C758      1.0  0.65530  0.22609  0.01462  1.0000
  H   H609      1.0  0.67055  0.15871  0.42153  1.0000
  C   C759      1.0  0.65696  0.02878  0.34093  1.0000
  H   H610      1.0  0.68454  0.05675  0.40203  1.0000
  H   H611      1.0  0.61690  0.05210  0.40218  1.0000
  H   H612      1.0  0.66358  0.14072  0.15818  1.0000
  H   H613      1.0  0.92728  0.17700  0.42284  1.0000
  H   H614      1.0  0.93340  0.20678  0.47828  1.0000
  H   H615      1.0  0.60569  0.07054  0.34031  1.0000
  H   H616      1.0  0.69264  0.24579  0.08302  1.0000
  C   C760      1.0  0.86699  0.18698  0.38086  1.0000
  C   C761      1.0  0.88572  0.18590  0.35551  1.0000
  C   C762      1.0  0.90740  0.18232  0.37089  1.0000
  C   C763      1.0  0.49970  0.09549  0.01993  1.0000
  C   C764      1.0  0.72228  0.21179  0.04981  1.0000
  C   C765      1.0  0.86990  0.18437  0.42150  1.0000
  H   H617      1.0  0.90962  0.13348  0.45236  1.0000
  C   C766      1.0  0.75157  0.24053  0.04352  1.0000
  H   H618      1.0  0.74892  0.03121  0.44110  1.0000
  C   C767      1.0  0.96172  0.33034  0.24040  1.0000
  H   H619      1.0  0.52029  0.26802  0.00593  1.0000
  C   C768      1.0  0.76428  0.13079  0.37928  1.0000
  C   C769      1.0  0.93803  0.25018  0.30047  1.0000
  C   C770      1.0  0.82281  0.31946  0.26429  1.0000
  C   C771      1.0  0.76347  0.27494  0.14023  1.0000
  C   C772      1.0  0.74178  0.28519  0.22691  1.0000
  H   H620      1.0  0.85535  0.18632  0.44082  1.0000
  H   H621      1.0  0.72535  0.06229  0.41260  1.0000
  H   H622      1.0  0.62688  0.06252  0.27858  1.0000
  C   C773      1.0  0.82765  0.31617  0.18196  1.0000
  C   C774      1.0  0.66999  0.15251  0.13627  1.0000
  C   C775      1.0  0.67079  0.19052  0.10888  1.0000
  H   H623      1.0  0.85026  0.19067  0.36924  1.0000
  H   H624      1.0  0.88353  0.18868  0.32418  1.0000
  H   H625      1.0  0.92208  0.18257  0.35156  1.0000
  C   C776      1.0  0.61970  0.02593  0.47789  1.0000
  H   H626      1.0  0.56129  0.19531  0.02947  1.0000
  C   C777      1.0  0.69779  0.00469  0.44003  1.0000
  C   C778      1.0  0.64037  0.24465  0.01423  1.0000
  H   H627      1.0  0.78354  0.23274  0.07111  1.0000
  H   H628      1.0  0.71802  0.21132  0.45281  1.0000
  S   S113      1.0  0.73606  0.31161  0.00329  1.0000
  C   C779      1.0  0.69106  0.15980  0.07616  1.0000
  P   P26       1.0  0.51281  0.18508  0.02830  1.0000
  C   C780      1.0  0.92171  0.13750  0.47529  1.0000
  C   C781      1.0  0.52740  0.16937  0.06635  1.0000
  S   S114      1.0  0.79022  0.33028  0.05090  1.0000
  C   C782      1.0  0.71620  0.20622  0.24224  1.0000
  H   H629      1.0  0.66693  0.27899  0.07989  1.0000
  H   H630      1.0  0.61218  0.01050  0.46665  1.0000
  C   C783      1.0  0.73126  0.22438  0.24578  1.0000
  C   C784      1.0  0.78491  0.23237  0.26643  1.0000
  C   C785      1.0  0.79987  0.22848  0.29766  1.0000
  C   C786      1.0  0.80798  0.24674  0.31971  1.0000
  H   H631      1.0  0.96342  0.31281  0.23081  1.0000
  H   H632      1.0  0.70987  0.19773  0.26840  1.0000
  H   H633      1.0  0.54600  0.17629  0.16089  1.0000
  H   H634      1.0  0.73647  0.22974  0.27487  1.0000
  H   H635      1.0  0.77927  0.21806  0.24902  1.0000
  H   H636      1.0  0.80548  0.21136  0.30463  1.0000
  H   H637      1.0  0.81987  0.24376  0.34345  1.0000
  C   C787      1.0  0.66356  0.26409  0.06208  1.0000
  C   C788      1.0  0.68365  0.14468  0.10527  1.0000
  S   S115      1.0  0.69303  0.10232  0.43606  1.0000
  C   C789      1.0  0.71725  0.21010  0.17125  1.0000
  C   C790      1.0  0.71966  0.28406  0.24230  1.0000
  C   C791      1.0  0.65027  0.03922  0.30578  1.0000
  C   C792      1.0  0.51802  0.01844  0.15139  1.0000
  C   C793      1.0  0.70379  0.20050  0.45978  1.0000
  C   C794      1.0  0.79929  0.27645  0.10521  1.0000
  C   C795      1.0  0.67151  0.15116  0.29533  1.0000
  C   C796      1.0  0.64960  0.16006  0.29964  1.0000
  C   C797      1.0  0.64520  0.17680  0.32796  1.0000
  C   C798      1.0  0.66267  0.18463  0.35212  1.0000
  C   C799      1.0  0.68469  0.17548  0.34853  1.0000
  C   C800      1.0  0.68900  0.15878  0.31970  1.0000
  P   P27       1.0  0.70671  0.18439  0.38218  1.0000
  C   C801      1.0  0.72946  0.16361  0.38145  1.0000
  C   C802      1.0  0.71783  0.21200  0.36894  1.0000
  C   C803      1.0  0.73996  0.21798  0.38002  1.0000
  C   C804      1.0  0.74879  0.23920  0.36988  1.0000
  C   C805      1.0  0.73540  0.25491  0.34943  1.0000
  C   C806      1.0  0.71316  0.24934  0.33912  1.0000
  C   C807      1.0  0.70444  0.22792  0.34857  1.0000
  C   C808      1.0  0.72979  0.14574  0.40880  1.0000
  C   C809      1.0  0.74703  0.12932  0.40750  1.0000
  H   H638      1.0  0.62584  0.24460  0.99485  1.0000
  H   H639      1.0  0.76563  0.16093  0.46103  1.0000
  C   C810      1.0  0.74664  0.16477  0.35265  1.0000
  C   C811      1.0  0.69491  0.18558  0.43148  1.0000
  C   C812      1.0  0.67708  0.17107  0.44223  1.0000
  H   H640      1.0  0.71830  0.24371  0.01892  1.0000
  H   H641      1.0  0.75694  0.25699  0.03253  1.0000
  P   P28       1.0  0.65378  0.01952  0.42130  1.0000
  C   C813      1.0  0.62636  0.04817  0.37562  1.0000
  H   H642      1.0  0.67465  0.13768  0.27414  1.0000
  H   H643      1.0  0.63582  0.15348  0.28193  1.0000
  H   H644      1.0  0.62801  0.18311  0.33195  1.0000
  H   H645      1.0  0.65879  0.19721  0.37457  1.0000
  H   H646      1.0  0.70559  0.15098  0.31674  1.0000
  H   H647      1.0  0.75037  0.20633  0.39692  1.0000
  H   H648      1.0  0.76598  0.24353  0.37838  1.0000
  H   H649      1.0  0.74223  0.27143  0.34191  1.0000
  H   H650      1.0  0.70265  0.26167  0.32386  1.0000
  H   H651      1.0  0.68721  0.22397  0.34027  1.0000
  H   H652      1.0  0.71675  0.14430  0.43118  1.0000
  H   H653      1.0  0.74695  0.11549  0.42862  1.0000
  C   C814      1.0  0.52030  0.03667  0.21520  1.0000
  H   H654      1.0  0.55888  0.12124  0.08104  1.0000
  H   H655      1.0  0.74655  0.17820  0.33084  1.0000
  C   C815      1.0  0.55206  0.21110  0.02481  1.0000
  H   H656      1.0  0.53606  0.14025  0.02969  1.0000
  C   C816      1.0  0.91027  0.17916  0.41144  1.0000
  C   C817      1.0  0.97421  0.26858  0.31078  1.0000
  H   H657      1.0  0.94098  0.31696  0.36603  1.0000
  C   C818      1.0  0.80767  0.20105  0.45482  1.0000
  H   H658      1.0  0.69748  0.18501  0.20218  1.0000
  C   C819      1.0  0.69457  0.04287  0.41396  1.0000
  H   H659      1.0  0.56306  0.13874  0.14678  1.0000
  H   H660      1.0  0.53822  0.04811  0.16366  1.0000
  H   H661      1.0  0.58263  0.23081  0.02143  1.0000
  C   C820      1.0  0.92759  0.27140  0.29597  1.0000
  C   C821      1.0  0.70920  0.19907  0.20495  1.0000
  H   H662      1.0  0.82974  0.31475  0.15035  1.0000
  C   C822      1.0  0.63182  0.05423  0.30567  1.0000
  H   H663      1.0  0.77774  0.11814  0.37873  1.0000
  C   C823      1.0  0.77421  0.26472  0.17270  1.0000
  H   H664      1.0  0.80659  0.25318  0.19590  1.0000
  C   C824      1.0  0.78598  0.27286  0.27980  1.0000
  C   C825      1.0  0.53068  0.17956  0.10339  1.0000
  C   C826      1.0  0.50303  0.00235  0.16691  1.0000
  P   P29       1.0  0.75818  0.25967  0.21738  1.0000
  H   H665      1.0  0.70157  0.15344  0.05224  1.0000
  C   C827      1.0  0.79765  0.26034  0.17095  1.0000
  H   H666      1.0  0.82829  0.26339  0.13655  1.0000
  C   C828      1.0  0.94043  0.29123  0.29889  1.0000
  H   H667      1.0  0.52346  0.01738  0.12096  1.0000
  C   C829      1.0  0.53848  0.08404  0.03348  1.0000
  H   H668      1.0  0.66583  0.16593  0.00580  1.0000
  C   C830      1.0  0.52186  0.09112  0.00682  1.0000
  H   H669      1.0  0.77111  0.19504  0.09549  1.0000
  C   C831      1.0  0.54325  0.16837  0.13244  1.0000
  H   H670      1.0  0.66512  0.20803  0.11058  1.0000
  P   P30       1.0  0.98006  0.31590  0.31190  1.0000
  H   H671      1.0  0.92795  0.23485  0.29956  1.0000
  H   H672      1.0  0.78133  0.29023  0.27297  1.0000
  C   C832      1.0  0.76650  0.22690  0.06517  1.0000
  C   C833      1.0  0.89141  0.17945  0.43692  1.0000
  C   C834      1.0  0.52648  0.03570  0.17545  1.0000
  C   C835      1.0  0.96132  0.24878  0.30766  1.0000
  C   C836      1.0  0.55036  0.13719  0.08741  1.0000
  H   H673      1.0  0.90943  0.27252  0.29104  1.0000
  H   H674      1.0  0.63353  0.27848  0.03561  1.0000
  C   C837      1.0  0.71781  0.04601  0.41965  1.0000
  C   C838      1.0  0.64499  0.03311  0.37610  1.0000
  H   H675      1.0  0.80905  0.28155  0.07958  1.0000
  H   H676      1.0  0.65284  0.18140  0.16192  1.0000
  C   C839      1.0  0.67464  0.22648  0.03858  1.0000
  C   C840      1.0  0.73955  0.23551  0.21203  1.0000
  C   C841      1.0  0.62247  0.99885  0.20801  1.0000
  H   H677      1.0  0.73248  0.18149  0.08173  1.0000
  H   H678      1.0  0.68810  0.12680  0.10344  1.0000
  H   H679      1.0  0.71175  0.20460  0.14242  1.0000
  C   C842      1.0  0.75946  0.20566  0.07892  1.0000
  P   P31       1.0  0.69374  0.20232  0.03972  1.0000
  C   C843      1.0  0.75110  0.30655  0.21824  1.0000
  H   H680      1.0  0.52723  0.04985  0.23397  1.0000
  C   C844      1.0  0.66385  0.17547  0.13831  1.0000
  C   C845      1.0  0.68450  0.18282  0.07757  1.0000
  C   C846      1.0  0.61116  0.01983  0.20455  1.0000
  C   C847      1.0  0.73230  0.22829  0.17466  1.0000
  C   C848      1.0  0.55297  0.14716  0.12448  1.0000
  C   C849      1.0  0.80112  0.26889  0.31068  1.0000
  H   H681      1.0  0.68999  0.30313  0.26047  1.0000
  C   C850      1.0  0.73749  0.19805  0.07110  1.0000
  C   C851      1.0  0.50144  0.09390  0.22135  1.0000
  H   H682      1.0  0.85811  0.14662  0.46073  1.0000
  C   C852      1.0  0.49620  0.00367  0.20658  1.0000
  C   C853      1.0  0.72108  0.00780  0.44541  1.0000
  C   C854      1.0  0.97645  0.32630  0.36183  1.0000
  C   C855      1.0  0.96390  0.29002  0.30613  1.0000
  H   H683      1.0  0.99203  0.26693  0.31763  1.0000
  C   C856      1.0  0.70711  0.30404  0.24887  1.0000
  H   H684      1.0  0.50101  0.15167  0.17286  1.0000
  H   H685      1.0  0.82088  0.32113  0.29589  1.0000
  H   H686      1.0  0.96924  0.23233  0.31240  1.0000
  C   C857      1.0  0.57516  0.99993  0.20495  1.0000
  C   C858      1.0  0.51097  0.08620  0.08654  1.0000
  C   C859      1.0  0.69360  0.18865  0.99189  1.0000
  H   H687      1.0  0.56238  0.26721  0.00885  1.0000
  C   C860      1.0  0.77925  0.17181  0.47048  1.0000
  C   C861      1.0  0.73854  0.32644  0.22474  1.0000
  H   H688      1.0  0.49855  0.23283  0.01513  1.0000
  H   H689      1.0  0.55685  0.00035  0.20358  1.0000
  C   C862      1.0  0.50537  0.02065  0.23082  1.0000
  H   H690      1.0  0.50100  0.02152  0.26187  1.0000
  H   H691      1.0  0.53695  0.00082  0.04761  1.0000
  C   C863      1.0  0.66778  0.17203  0.48019  1.0000
  H   H692      1.0  0.50735  0.08499  0.11773  1.0000
  H   H693      1.0  0.50120  0.12759  0.11397  1.0000
  C   C864      1.0  0.52915  0.25215  0.01148  1.0000
  C   C865      1.0  0.64879  0.05484  0.47613  1.0000
  C   C866      1.0  0.74010  0.28870  0.65142  1.0000
  H   H694      1.0  0.66576  0.14741  0.94079  1.0000
  S   S116      1.0  0.73903  0.09533  0.51046  1.0000
  Fe  Fe57      1.0  0.69677  0.12150  0.58748  1.0000
  S   S117      1.0  0.73224  0.10978  0.60217  1.0000
  S   S118      1.0  0.66898  0.13394  0.63135  1.0000
  Fe  Fe58      1.0  0.74315  0.12762  0.54566  1.0000
  S   S119      1.0  0.77446  0.15147  0.54502  1.0000
  Fe  Fe59      1.0  0.72504  0.07838  0.56498  1.0000
  S   S120      1.0  0.73513  0.04199  0.58562  1.0000
  S   S121      1.0  0.70790  0.14059  0.53273  1.0000
  S   S122      1.0  0.68906  0.08916  0.55328  1.0000
  Fe  Fe60      1.0  0.62887  0.23893  0.90591  1.0000
  S   S123      1.0  0.64947  0.20679  0.90095  1.0000
  S   S124      1.0  0.64295  0.27338  0.92855  1.0000
  Fe  Fe61      1.0  0.58542  0.21532  0.87298  1.0000
  S   S125      1.0  0.60449  0.18211  0.86491  1.0000
  S   S126      1.0  0.54774  0.21400  0.85303  1.0000
  Fe  Fe62      1.0  0.61857  0.18923  0.92519  1.0000
  Fe  Fe63      1.0  0.63383  0.20210  0.84059  1.0000
  S   S127      1.0  0.66012  0.19289  0.79174  1.0000
  S   S128      1.0  0.59854  0.22146  0.93443  1.0000
  S   S129      1.0  0.61416  0.23529  0.84447  1.0000
  C   C867      1.0  0.51940  0.21580  0.87284  1.0000
  H   H695      1.0  0.95498  0.30707  0.69302  1.0000
  H   H696      1.0  0.74727  0.29458  0.75038  1.0000
  C   C868      1.0  0.85599  0.30649  0.75235  1.0000
  C   C869      1.0  0.67648  0.18717  0.50800  1.0000
  C   C870      1.0  0.66688  0.15087  0.67543  1.0000
  C   C871      1.0  0.64595  0.15218  0.69569  1.0000
  C   C872      1.0  0.64345  0.16498  0.73094  1.0000
  C   C873      1.0  0.66185  0.17690  0.74650  1.0000
  C   C874      1.0  0.68264  0.17598  0.72572  1.0000
  C   C875      1.0  0.68526  0.16289  0.69087  1.0000
  H   H697      1.0  0.63153  0.14311  0.68411  1.0000
  H   H698      1.0  0.62726  0.16566  0.74603  1.0000
  H   H699      1.0  0.69692  0.18547  0.73669  1.0000
  H   H700      1.0  0.70146  0.16225  0.67579  1.0000
  C   C876      1.0  0.67802  0.16062  0.94687  1.0000
  C   C877      1.0  0.72750  0.01307  0.57406  1.0000
  H   H701      1.0  0.69147  0.08909  0.64579  1.0000
  H   H702      1.0  0.72446  0.26902  0.96653  1.0000
  H   H703      1.0  0.70188  0.02100  0.53113  1.0000
  H   H704      1.0  0.82841  0.30500  0.84934  1.0000
  C   C878      1.0  0.79845  0.31443  0.93373  1.0000
  C   C879      1.0  0.81651  0.30811  0.90921  1.0000
  H   H705      1.0  0.81023  0.18464  0.55141  1.0000
  H   H706      1.0  0.68238  0.26921  0.85677  1.0000
  C   C880      1.0  0.72178  0.06738  0.87906  1.0000
  C   C881      1.0  0.86969  0.16321  0.55493  1.0000
  H   H707      1.0  0.75278  0.28743  0.85492  1.0000
  H   H708      1.0  0.93261  0.17667  0.54697  1.0000
  H   H709      1.0  0.95104  0.30265  0.48783  1.0000
  C   C882      1.0  0.71481  0.16137  0.80139  1.0000
  H   H710      1.0  0.84980  0.15369  0.60584  1.0000
  C   C883      1.0  0.69010  0.31473  0.98098  1.0000
  H   H711      1.0  0.70999  0.17777  0.81365  1.0000
  C   C884      1.0  0.87965  0.30231  0.54428  1.0000
  C   C885      1.0  0.51087  0.27658  0.85712  1.0000
  C   C886      1.0  0.71080  0.00751  0.54639  1.0000
  H   H712      1.0  0.87866  0.28637  0.52854  1.0000
  C   C887      1.0  0.73541  0.15875  0.78133  1.0000
  H   H713      1.0  0.96970  0.11597  0.51702  1.0000
  C   C888      1.0  0.87591  0.32270  0.52406  1.0000
  H   H714      1.0  0.60868  0.06763  0.54528  1.0000
  H   H715      1.0  0.83232  0.30231  0.92209  1.0000
  H   H716      1.0  0.52852  0.27425  0.86527  1.0000
  C   C889      1.0  0.88523  0.21577  0.53240  1.0000
  H   H717      1.0  0.82873  0.21081  0.50355  1.0000
  H   H718      1.0  0.80308  0.26177  0.63761  1.0000
  C   C890      1.0  0.68925  0.30511  0.85558  1.0000
  C   C891      1.0  0.69140  0.08039  0.67393  1.0000
  H   H719      1.0  0.67103  0.04156  0.89439  1.0000
  H   H720      1.0  0.73890  0.06769  0.89059  1.0000
  H   H721      1.0  0.69639  0.02730  0.71244  1.0000
  C   C892      1.0  0.90105  0.20414  0.50855  1.0000
  C   C893      1.0  0.78647  0.17083  0.50972  1.0000
  H   H722      1.0  0.75151  0.99891  0.61523  1.0000
  C   C894      1.0  0.89036  0.23729  0.54757  1.0000
  C   C895      1.0  0.95904  0.30822  0.51489  1.0000
  C   C896      1.0  0.74098  0.13788  0.76390  1.0000
  H   H723      1.0  0.50502  0.19758  0.82383  1.0000
  C   C897      1.0  0.77804  0.30235  0.66592  1.0000
  H   H724      1.0  0.96484  0.15055  0.55831  1.0000
  C   C898      1.0  0.61738  0.05828  0.52210  1.0000
  H   H725      1.0  0.52768  0.23486  0.92490  1.0000
  H   H726      1.0  0.99165  0.23239  0.86169  1.0000
  C   C899      1.0  0.80986  0.26905  0.61073  1.0000
  C   C900      1.0  0.97074  0.31525  0.70105  1.0000
  C   C901      1.0  0.88406  0.30259  0.58508  1.0000
  C   C902      1.0  0.81437  0.25478  0.57847  1.0000
  C   C903      1.0  0.95602  0.31970  0.58323  1.0000
  S   S130      1.0  0.89067  0.32287  0.65699  1.0000
  H   H727      1.0  0.69106  0.04886  0.77425  1.0000
  H   H728      1.0  0.50412  0.30196  0.90148  1.0000
  C   C904      1.0  0.82582  0.30925  0.68865  1.0000
  H   H729      1.0  0.72751  0.28336  0.63016  1.0000
  C   C905      1.0  0.72906  0.31578  0.85539  1.0000
  C   C906      1.0  0.70560  0.05316  0.89620  1.0000
  C   C907      1.0  0.82234  0.30152  0.57261  1.0000
  C   C908      1.0  0.60852  0.03784  0.50807  1.0000
  C   C909      1.0  0.66904  0.28340  0.94965  1.0000
  H   H730      1.0  0.88659  0.28675  0.60069  1.0000
  C   C910      1.0  0.73499  0.28825  0.69170  1.0000
  C   C911      1.0  0.69100  0.05795  0.74657  1.0000
  C   C912      1.0  0.82264  0.26390  0.54322  1.0000
  H   H731      1.0  0.69229  0.15997  0.88836  1.0000
  C   C913      1.0  0.85166  0.15243  0.57411  1.0000
  C   C914      1.0  0.61996  0.11850  0.77328  1.0000
  C   C915      1.0  0.61349  0.12618  0.81073  1.0000
  C   C916      1.0  0.62878  0.12491  0.84203  1.0000
  C   C917      1.0  0.65059  0.11606  0.83581  1.0000
  C   C918      1.0  0.65731  0.10847  0.79815  1.0000
  C   C919      1.0  0.64183  0.10981  0.76688  1.0000
  P   P32       1.0  0.68603  0.09834  0.79030  1.0000
  C   C920      1.0  0.68834  0.08174  0.74543  1.0000
  C   C921      1.0  0.70515  0.12216  0.78651  1.0000
  C   C922      1.0  0.69964  0.14324  0.80371  1.0000
  H   H732      1.0  0.71994  0.20979  0.96666  1.0000
  C   C923      1.0  0.72598  0.11961  0.76661  1.0000
  S   S131      1.0  0.61921  0.15849  0.96590  1.0000
  C   C924      1.0  0.50132  0.20650  0.85106  1.0000
  H   H733      1.0  0.80020  0.31329  0.96546  1.0000
  H   H734      1.0  0.76476  0.32800  0.93719  1.0000
  C   C925      1.0  0.68858  0.09282  0.70879  1.0000
  C   C926      1.0  0.69381  0.08080  0.83186  1.0000
  C   C927      1.0  0.71595  0.08114  0.84698  1.0000
  H   H735      1.0  0.78485  0.30723  0.72830  1.0000
  H   H736      1.0  0.71846  0.28256  0.70166  1.0000
  H   H737      1.0  0.97180  0.26919  0.85056  1.0000
  C   C928      1.0  0.67769  0.06634  0.84907  1.0000
  H   H738      1.0  0.60827  0.11993  0.74882  1.0000
  H   H739      1.0  0.59676  0.13351  0.81537  1.0000
  H   H740      1.0  0.62387  0.13120  0.87097  1.0000
  H   H741      1.0  0.66234  0.11560  0.86026  1.0000
  H   H742      1.0  0.64660  0.10461  0.73735  1.0000
  H   H743      1.0  0.68343  0.14612  0.81793  1.0000
  H   H744      1.0  0.74682  0.17302  0.77857  1.0000
  C   C929      1.0  0.69404  0.04559  0.71157  1.0000
  C   C930      1.0  0.52917  0.17495  0.95240  1.0000
  C   C931      1.0  0.75124  0.29499  0.71914  1.0000
  H   H745      1.0  0.86879  0.20855  0.53874  1.0000
  H   H746      1.0  0.92742  0.31195  0.54637  1.0000
  H   H747      1.0  0.68672  0.11114  0.70709  1.0000
  H   H748      1.0  0.72877  0.09194  0.83406  1.0000
  C   C932      1.0  0.70805  0.18540  0.92476  1.0000
  C   C933      1.0  0.82574  0.32612  0.71809  1.0000
  C   C934      1.0  0.82657  0.28723  0.54033  1.0000
  C   C935      1.0  0.91911  0.15734  0.49800  1.0000
  C   C936      1.0  0.71835  0.27590  0.85492  1.0000
  C   C937      1.0  0.92143  0.21490  0.49826  1.0000
  H   H749      1.0  0.72303  0.25806  0.85534  1.0000
  C   C938      1.0  0.76150  0.29576  0.63854  1.0000
  C   C939      1.0  0.51246  0.14673  0.90947  1.0000
  C   C940      1.0  0.68886  0.27010  0.95124  1.0000
  H   H750      1.0  0.84248  0.27840  0.66818  1.0000
  H   H751      1.0  0.76519  0.29591  0.60719  1.0000
  H   H752      1.0  0.75678  0.13592  0.74776  1.0000
  H   H753      1.0  0.71920  0.19127  0.90148  1.0000
  C   C941      1.0  0.51416  0.22737  0.90792  1.0000
  H   H754      1.0  0.91479  0.26443  0.54915  1.0000
  C   C942      1.0  0.95284  0.14697  0.53504  1.0000
  C   C943      1.0  0.49746  0.15244  0.97540  1.0000
  P   P33       1.0  0.80574  0.31111  0.64862  1.0000
  H   H755      1.0  0.51183  0.13832  0.88105  1.0000
  C   C944      1.0  0.77264  0.30214  0.70637  1.0000
  C   C945      1.0  0.88509  0.32325  0.60583  1.0000
  Fe  Fe64      1.0  0.70309  0.10745  0.50036  1.0000
  H   H756      1.0  0.79282  0.31902  0.82020  1.0000
  C   C946      1.0  0.52866  0.16349  0.91626  1.0000
  H   H757      1.0  0.82588  0.25296  0.51799  1.0000
  C   C947      1.0  0.70596  0.32189  0.85504  1.0000
  C   C948      1.0  0.81434  0.30980  0.86830  1.0000
  C   C949      1.0  0.69294  0.16772  0.91733  1.0000
  C   C950      1.0  0.81372  0.29258  0.60803  1.0000
  H   H758      1.0  0.66058  0.06560  0.83755  1.0000
  C   C951      1.0  0.69458  0.20127  0.49788  1.0000
  C   C952      1.0  0.80438  0.18520  0.52124  1.0000
  H   H759      1.0  0.68866  0.25294  0.93972  1.0000
  H   H760      1.0  0.54160  0.18820  0.95634  1.0000
  C   C953      1.0  0.91100  0.24759  0.53807  1.0000
  H   H761      1.0  0.88196  0.17242  0.57231  1.0000
  C   C954      1.0  0.73514  0.29263  0.85477  1.0000
  C   C955      1.0  0.67816  0.17117  0.98387  1.0000
  H   H762      1.0  0.70174  0.21249  0.51985  1.0000
  H   H763      1.0  0.64403  0.08292  0.51619  1.0000
  C   C956      1.0  0.84061  0.32462  0.74999  1.0000
  H   H764      1.0  0.67143  0.30982  0.85696  1.0000
  H   H765      1.0  0.87809  0.24626  0.56581  1.0000
  H   H766      1.0  0.81112  0.23668  0.58050  1.0000
  C   C957      1.0  0.69543  0.28214  0.85552  1.0000
  H   H767      1.0  0.54056  0.16810  0.89313  1.0000
  C   C958      1.0  0.66996  0.30581  0.96452  1.0000
  H   H768      1.0  0.99248  0.30630  0.49064  1.0000
  H   H769      1.0  0.82148  0.13226  0.56698  1.0000
  C   C959      1.0  0.85648  0.28987  0.72283  1.0000
  C   C960      1.0  0.68357  0.05263  0.88118  1.0000
  C   C961      1.0  0.83583  0.14014  0.55235  1.0000
  H   H770      1.0  0.86895  0.27627  0.72398  1.0000
  C   C962      1.0  0.84145  0.29119  0.69106  1.0000
  C   C963      1.0  0.95556  0.12746  0.51182  1.0000
  C   C964      1.0  0.63739  0.06684  0.50591  1.0000
  H   H771      1.0  0.66964  0.18742  0.53776  1.0000
  C   C965      1.0  0.87176  0.16217  0.51366  1.0000
  C   C966      1.0  0.93460  0.16182  0.52834  1.0000
  H   H772      1.0  0.73057  0.10358  0.75284  1.0000
  H   H773      1.0  0.83299  0.29432  0.51295  1.0000
  C   C967      1.0  0.70839  0.19587  0.96185  1.0000
  H   H774      1.0  0.94193  0.24486  0.50407  1.0000
  C   C968      1.0  0.85634  0.14887  0.49224  1.0000
  H   H775      1.0  0.82572  0.31949  0.56942  1.0000
  C   C969      1.0  0.79419  0.31815  0.85194  1.0000
  C   C970      1.0  0.77843  0.32308  0.91753  1.0000
  C   C971      1.0  0.77631  0.32551  0.87655  1.0000
  C   C972      1.0  0.51344  0.16962  0.98219  1.0000
  C   C973      1.0  0.98757  0.26547  0.83523  1.0000
  C   C974      1.0  0.98265  0.31037  0.51662  1.0000
  C   C975      1.0  0.69432  0.05682  0.67526  1.0000
  C   C976      1.0  0.81493  0.20013  0.49410  1.0000
  H   H776      1.0  0.86793  0.30566  0.77653  1.0000
  H   H777      1.0  0.82585  0.12877  0.49477  1.0000
  C   C977      1.0  0.92637  0.23652  0.51298  1.0000
  C   C978      1.0  0.70915  0.27923  0.96685  1.0000
  H   H778      1.0  0.71014  0.04250  0.92105  1.0000
  H   H779      1.0  0.59286  0.03134  0.52030  1.0000
  H   H780      1.0  0.98820  0.29774  0.80566  1.0000
  C   C979      1.0  0.94573  0.31322  0.54798  1.0000
  C   C980      1.0  0.97967  0.32148  0.58525  1.0000
  C   C981      1.0  0.50188  0.26383  0.82621  1.0000
  C   C982      1.0  0.70994  0.30150  0.98238  1.0000
  C   C983      1.0  0.99320  0.31739  0.55164  1.0000
  H   H781      1.0  0.51265  0.25176  0.81054  1.0000
  H   H782      1.0  0.94558  0.32322  0.60901  1.0000
  C   C984      1.0  0.49689  0.14115  0.93908  1.0000
  C   C985      1.0  0.83827  0.13823  0.51150  1.0000
  C   C986      1.0  0.98776  0.30298  0.72051  1.0000
  H   H783      1.0  0.69696  0.04731  0.64811  1.0000
  H   H784      1.0  0.98509  0.28516  0.72683  1.0000
  H   H785      1.0  0.65487  0.31636  0.96348  1.0000
  H   H786      1.0  0.52620  0.09340  0.97598  1.0000
  H   H787      1.0  0.98731  0.32591  0.61315  1.0000
  H   H788      1.0  0.65421  0.16060  0.48838  1.0000
  C   C987      1.0  0.49708  0.29202  0.87764  1.0000
  P   P34       1.0  0.89529  0.17608  0.48939  1.0000
  H   H789      1.0  0.94226  0.38137  0.20683  1.0000
  C   C988      1.0  0.95182  0.33427  0.41804  1.0000
  Fe  Fe65      1.0  0.78144  0.62067  0.10918  1.0000
  S   S132      1.0  0.74884  0.60182  0.09573  1.0000
  S   S133      1.0  0.78735  0.63184  0.17430  1.0000
  Fe  Fe66      1.0  0.77018  0.57660  0.06071  1.0000
  S   S134      1.0  0.76701  0.53761  0.07311  1.0000
  Fe  Fe67      1.0  0.74622  0.62316  0.04017  1.0000
  H   H790      1.0  0.74595  0.34279  0.21752  1.0000
  S   S135      1.0  0.80276  0.59465  0.07662  1.0000
  S   S136      1.0  0.77721  0.64333  0.05580  1.0000
  Fe  Fe68      1.0  0.75617  0.34241  0.02835  1.0000
  H   H791      1.0  0.91956  0.48628  0.11004  1.0000
  Fe  Fe69      1.0  0.76992  0.39370  0.04292  1.0000
  S   S137      1.0  0.80435  0.38350  0.06615  1.0000
  S   S138      1.0  0.76257  0.43109  0.02341  1.0000
  Fe  Fe70      1.0  0.80527  0.35871  0.01542  1.0000
  Fe  Fe71      1.0  0.78649  0.35561  0.10017  1.0000
  C   C989      1.0  0.97213  0.61607  0.30492  1.0000
  H   H792      1.0  0.86499  0.43649  0.10780  1.0000
  S   S139      1.0  0.75142  0.36700  0.07961  1.0000
  C   C990      1.0  0.87345  0.56460  0.02371  1.0000
  C   C991      1.0  0.80870  0.33229  0.23869  1.0000
  P   P35       1.0  0.84425  0.52316  0.10661  1.0000
  C   C992      1.0  0.76569  0.50807  0.05854  1.0000
  C   C993      1.0  0.76650  0.50104  0.01899  1.0000
  C   C994      1.0  0.76527  0.47762  0.00901  1.0000
  C   C995      1.0  0.76360  0.46060  0.03825  1.0000
  C   C996      1.0  0.76281  0.46763  0.07780  1.0000
  C   C997      1.0  0.76381  0.49107  0.08775  1.0000
  H   H793      1.0  0.96108  0.65040  0.47667  1.0000
  H   H794      1.0  0.81484  0.46339  0.01699  1.0000
  H   H795      1.0  0.76134  0.45500  0.10082  1.0000
  H   H796      1.0  0.76295  0.49606  0.11842  1.0000
  C   C998      1.0  0.77646  0.60775  0.43736  1.0000
  C   C999      1.0  0.99431  0.33724  0.38141  1.0000
  H   H797      1.0  0.77274  0.54342  0.17562  1.0000
  H   H798      1.0  0.94845  0.65614  0.24201  1.0000
  H   H799      1.0  0.95502  0.39326  0.27337  1.0000
  Fe  Fe72      1.0  0.79637  0.61597  0.02239  1.0000
  C   C1000     1.0  0.83371  0.56109  0.00752  1.0000
  H   H800      1.0  0.86107  0.39450  0.11163  1.0000
  C   C1001     1.0  0.98059  0.63604  0.28778  1.0000
  C   C1002     1.0  0.80263  0.64950  0.24551  1.0000
  H   H801      1.0  0.96366  0.61654  0.33330  1.0000
  C   C1003     1.0  0.95030  0.65576  0.37872  1.0000
  C   C1004     1.0  0.99096  0.34635  0.41918  1.0000
  P   P36       1.0  0.97745  0.66311  0.31241  1.0000
  C   C1005     1.0  0.87050  0.54983  0.05563  1.0000
  C   C1006     1.0  0.82749  0.65613  0.19014  1.0000
  C   C1007     1.0  0.79766  0.56984  0.18104  1.0000
  C   C1008     1.0  0.84908  0.54042  0.06345  1.0000
  C   C1009     1.0  0.85877  0.61889  0.38598  1.0000
  C   C1010     1.0  0.83144  0.49616  0.09475  1.0000
  C   C1011     1.0  0.83389  0.56223  0.14957  1.0000
  C   C1012     1.0  0.85509  0.57017  0.99960  1.0000
  C   C1013     1.0  0.83066  0.54646  0.03950  1.0000
  C   C1014     1.0  0.86679  0.43709  0.04425  1.0000
  C   C1015     1.0  0.81960  0.57672  0.17126  1.0000
  C   C1016     1.0  0.79008  0.54837  0.16954  1.0000
  C   C1017     1.0  0.84128  0.63499  0.38435  1.0000
  C   C1018     1.0  0.98512  0.59421  0.24841  1.0000
  C   C1019     1.0  0.86455  0.40041  0.01199  1.0000
  C   C1020     1.0  0.82724  0.48972  0.05555  1.0000
  H   H802      1.0  0.82508  0.59371  0.17914  1.0000
  H   H803      1.0  0.63917  0.64273  0.16036  1.0000
  C   C1021     1.0  0.66655  0.65301  0.12239  1.0000
  C   C1022     1.0  0.99345  0.61405  0.23106  1.0000
  C   C1023     1.0  0.91179  0.50287  0.16523  1.0000
  C   C1024     1.0  0.82641  0.54058  0.13802  1.0000
  C   C1025     1.0  0.80440  0.53375  0.14819  1.0000
  H   H804      1.0  0.67704  0.63824  0.12883  1.0000
  C   C1026     1.0  0.86298  0.40278  0.08324  1.0000
  C   C1027     1.0  0.64522  0.65556  0.14005  1.0000
  C   C1028     1.0  0.81864  0.45898  0.11662  1.0000
  H   H805      1.0  0.86069  0.37148  0.05018  1.0000
  H   H806      1.0  0.81376  0.54031  0.04616  1.0000
  H   H807      1.0  0.83026  0.48519  0.15565  1.0000
  H   H808      1.0  0.88477  0.54646  0.07472  1.0000
  H   H809      1.0  0.78715  0.64251  0.25747  1.0000
  H   H810      1.0  0.83019  0.50127  0.03143  1.0000
  H   H811      1.0  0.80749  0.43619  0.07087  1.0000
  C   C1029     1.0  0.84585  0.60715  0.45079  1.0000
  S   S140      1.0  0.79241  0.34766  0.16659  1.0000
  C   C1030     1.0  0.87532  0.52209  0.16887  1.0000
  C   C1031     1.0  0.81459  0.45272  0.07755  1.0000
  C   C1032     1.0  0.96971  0.34493  0.43741  1.0000
  H   H812      1.0  0.78779  0.61238  0.41357  1.0000
  H   H813      1.0  0.87086  0.61765  0.36191  1.0000
  H   H814      1.0  0.79772  0.51771  0.13804  1.0000
  C   C1033     1.0  0.82612  0.63728  0.41598  1.0000
  C   C1034     1.0  0.87081  0.51587  0.12970  1.0000
  H   H815      1.0  0.78632  0.58150  0.19639  1.0000
  C   C1035     1.0  0.90726  0.49637  0.12639  1.0000
  H   H816      1.0  0.81484  0.44716  0.14022  1.0000
  C   C1036     1.0  0.88680  0.50277  0.10870  1.0000
  C   C1037     1.0  0.82830  0.62343  0.44955  1.0000
  C   C1038     1.0  0.86650  0.42411  0.00945  1.0000
  C   C1039     1.0  0.86278  0.38979  0.04871  1.0000
  S   S141      1.0  0.76536  0.59660  0.00419  1.0000
  H   H817      1.0  0.87496  0.59292  0.42081  1.0000
  H   H818      1.0  0.85048  0.56823  0.14081  1.0000
  H   H819      1.0  0.88336  0.49749  0.07866  1.0000
  C   C1040     1.0  0.81881  0.46810  0.04708  1.0000
  C   C1041     1.0  0.86100  0.60493  0.41910  1.0000
  H   H820      1.0  0.92761  0.49786  0.17901  1.0000
  H   H821      1.0  0.86792  0.45543  0.04322  1.0000
  C   C1042     1.0  0.98665  0.65408  0.43137  1.0000
  C   C1043     1.0  0.82715  0.48057  0.12521  1.0000
  C   C1044     1.0  0.89581  0.51568  0.18646  1.0000
  H   H822      1.0  0.89921  0.52055  0.21671  1.0000
  C   C1045     1.0  0.86514  0.42641  0.08102  1.0000
  C   C1046     1.0  0.80730  0.64686  0.20484  1.0000
  H   H823      1.0  0.88981  0.57230  0.01824  1.0000
  H   H824      1.0  0.86303  0.53164  0.18611  1.0000
  S   S142      1.0  0.71296  0.63770  0.01311  1.0000
  C   C1047     1.0  0.97252  0.65859  0.36449  1.0000
  H   H825      1.0  0.75204  0.59340  0.39750  1.0000
  H   H826      1.0  0.72534  0.58221  0.45069  1.0000
  H   H827      1.0  0.96706  0.35209  0.46657  1.0000
  H   H828      1.0  0.98685  0.57807  0.23320  1.0000
  H   H829      1.0  0.76782  0.51370  0.99600  1.0000
  H   H830      1.0  0.70681  0.34068  0.24485  1.0000
  H   H831      1.0  0.97175  0.36522  0.31888  1.0000
  S   S143      1.0  0.88316  0.65128  0.46924  1.0000
  H   H832      1.0  0.69022  0.33185  0.99265  1.0000
  C   C1048     1.0  0.95225  0.34637  0.21473  1.0000
  H   H833      1.0  0.83149  0.65439  0.15912  1.0000
  C   C1049     1.0  0.96440  0.65213  0.44539  1.0000
  H   H834      1.0  0.79598  0.34357  0.25115  1.0000
  C   C1050     1.0  0.99073  0.65713  0.39100  1.0000
  H   H835      1.0  0.96786  0.57990  0.29868  1.0000
  H   H836      1.0  0.81286  0.65009  0.41437  1.0000
  C   C1051     1.0  0.78192  0.61236  0.47686  1.0000
  S   S144      1.0  0.77201  0.36963  0.99057  1.0000
  C   C1052     1.0  0.75611  0.59693  0.42805  1.0000
  H   H837      1.0  0.83983  0.64609  0.35889  1.0000
  H   H838      1.0  0.93601  0.65626  0.35878  1.0000
  C   C1053     1.0  0.97445  0.59523  0.28528  1.0000
  C   C1054     1.0  0.94981  0.36903  0.22661  1.0000
  H   H839      1.0  0.92899  0.65138  0.42995  1.0000
  H   H840      1.0  0.84845  0.59667  0.47652  1.0000
  C   C1055     1.0  0.74107  0.59064  0.45802  1.0000
  C   C1056     1.0  0.81764  0.66127  0.27090  1.0000
  C   C1057     1.0  0.99115  0.63491  0.25061  1.0000
  C   C1058     1.0  0.94627  0.65276  0.41904  1.0000
  H   H841      1.0  0.81354  0.66322  0.30183  1.0000
  C   C1059     1.0  0.96642  0.35972  0.28990  1.0000
  C   C1060     1.0  0.95698  0.37571  0.26411  1.0000
  H   H842      1.0  0.93527  0.33319  0.43207  1.0000
  C   C1061     1.0  0.96866  0.33686  0.27834  1.0000
  H   H843      1.0  0.94659  0.34114  0.18574  1.0000
  C   C1062     1.0  0.81100  0.33089  0.19727  1.0000
  H   H844      1.0  0.81925  0.56601  0.98983  1.0000
  Fe  Fe73      1.0  0.92095  0.37876  0.75498  1.0000
  S   S145      1.0  0.92184  0.37871  0.68902  1.0000
  S   S146      1.0  0.95196  0.37528  0.79309  1.0000
  Fe  Fe74      1.0  0.86973  0.38340  0.75892  1.0000
  S   S147      1.0  0.86613  0.38413  0.69257  1.0000
  S   S148      1.0  0.83874  0.38718  0.79866  1.0000
  Fe  Fe75      1.0  0.89182  0.35565  0.69251  1.0000
  H   H845      1.0  0.76644  0.65460  0.49757  1.0000
  Fe  Fe76      1.0  0.89640  0.40724  0.69400  1.0000
  S   S149      1.0  0.90483  0.43740  0.65578  1.0000
  S   S150      1.0  0.89304  0.35314  0.75884  1.0000
  S   S151      1.0  0.89789  0.40904  0.75992  1.0000
  Fe  Fe77      1.0  0.87513  0.56124  0.69100  1.0000
  S   S152      1.0  0.89557  0.55609  0.74546  1.0000
  S   S153      1.0  0.85364  0.53225  0.66912  1.0000
  Fe  Fe78      1.0  0.88565  0.61197  0.68867  1.0000
  S   S154      1.0  0.90579  0.61069  0.74528  1.0000
  S   S155      1.0  0.88028  0.64526  0.65623  1.0000
  Fe  Fe79      1.0  0.92105  0.57930  0.71757  1.0000
  S   S156      1.0  0.95761  0.56839  0.70975  1.0000
  Fe  Fe80      1.0  0.87802  0.58757  0.76833  1.0000
  S   S157      1.0  0.85710  0.57914  0.82318  1.0000
  S   S158      1.0  0.90202  0.58154  0.66037  1.0000
  S   S159      1.0  0.85681  0.59201  0.71405  1.0000
  H   H846      1.0  0.70822  0.62300  0.85339  1.0000
  C   C1063     1.0  0.73571  0.65039  0.71179  1.0000
  C   C1064     1.0  0.98929  0.43513  0.58051  1.0000
  H   H847      1.0  0.97277  0.47367  0.66916  1.0000
  C   C1065     1.0  0.88500  0.62725  0.58112  1.0000
  C   C1066     1.0  0.88552  0.62895  0.53978  1.0000
  H   H848      1.0  0.88684  0.61083  0.59501  1.0000
  H   H849      1.0  0.88796  0.61379  0.52209  1.0000
  C   C1067     1.0  0.84764  0.59405  0.86556  1.0000
  C   C1068     1.0  0.82918  0.58526  0.88686  1.0000
  C   C1069     1.0  0.82136  0.59595  0.92151  1.0000
  C   C1070     1.0  0.83229  0.61530  0.93574  1.0000
  C   C1071     1.0  0.85067  0.62421  0.91430  1.0000
  C   C1072     1.0  0.85831  0.61368  0.87926  1.0000
  H   H850      1.0  0.82079  0.57011  0.87638  1.0000
  H   H851      1.0  0.80686  0.58926  0.93717  1.0000
  H   H852      1.0  0.85921  0.63919  0.92514  1.0000
  H   H853      1.0  0.87268  0.62047  0.86334  1.0000
  H   H854      1.0  0.70082  0.33962  0.85529  1.0000
  C   C1073     1.0  0.78442  0.37359  0.60894  1.0000
  H   H855      1.0  0.81419  0.34048  0.71641  1.0000
  H   H856      1.0  0.96316  0.60992  0.75674  1.0000
  H   H857      1.0  0.94992  0.57287  0.60371  1.0000
  H   H858      1.0  0.89311  0.39621  0.84100  1.0000
  H   H859      1.0  0.95600  0.61512  0.66880  1.0000
  C   C1074     1.0  0.83658  0.36173  0.92696  1.0000
  C   C1075     1.0  0.85498  0.35589  0.90236  1.0000
  C   C1076     1.0  0.85581  0.36339  0.86290  1.0000
  C   C1077     1.0  0.83844  0.37720  0.84795  1.0000
  C   C1078     1.0  0.82014  0.38313  0.87262  1.0000
  C   C1079     1.0  0.81910  0.37527  0.91175  1.0000
  P   P37       1.0  0.75062  0.33755  0.85606  1.0000
  H   H860      1.0  0.86995  0.35857  0.84419  1.0000
  H   H861      1.0  0.80670  0.39394  0.86150  1.0000
  H   H862      1.0  0.80485  0.37987  0.93023  1.0000
  C   C1080     1.0  0.89064  0.46361  0.66236  1.0000
  C   C1081     1.0  0.86823  0.46472  0.67599  1.0000
  C   C1082     1.0  0.85681  0.48582  0.67755  1.0000
  C   C1083     1.0  0.86809  0.50593  0.66733  1.0000
  C   C1084     1.0  0.89062  0.50482  0.65455  1.0000
  C   C1085     1.0  0.90173  0.48367  0.65138  1.0000
  H   H863      1.0  0.85950  0.44928  0.68406  1.0000
  H   H864      1.0  0.83926  0.48656  0.68689  1.0000
  H   H865      1.0  0.89923  0.52025  0.64607  1.0000
  H   H866      1.0  0.91897  0.48283  0.64041  1.0000
  C   C1086     1.0  0.97588  0.38854  0.77261  1.0000
  C   C1087     1.0  0.97373  0.40310  0.74025  1.0000
  H   H867      1.0  0.87568  0.64466  0.79734  1.0000
  H   H868      1.0  0.95715  0.40698  0.72840  1.0000
  C   C1088     1.0  0.79832  0.64812  0.84752  1.0000
  C   C1089     1.0  0.91744  0.55691  0.86048  1.0000
  H   H869      1.0  0.72328  0.40893  0.96072  1.0000
  H   H870      1.0  0.92717  0.57210  0.85444  1.0000
  C   C1090     1.0  0.97703  0.63460  0.56567  1.0000
  H   H871      1.0  0.83798  0.62789  0.80844  1.0000
  H   H872      1.0  0.74788  0.41748  0.90343  1.0000
  H   H873      1.0  0.67252  0.64853  0.96948  1.0000
  C   C1091     1.0  0.71688  0.64740  0.89809  1.0000
  H   H874      1.0  0.95277  0.43764  0.65836  1.0000
  H   H875      1.0  0.75222  0.61958  0.73041  1.0000
  C   C1092     1.0  0.96111  0.55827  0.60657  1.0000
  H   H876      1.0  0.79062  0.61489  0.68932  1.0000
  H   H877      1.0  0.80793  0.59001  0.80510  1.0000
  H   H878      1.0  0.93383  0.53426  0.60952  1.0000
  H   H879      1.0  0.95879  0.50113  0.61823  1.0000
  C   C1093     1.0  0.97970  0.60355  0.74810  1.0000
  C   C1094     1.0  0.74201  0.40027  0.90798  1.0000
  C   C1095     1.0  0.88269  0.65009  0.52120  1.0000
  C   C1096     1.0  0.75593  0.34825  0.80681  1.0000
  C   C1097     1.0  0.88162  0.34366  0.58554  1.0000
  C   C1098     1.0  0.86157  0.64961  0.77877  1.0000
  C   C1099     1.0  0.98151  0.58393  0.72490  1.0000
  H   H880      1.0  0.84111  0.38399  0.61222  1.0000
  H   H881      1.0  0.92780  0.49485  0.98346  1.0000
  C   C1100     1.0  0.78451  0.35105  0.62219  1.0000
  H   H882      1.0  0.82772  0.56031  0.57353  1.0000
  C   C1101     1.0  0.72434  0.65258  0.82848  1.0000
  H   H883      1.0  0.73260  0.34975  0.71485  1.0000
  C   C1102     1.0  0.90982  0.49191  0.97965  1.0000
  H   H884      1.0  0.84532  0.48194  0.96707  1.0000
  C   C1103     1.0  0.95399  0.63012  0.57200  1.0000
  H   H885      1.0  0.79588  0.37744  0.75453  1.0000
  H   H886      1.0  0.76859  0.38181  0.60097  1.0000
  C   C1104     1.0  0.80504  0.34032  0.63229  1.0000
  C   C1105     1.0  0.82557  0.66086  0.72880  1.0000
  H   H887      1.0  0.99055  0.50733  0.76348  1.0000
  C   C1106     1.0  0.71576  0.63940  0.85935  1.0000
  H   H888      1.0  0.73468  0.59031  0.52060  1.0000
  H   H889      1.0  0.80479  0.40289  0.59492  1.0000
  C   C1107     1.0  0.74149  0.36042  0.88849  1.0000
  C   C1108     1.0  0.82675  0.57871  0.57172  1.0000
  C   C1109     1.0  0.82188  0.64619  0.76080  1.0000
  H   H890      1.0  0.92854  0.62036  0.61451  1.0000
  C   C1110     1.0  0.76723  0.61653  0.87656  1.0000
  C   C1111     1.0  0.78034  0.36822  0.76047  1.0000
  H   H891      1.0  0.71028  0.36941  0.97224  1.0000
  H   H892      1.0  0.84054  0.33779  0.77245  1.0000
  H   H893      1.0  0.72334  0.64642  0.79847  1.0000
  H   H894      1.0  0.72463  0.33563  0.78182  1.0000
  C   C1112     1.0  0.75323  0.63796  0.72958  1.0000
  C   C1113     1.0  0.97387  0.33823  0.69243  1.0000
  C   C1114     1.0  0.72798  0.39550  0.94019  1.0000
  C   C1115     1.0  0.88164  0.64673  0.60422  1.0000
  H   H895      1.0  0.76822  0.37067  0.70083  1.0000
  P   P38       1.0  0.86808  0.43736  0.96152  1.0000
  H   H896      1.0  0.75528  0.60426  0.88807  1.0000
  C   C1116     1.0  0.76477  0.36440  0.73028  1.0000
  C   C1117     1.0  0.74879  0.38284  0.88224  1.0000
  C   C1118     1.0  0.88259  0.41483  0.89269  1.0000
  H   H897      1.0  0.85176  0.46048  0.89079  1.0000
  H   H898      1.0  0.98273  0.63916  0.53640  1.0000
  H   H899      1.0  0.78830  0.36327  0.82143  1.0000
  C   C1119     1.0  0.90735  0.41142  0.94922  1.0000
  C   C1120     1.0  0.84047  0.43882  0.93860  1.0000
  C   C1121     1.0  0.81615  0.45365  0.88670  1.0000
  H   H900      1.0  0.75993  0.38697  0.85797  1.0000
  C   C1122     1.0  0.82528  0.62622  0.56692  1.0000
  H   H901      1.0  0.96061  0.34782  0.67784  1.0000
  C   C1123     1.0  0.89864  0.55805  0.88562  1.0000
  H   H902      1.0  0.86709  0.42046  0.87879  1.0000
  S   S160      1.0  0.83610  0.35197  0.97644  1.0000
  H   H903      1.0  0.76356  0.60564  0.81646  1.0000
  C   C1124     1.0  0.77595  0.36021  0.79851  1.0000
  C   C1125     1.0  0.80033  0.42979  0.93783  1.0000
  C   C1126     1.0  0.84019  0.64017  0.78504  1.0000
  C   C1127     1.0  0.72752  0.35578  0.92119  1.0000
  C   C1128     1.0  0.77176  0.64927  0.74636  1.0000
  C   C1129     1.0  0.79754  0.44272  0.90362  1.0000
  H   H904      1.0  0.77049  0.60956  0.53743  1.0000
  H   H905      1.0  0.88243  0.35968  0.60120  1.0000
  H   H906      1.0  0.81486  0.55201  0.77723  1.0000
  H   H907      1.0  0.92815  0.38109  0.87118  1.0000
  C   C1130     1.0  0.97750  0.46315  0.64414  1.0000
  C   C1131     1.0  0.83752  0.45180  0.90417  1.0000
  C   C1132     1.0  0.95206  0.53649  0.61013  1.0000
  C   C1133     1.0  0.96185  0.62081  0.64010  1.0000
  C   C1134     1.0  0.87141  0.50645  0.97637  1.0000
  H   H908      1.0  0.84147  0.34440  0.63620  1.0000
  C   C1135     1.0  0.74472  0.35266  0.73824  1.0000
  H   H909      1.0  0.72152  0.64157  0.69867  1.0000
  C   C1136     1.0  0.83341  0.59185  0.60392  1.0000
  C   C1137     1.0  0.77808  0.63137  0.90244  1.0000
  H   H910      1.0  0.83967  0.58361  0.63039  1.0000
  C   C1138     1.0  0.85086  0.49012  0.77426  1.0000
  C   C1139     1.0  0.84420  0.46758  0.77978  1.0000
  C   C1140     1.0  0.85900  0.45209  0.79763  1.0000
  C   C1141     1.0  0.88059  0.45901  0.80945  1.0000
  C   C1142     1.0  0.88762  0.48151  0.80318  1.0000
  C   C1143     1.0  0.87243  0.49706  0.78595  1.0000
  P   P39       1.0  0.91508  0.49124  0.81955  1.0000
  C   C1144     1.0  0.90989  0.51695  0.84768  1.0000
  C   C1145     1.0  0.92947  0.46980  0.84828  1.0000
  C   C1146     1.0  0.93533  0.47382  0.88771  1.0000
  C   C1147     1.0  0.94857  0.45794  0.90825  1.0000
  C   C1148     1.0  0.95603  0.43804  0.88948  1.0000
  C   C1149     1.0  0.95028  0.43399  0.85020  1.0000
  C   C1150     1.0  0.93716  0.44982  0.82959  1.0000
  C   C1151     1.0  0.92304  0.53650  0.84145  1.0000
  C   C1152     1.0  0.78788  0.63293  0.82137  1.0000
  C   C1153     1.0  0.89123  0.51815  0.87357  1.0000
  C   C1154     1.0  0.93421  0.49754  0.77934  1.0000
  C   C1155     1.0  0.95768  0.49844  0.78661  1.0000
  C   C1156     1.0  0.97262  0.50584  0.75733  1.0000
  C   C1157     1.0  0.96428  0.51245  0.72068  1.0000
  C   C1158     1.0  0.94109  0.51113  0.71290  1.0000
  C   C1159     1.0  0.92606  0.50351  0.74195  1.0000
  H   H911      1.0  0.83955  0.50220  0.76012  1.0000
  H   H912      1.0  0.82768  0.46205  0.76989  1.0000
  H   H913      1.0  0.85381  0.43459  0.80183  1.0000
  H   H914      1.0  0.89161  0.44669  0.82332  1.0000
  H   H915      1.0  0.87722  0.51463  0.78154  1.0000
  H   H916      1.0  0.93024  0.48944  0.90221  1.0000
  H   H917      1.0  0.96642  0.42579  0.90517  1.0000
  H   H918      1.0  0.95619  0.41864  0.83549  1.0000
  H   H919      1.0  0.93334  0.44666  0.79878  1.0000
  H   H920      1.0  0.93711  0.53645  0.82085  1.0000
  H   H921      1.0  0.88056  0.50346  0.87817  1.0000
  H   H922      1.0  0.96441  0.49426  0.81537  1.0000
  H   H923      1.0  0.82541  0.64460  0.56563  1.0000
  H   H924      1.0  0.97566  0.51954  0.69889  1.0000
  H   H925      1.0  0.93465  0.51704  0.68491  1.0000
  H   H926      1.0  0.90814  0.50309  0.73539  1.0000
  C   C1160     1.0  0.98481  0.62548  0.63397  1.0000
  P   P40       1.0  0.79453  0.63347  0.76929  1.0000
  C   C1161     1.0  0.79476  0.60106  0.70912  1.0000
  C   C1162     1.0  0.82527  0.37486  0.61527  1.0000
  H   H927      1.0  0.78095  0.44425  0.89027  1.0000
  H   H928      1.0  0.72229  0.33856  0.92766  1.0000
  H   H929      1.0  0.96287  0.41293  0.60184  1.0000
  C   C1163     1.0  0.89732  0.40087  0.87096  1.0000
  C   C1164     1.0  0.79369  0.64706  0.88793  1.0000
  C   C1165     1.0  0.79709  0.60498  0.74980  1.0000
  H   H930      1.0  0.87400  0.35920  0.52945  1.0000
  C   C1166     1.0  0.96641  0.51769  0.61542  1.0000
  H   H931      1.0  0.77479  0.63040  0.93391  1.0000
  H   H932      1.0  0.87038  0.53998  0.91019  1.0000
  C   C1167     1.0  0.88553  0.53870  0.89211  1.0000
  H   H933      1.0  0.83789  0.62570  0.62658  1.0000
  C   C1168     1.0  0.81857  0.61314  0.53431  1.0000
  H   H934      1.0  0.80915  0.54486  0.70583  1.0000
  C   C1169     1.0  0.82541  0.35242  0.62882  1.0000
  C   C1170     1.0  0.77201  0.61735  0.83610  1.0000
  H   H935      1.0  0.93700  0.39019  0.94091  1.0000
  C   C1171     1.0  0.83239  0.61556  0.60170  1.0000
  H   H936      1.0  0.89368  0.57416  0.89877  1.0000
  H   H937      1.0  0.81402  0.46358  0.86006  1.0000
  C   C1172     1.0  0.92195  0.39734  0.92738  1.0000
  C   C1173     1.0  0.96611  0.44269  0.63814  1.0000
  C   C1174     1.0  0.81916  0.58927  0.53718  1.0000
  C   C1175     1.0  0.80479  0.38548  0.60546  1.0000
  H   H938      1.0  0.71025  0.63725  0.92221  1.0000
  C   C1176     1.0  0.88758  0.42046  0.93199  1.0000
  C   C1177     1.0  0.99312  0.41270  0.72308  1.0000
  C   C1178     1.0  0.91696  0.39212  0.88819  1.0000
  C   C1179     1.0  0.94639  0.62352  0.60935  1.0000
  H   H939      1.0  0.81401  0.57883  0.51248  1.0000
  H   H940      1.0  0.79700  0.57632  0.66210  1.0000
  C   C1180     1.0  0.74027  0.34464  0.77635  1.0000
  H   H941      1.0  0.86413  0.39014  0.98546  1.0000
  H   H942      1.0  0.95341  0.46122  0.93847  1.0000
  C   C1181     1.0  0.97195  0.42869  0.60636  1.0000
  C   C1182     1.0  0.72067  0.37326  0.94669  1.0000
  C   C1183     1.0  0.79853  0.57929  0.69352  1.0000
  C   C1184     1.0  0.80534  0.56150  0.71817  1.0000
  C   C1185     1.0  0.80841  0.56546  0.75843  1.0000
  C   C1186     1.0  0.80441  0.58711  0.77418  1.0000
  C   C1187     1.0  0.87691  0.34335  0.54488  1.0000
  H   H943      1.0  0.76860  0.34210  0.62425  1.0000
  C   C1188     1.0  0.82169  0.42778  0.95530  1.0000
  H   H944      1.0  0.94192  0.63188  0.54811  1.0000
  H   H945      1.0  0.85955  0.52061  0.97763  1.0000
  H   H946      1.0  0.86859  0.34543  0.91382  1.0000
  H   H947      1.0  0.78591  0.42121  0.95089  1.0000
  H   H948      1.0  0.99147  0.42381  0.69794  1.0000
  H   H949      1.0  0.80277  0.65787  0.90833  1.0000
  C   C1189     1.0  0.99474  0.46995  0.61804  1.0000
  C   C1190     1.0  0.74634  0.59522  0.49738  1.0000
  H   H950      1.0  0.81041  0.66050  0.83706  1.0000
  C   C1191     1.0  0.80318  0.65646  0.49720  1.0000
  C   C1192     1.0  0.99244  0.63338  0.59710  1.0000
  H   H951      1.0  0.91122  0.41479  0.97985  1.0000
  C   C1193     1.0  0.76666  0.60608  0.50680  1.0000
  H   H952      1.0  0.91388  0.45589  0.97242  1.0000
  C   C1194     1.0  0.99005  0.52058  0.61757  1.0000
  C   C1195     1.0  0.98457  0.56125  0.60738  1.0000
  H   H953      1.0  0.85728  0.58206  0.97551  1.0000
  C   C1196     1.0  0.86342  0.48444  0.96992  1.0000
  H   H954      1.0  0.82331  0.41759  0.98173  1.0000
  C   C1197     1.0  0.87864  0.46596  0.96770  1.0000
  H   H955      1.0  0.76578  0.47263  0.97831  1.0000
  H   H956      1.0  0.99158  0.57816  0.60476  1.0000
  H   H957      1.0  0.99377  0.42426  0.55584  1.0000
  S   S161      1.0  0.82396  0.62853  0.98050  1.0000
  C   C1198     1.0  0.90188  0.46984  0.97307  1.0000
  C   C1199     1.0  0.99412  0.34885  0.70267  1.0000
  C   C1200     1.0  0.89461  0.51022  0.98103  1.0000
  H   H958      1.0  0.90078  0.52735  0.98556  1.0000
  P   P41       1.0  0.80810  0.62636  0.48963  1.0000
  Fe  Fe81      1.0  0.61646  0.89269  0.27877  1.0000
  S   S162      1.0  0.62470  0.91100  0.22204  1.0000
  S   S163      1.0  0.64072  0.90010  0.32952  1.0000
  Fe  Fe82      1.0  0.57321  0.87249  0.24338  1.0000
  S   S164      1.0  0.57845  0.88928  0.18476  1.0000
  S   S165      1.0  0.54339  0.84857  0.24848  1.0000
  Fe  Fe83      1.0  0.61478  0.87859  0.19119  1.0000
  S   S166      1.0  0.63698  0.86259  0.14327  1.0000
  Fe  Fe84      1.0  0.58764  0.92002  0.22070  1.0000
  S   S167      1.0  0.57045  0.95369  0.20719  1.0000
  S   S168      1.0  0.60918  0.85967  0.24797  1.0000
  S   S169      1.0  0.57983  0.90392  0.27920  1.0000
  Fe  Fe85      1.0  0.87692  0.68404  0.43547  1.0000
  S   S170      1.0  0.88424  0.71953  0.45627  1.0000
  Fe  Fe86      1.0  0.86476  0.69859  0.35051  1.0000
  S   S171      1.0  0.87206  0.73544  0.36576  1.0000
  C   C1201     1.0  0.82246  0.79194  0.48364  1.0000
  Fe  Fe87      1.0  0.90345  0.72260  0.39838  1.0000
  S   S172      1.0  0.93922  0.73894  0.39254  1.0000
  Fe  Fe88      1.0  0.85244  0.72980  0.42282  1.0000
  S   S173      1.0  0.82027  0.74897  0.44674  1.0000
  S   S174      1.0  0.89714  0.68662  0.37944  1.0000
  S   S175      1.0  0.84411  0.69343  0.40570  1.0000
  C   C1202     1.0  0.62869  0.76893  0.31959  1.0000
  H   H959      1.0  0.59723  0.77993  0.40211  1.0000
  H   H960      1.0  0.58877  0.89308  0.03998  1.0000
  H   H961      1.0  0.65538  0.83383  0.20283  1.0000
  H   H962      1.0  0.55559  0.73342  0.21154  1.0000
  H   H963      1.0  0.61641  0.82536  0.30929  1.0000
  C   C1203     1.0  0.52870  0.98487  0.05436  1.0000
  C   C1204     1.0  0.60127  0.72118  0.13078  1.0000
  C   C1205     1.0  0.94459  0.69741  0.31250  1.0000
  H   H964      1.0  0.49758  0.77450  0.00421  1.0000
  C   C1206     1.0  0.78518  0.77579  0.47719  1.0000
  C   C1207     1.0  0.50749  0.94362  0.07161  1.0000
  H   H965      1.0  0.80371  0.89220  0.29630  1.0000
  H   H966      1.0  0.62540  0.75209  0.03327  1.0000
  C   C1208     1.0  0.50543  0.98445  0.06240  1.0000
  H   H967      1.0  0.63664  0.75055  0.22665  1.0000
  H   H968      1.0  0.62746  0.94754  0.36013  1.0000
  C   C1209     1.0  0.96979  0.73592  0.39367  1.0000
  C   C1210     1.0  0.65252  0.77349  0.05169  1.0000
  H   H969      1.0  0.95233  0.70314  0.33956  1.0000
  H   H970      1.0  0.97437  0.77054  0.37510  1.0000
  H   H971      1.0  0.97173  0.70111  0.41269  1.0000
  C   C1211     1.0  0.64751  0.88322  0.37125  1.0000
  C   C1212     1.0  0.63794  0.86185  0.37790  1.0000
  C   C1213     1.0  0.64422  0.84906  0.41141  1.0000
  C   C1214     1.0  0.65984  0.85769  0.43885  1.0000
  C   C1215     1.0  0.66924  0.87912  0.43225  1.0000
  C   C1216     1.0  0.66329  0.89165  0.39844  1.0000
  H   H972      1.0  0.62574  0.85525  0.35723  1.0000
  H   H973      1.0  0.63684  0.83251  0.41628  1.0000
  H   H974      1.0  0.68114  0.88607  0.45319  1.0000
  H   H975      1.0  0.67080  0.90809  0.39342  1.0000
  C   C1217     1.0  0.60868  0.83383  0.02748  1.0000
  C   C1218     1.0  0.63173  0.83161  0.03637  1.0000
  C   C1219     1.0  0.64010  0.84004  0.07240  1.0000
  C   C1220     1.0  0.62549  0.85060  0.09987  1.0000
  C   C1221     1.0  0.60235  0.85221  0.09140  1.0000
  C   C1222     1.0  0.59409  0.84409  0.05519  1.0000
  C   C1223     1.0  0.52326  0.86350  0.14914  1.0000
  H   H976      1.0  0.65805  0.83886  0.07863  1.0000
  H   H977      1.0  0.59096  0.86038  0.11221  1.0000
  H   H978      1.0  0.57637  0.84616  0.04827  1.0000
  H   H979      1.0  0.70546  0.72216  0.00930  1.0000
  C   C1224     1.0  0.58646  0.97894  0.20802  1.0000
  C   C1225     1.0  0.61016  0.97846  0.21019  1.0000
  H   H980      1.0  0.54529  0.95148  0.29220  1.0000
  H   H981      1.0  0.61903  0.96240  0.21287  1.0000
  H   H982      1.0  0.75066  0.74809  0.01545  1.0000
  C   C1226     1.0  0.51670  0.86184  0.25555  1.0000
  H   H983      1.0  0.63779  0.75497  0.30594  1.0000
  C   C1227     1.0  0.98145  0.71576  0.40394  1.0000
  H   H984      1.0  0.63199  0.68743  0.02225  1.0000
  C   C1228     1.0  0.98286  0.75483  0.38303  1.0000
  C   C1229     1.0  0.60366  0.93768  0.11985  1.0000
  C   C1230     1.0  0.52187  0.88654  0.15903  1.0000
  C   C1231     1.0  0.52827  0.90309  0.13171  1.0000
  C   C1232     1.0  0.53549  0.89666  0.09378  1.0000
  H   H985      1.0  0.53238  0.83908  0.10451  1.0000
  P   P42       1.0  0.54684  0.91768  0.06073  1.0000
  C   C1233     1.0  0.63415  0.94352  0.42207  1.0000
  C   C1234     1.0  0.57593  0.92092  0.07589  1.0000
  C   C1235     1.0  0.58146  0.93648  0.10572  1.0000
  C   C1236     1.0  0.69831  0.70611  0.00018  1.0000
  C   C1237     1.0  0.76835  0.91254  0.46880  1.0000
  C   C1238     1.0  0.61502  0.90743  0.07547  1.0000
  C   C1239     1.0  0.59281  0.90613  0.06132  1.0000
  H   H986      1.0  0.64324  0.82437  0.01479  1.0000
  H   H987      1.0  0.56898  0.81378  0.19610  1.0000
  H   H988      1.0  0.74592  0.92697  0.34479  1.0000
  C   C1240     1.0  0.69293  0.73759  0.22738  1.0000
  C   C1241     1.0  0.58644  0.72224  0.03937  1.0000
  C   C1242     1.0  0.91458  0.70125  0.26448  1.0000
  H   H989      1.0  0.89927  0.70975  0.25439  1.0000
  H   H990      1.0  0.57953  0.73424  0.06055  1.0000
  C   C1243     1.0  0.70939  0.68554  0.01078  1.0000
  C   C1244     1.0  0.92304  0.68226  0.24428  1.0000
  C   C1245     1.0  0.63812  0.75484  0.05550  1.0000
  C   C1246     1.0  0.66083  0.68831  0.08694  1.0000
  H   H991      1.0  0.51682  0.89159  0.18852  1.0000
  H   H992      1.0  0.52837  0.92078  0.14079  1.0000
  H   H993      1.0  0.63744  0.92352  0.11684  1.0000
  C   C1247     1.0  0.54138  0.96466  0.05476  1.0000
  C   C1248     1.0  0.75555  0.73330  0.99821  1.0000
  C   C1249     1.0  0.76602  0.93519  0.48172  1.0000
  C   C1250     1.0  0.64116  0.95415  0.45679  1.0000
  C   C1251     1.0  0.53073  0.85696  0.11165  1.0000
  H   H994      1.0  0.71943  0.76019  0.24603  1.0000
  C   C1252     1.0  0.68644  0.77605  0.25098  1.0000
  C   C1253     1.0  0.53687  0.87347  0.08404  1.0000
  H   H995      1.0  0.69052  0.98864  0.44841  1.0000
  H   H996      1.0  0.68774  0.94441  0.44681  1.0000
  H   H997      1.0  0.61521  0.67601  0.14518  1.0000
  H   H998      1.0  0.75960  0.94824  0.46215  1.0000
  H   H999      1.0  0.69086  0.66725  0.08220  1.0000
  H   H1000     1.0  0.49704  0.98882  0.14813  1.0000
  C   C1254     1.0  0.77445  0.69676  0.99345  1.0000
  C   C1255     1.0  0.61597  0.69611  0.01781  1.0000
  H   H1001     1.0  0.56855  0.94723  0.11915  1.0000
  H   H1002     1.0  0.84062  0.79101  0.47912  1.0000
  H   H1003     1.0  0.60770  0.94946  0.14333  1.0000
  C   C1256     1.0  0.69815  0.94929  0.38626  1.0000
  C   C1257     1.0  0.66937  0.77737  0.07971  1.0000
  C   C1258     1.0  0.63176  0.79656  0.17733  1.0000
  C   C1259     1.0  0.65468  0.75284  0.23085  1.0000
  C   C1260     1.0  0.67209  0.76231  0.11125  1.0000
  C   C1261     1.0  0.53302  0.82104  0.01594  1.0000
  C   C1262     1.0  0.92548  0.70893  0.29839  1.0000
  C   C1263     1.0  0.62042  0.92311  0.10487  1.0000
  H   H1004     1.0  0.51916  0.85069  0.17094  1.0000
  H   H1005     1.0  0.91424  0.67617  0.21839  1.0000
  H   H1006     1.0  0.72035  0.92047  0.46383  1.0000
  H   H1007     1.0  0.55933  0.96522  0.04777  1.0000
  S   S176      1.0  0.66750  0.84121  0.48066  1.0000
  H   H1008     1.0  0.73124  0.99430  0.45831  1.0000
  S   S177      1.0  0.85762  0.68586  0.28660  1.0000
  H   H1009     1.0  0.66035  0.73173  0.13894  1.0000
  C   C1264     1.0  0.56548  0.71191  0.16277  1.0000
  C   C1265     1.0  0.60408  0.73917  0.15761  1.0000
  H   H1010     1.0  0.57928  0.69365  0.11316  1.0000
  H   H1011     1.0  0.98698  0.71253  0.30461  1.0000
  H   H1012     1.0  0.54845  0.81733  0.03206  1.0000
  C   C1266     1.0  0.51553  0.96584  0.26506  1.0000
  C   C1267     1.0  0.60704  0.71080  0.04672  1.0000
  C   C1268     1.0  0.71908  0.92714  0.43412  1.0000
  H   H1013     1.0  0.54329  0.86810  0.05557  1.0000
  C   C1269     1.0  0.63278  0.95594  0.38707  1.0000
  C   C1270     1.0  0.63842  0.97903  0.38665  1.0000
  H   H1014     1.0  0.68534  0.76515  0.13272  1.0000
  H   H1015     1.0  0.85794  0.67498  0.20353  1.0000
  H   H1016     1.0  0.78447  0.68332  0.00677  1.0000
  H   H1017     1.0  0.83348  0.92021  0.31302  1.0000
  C   C1271     1.0  0.95337  0.67842  0.29236  1.0000
  H   H1018     1.0  0.83112  0.94177  0.37591  1.0000
  C   C1272     1.0  0.51183  0.81604  0.03243  1.0000
  H   H1019     1.0  0.65077  0.78468  0.02652  1.0000
  C   C1273     1.0  0.73342  0.93074  0.36735  1.0000
  H   H1020     1.0  0.59665  0.81840  0.37212  1.0000
  C   C1274     1.0  0.61671  0.80841  0.32171  1.0000
  C   C1275     1.0  0.51516  0.88429  0.26902  1.0000
  P   P43       1.0  0.62203  0.71557  0.09244  1.0000
  C   C1276     1.0  0.78469  0.89784  0.34988  1.0000
  C   C1277     1.0  0.56838  0.72991  0.18921  1.0000
  C   C1278     1.0  0.53090  0.94393  0.06374  1.0000
  H   H1021     1.0  0.66567  0.81724  0.32562  1.0000
  C   C1279     1.0  0.62385  0.79911  0.21628  1.0000
  C   C1280     1.0  0.52426  0.89774  0.99768  1.0000
  P   P44       1.0  0.64351  0.79648  0.25696  1.0000
  C   C1281     1.0  0.60584  0.78286  0.37428  1.0000
  C   C1282     1.0  0.61742  0.76508  0.35537  1.0000
  C   C1283     1.0  0.76977  0.85827  0.41844  1.0000
  C   C1284     1.0  0.67219  0.85885  0.23769  1.0000
  C   C1285     1.0  0.59438  0.80565  0.15224  1.0000
  C   C1286     1.0  0.58638  0.80838  0.19081  1.0000
  C   C1287     1.0  0.75270  0.87503  0.41628  1.0000
  C   C1288     1.0  0.73003  0.86827  0.41180  1.0000
  C   C1289     1.0  0.72444  0.84518  0.41166  1.0000
  C   C1290     1.0  0.74149  0.82866  0.41501  1.0000
  C   C1291     1.0  0.76416  0.83520  0.41798  1.0000
  H   H1022     1.0  0.59436  0.80775  0.25214  1.0000
  C   C1292     1.0  0.71457  0.94420  0.35766  1.0000
  C   C1293     1.0  0.54410  0.90871  0.01005  1.0000
  H   H1023     1.0  0.77180  0.88559  0.34210  1.0000
  H   H1024     1.0  0.71650  0.88071  0.40973  1.0000
  H   H1025     1.0  0.70680  0.84017  0.41003  1.0000
  H   H1026     1.0  0.73714  0.81080  0.41576  1.0000
  H   H1027     1.0  0.77738  0.82240  0.42097  1.0000
  H   H1028     1.0  0.67338  0.87080  0.21343  1.0000
  H   H1029     1.0  0.71257  0.95058  0.32789  1.0000
  C   C1294     1.0  0.63935  0.69104  0.10454  1.0000
  C   C1295     1.0  0.67817  0.84950  0.30634  1.0000
  C   C1296     1.0  0.66178  0.83782  0.23181  1.0000
  C   C1297     1.0  0.83778  0.67064  0.25615  1.0000
  C   C1298     1.0  0.81813  0.92953  0.36861  1.0000
  C   C1299     1.0  0.63165  0.67451  0.13124  1.0000
  C   C1300     1.0  0.64690  0.97720  0.45648  1.0000
  H   H1030     1.0  0.52486  0.97073  0.23880  1.0000
  H   H1031     1.0  0.49891  0.92777  0.07778  1.0000
  H   H1032     1.0  0.61781  0.74833  0.36865  1.0000
  C   C1301     1.0  0.52723  0.95485  0.29538  1.0000
  H   H1033     1.0  0.77369  0.71733  0.04601  1.0000
  H   H1034     1.0  0.57590  0.92326  0.99054  1.0000
  C   C1302     1.0  0.80014  0.92580  0.39480  1.0000
  H   H1035     1.0  0.68349  0.95954  0.37865  1.0000
  H   H1036     1.0  0.68410  0.85429  0.33541  1.0000
  H   H1037     1.0  0.72494  0.68597  0.02760  1.0000
  C   C1303     1.0  0.70133  0.75815  0.24180  1.0000
  C   C1304     1.0  0.58185  0.70755  0.13368  1.0000
  C   C1305     1.0  0.64567  0.98984  0.42136  1.0000
  C   C1306     1.0  0.58767  0.74349  0.18665  1.0000
  H   H1038     1.0  0.68044  0.79192  0.07665  1.0000
  H   H1039     1.0  0.78741  0.86301  0.42155  1.0000
  C   C1307     1.0  0.65788  0.74345  0.11476  1.0000
  C   C1308     1.0  0.94243  0.67092  0.25797  1.0000
  H   H1040     1.0  0.68743  0.88143  0.27995  1.0000
  H   H1041     1.0  0.53038  0.89368  0.27556  1.0000
  C   C1309     1.0  0.70047  0.94079  0.42451  1.0000
  C   C1310     1.0  0.60548  0.80451  0.35742  1.0000
  C   C1311     1.0  0.62837  0.79067  0.30238  1.0000
  C   C1312     1.0  0.78342  0.90972  0.38582  1.0000
  H   H1042     1.0  0.69334  0.79179  0.26223  1.0000
  H   H1043     1.0  0.51077  0.89416  0.01853  1.0000
  C   C1313     1.0  0.60098  0.80502  0.22272  1.0000
  C   C1314     1.0  0.65885  0.82275  0.26346  1.0000
  C   C1315     1.0  0.66299  0.77351  0.24558  1.0000
  C   C1316     1.0  0.66755  0.82856  0.30066  1.0000
  H   H1044     1.0  0.58977  0.75757  0.20694  1.0000
  C   C1317     1.0  0.80270  0.90161  0.32377  1.0000
  H   H1045     1.0  0.64946  0.79283  0.17145  1.0000
  H   H1046     1.0  0.66310  0.71888  0.21119  1.0000
  C   C1318     1.0  0.66960  0.73491  0.22206  1.0000
  C   C1319     1.0  0.64063  0.73971  0.08710  1.0000
  H   H1047     1.0  0.58321  0.80882  0.12752  1.0000
  H   H1048     1.0  0.61866  0.75012  0.15594  1.0000
  H   H1049     1.0  0.55046  0.70144  0.16462  1.0000
  H   H1050     1.0  0.55917  0.72782  0.99798  1.0000
  P   P45       1.0  0.76001  0.90485  0.41916  1.0000
  C   C1320     1.0  0.68018  0.86478  0.27502  1.0000
  C   C1321     1.0  0.61704  0.79965  0.14551  1.0000
  H   H1051     1.0  0.70452  0.72371  0.22050  1.0000
  C   C1322     1.0  0.84252  0.66786  0.21554  1.0000
  H   H1052     1.0  0.79946  0.93535  0.42209  1.0000
  C   C1323     1.0  0.73586  0.92222  0.40578  1.0000
  C   C1324     1.0  0.81945  0.91740  0.33317  1.0000
  H   H1053     1.0  0.91880  0.72351  0.31442  1.0000
  H   H1054     1.0  0.62337  0.79823  0.11553  1.0000
  H   H1055     1.0  0.62989  0.92559  0.42211  1.0000
  H   H1056     1.0  0.66705  0.70065  0.06584  1.0000
  H   H1057     1.0  0.62789  0.89566  0.06481  1.0000
  C   C1325     1.0  0.67436  0.66940  0.09599  1.0000
  H   H1058     1.0  0.51107  0.80828  0.06136  1.0000
  C   C1326     1.0  0.76846  0.71598  0.01547  1.0000
  H   H1059     1.0  0.52468  0.93892  0.35234  1.0000
  C   C1327     1.0  0.51563  0.94782  0.32920  1.0000
  H   H1060     1.0  0.63706  0.98820  0.35912  1.0000
  C   C1328     1.0  0.80884  0.77398  0.47076  1.0000
  C   C1329     1.0  0.57482  0.71867  0.00400  1.0000
  H   H1061     1.0  0.49778  0.83253  0.23672  1.0000
  H   H1062     1.0  0.77435  0.76216  0.46735  1.0000
  C   C1330     1.0  0.49672  0.84992  0.24704  1.0000
  C   C1331     1.0  0.70016  0.66451  0.00009  1.0000
  H   H1063     1.0  0.65249  0.98514  0.48361  1.0000
  H   H1064     1.0  0.64244  0.94441  0.48386  1.0000
  C   C1332     1.0  0.52351  0.89381  0.75350  1.0000
  Fe  Fe89      1.0  0.69229  0.85548  0.52581  1.0000
  H   H1065     1.0  0.66729  0.73600  0.86751  1.0000
  Fe  Fe90      1.0  0.70494  0.85723  0.61369  1.0000
  S   S178      1.0  0.73656  0.87776  0.59956  1.0000
  S   S179      1.0  0.69661  0.84977  0.67959  1.0000
  Fe  Fe91      1.0  0.71457  0.89883  0.55857  1.0000
  S   S180      1.0  0.70990  0.93749  0.54490  1.0000
  Fe  Fe92      1.0  0.74221  0.85288  0.54881  1.0000
  S   S181      1.0  0.77774  0.83827  0.53220  1.0000
  S   S182      1.0  0.68284  0.87947  0.57512  1.0000
  S   S183      1.0  0.71208  0.83165  0.56538  1.0000
  Fe  Fe93      1.0  0.62597  0.77991  0.85939  1.0000
  S   S184      1.0  0.61765  0.74364  0.87667  1.0000
  S   S185      1.0  0.63956  0.78399  0.79526  1.0000
  Fe  Fe94      1.0  0.60997  0.79735  0.94121  1.0000
  H   H1066     1.0  0.65369  0.68473  0.94968  1.0000
  Fe  Fe95      1.0  0.63493  0.75124  0.93455  1.0000
  H   H1067     1.0  0.88175  0.67141  0.74175  1.0000
  Fe  Fe96      1.0  0.58501  0.75777  0.90361  1.0000
  S   S186      1.0  0.54991  0.74040  0.89831  1.0000
  S   S187      1.0  0.64416  0.78715  0.91650  1.0000
  S   S188      1.0  0.59224  0.79317  0.88263  1.0000
  C   C1333     1.0  0.52077  0.74995  0.89833  1.0000
  C   C1334     1.0  0.75450  0.68553  0.72862  1.0000
  C   C1335     1.0  0.51435  0.77266  0.90504  1.0000
  H   H1068     1.0  0.50798  0.71641  0.88607  1.0000
  H   H1069     1.0  0.52727  0.78519  0.91075  1.0000
  C   C1336     1.0  0.68104  0.83077  0.71101  1.0000
  C   C1337     1.0  0.66795  0.81284  0.69645  1.0000
  C   C1338     1.0  0.65543  0.79887  0.72258  1.0000
  C   C1339     1.0  0.65585  0.80237  0.76376  1.0000
  C   C1340     1.0  0.66927  0.82003  0.77837  1.0000
  C   C1341     1.0  0.68165  0.83410  0.75222  1.0000
  H   H1070     1.0  0.66710  0.81005  0.66499  1.0000
  H   H1071     1.0  0.64519  0.78531  0.71071  1.0000
  H   H1072     1.0  0.67009  0.82294  0.80981  1.0000
  H   H1073     1.0  0.69171  0.84782  0.76403  1.0000
  C   C1342     1.0  0.71688  0.96638  0.55770  1.0000
  C   C1343     1.0  0.70557  0.98443  0.53844  1.0000
  C   C1344     1.0  0.73339  0.97194  0.58567  1.0000
  C   C1345     1.0  0.78089  0.71575  0.64168  1.0000
  H   H1074     1.0  0.74224  0.95845  0.60103  1.0000
  C   C1346     1.0  0.59288  0.85851  0.89354  1.0000
  C   C1347     1.0  0.66909  0.68515  0.96683  1.0000
  C   C1348     1.0  0.73975  0.72027  0.60146  1.0000
  C   C1349     1.0  0.54792  0.80946  0.80431  1.0000
  C   C1350     1.0  0.52162  0.89145  0.95818  1.0000
  H   H1075     1.0  0.82349  0.82494  0.51190  1.0000
  C   C1351     1.0  0.77922  0.92456  0.54671  1.0000
  S   S189      1.0  0.72262  0.87548  0.50718  1.0000
  H   H1076     1.0  0.79594  0.70205  0.89416  1.0000
  C   C1352     1.0  0.76780  0.73555  0.64614  1.0000
  H   H1077     1.0  0.79698  0.71412  0.65680  1.0000
  C   C1353     1.0  0.54317  0.90038  0.77329  1.0000
  H   H1078     1.0  0.87708  0.68594  0.53015  1.0000
  H   H1079     1.0  0.87611  0.68301  0.60325  1.0000
  H   H1080     1.0  0.53671  0.89109  0.90018  1.0000
  C   C1354     1.0  0.52096  0.87125  0.74130  1.0000
  H   H1081     1.0  0.67648  0.75041  0.76871  1.0000
  C   C1355     1.0  0.57439  0.77186  0.78236  1.0000
  C   C1356     1.0  0.55360  0.76864  0.80142  1.0000
  H   H1082     1.0  0.64562  0.83948  0.86847  1.0000
  C   C1357     1.0  0.73406  0.67374  0.83637  1.0000
  C   C1358     1.0  0.56859  0.81282  0.78443  1.0000
  C   C1359     1.0  0.58185  0.79385  0.77387  1.0000
  P   P46       1.0  0.57981  0.84113  0.77891  1.0000
  C   C1360     1.0  0.55752  0.86156  0.76983  1.0000
  C   C1361     1.0  0.59410  0.84684  0.82476  1.0000
  C   C1362     1.0  0.62797  0.84434  0.86519  1.0000
  C   C1363     1.0  0.77680  0.89616  0.49511  1.0000
  H   H1083     1.0  0.77556  0.77461  0.59812  1.0000
  H   H1084     1.0  0.85005  0.68117  0.69734  1.0000
  C   C1364     1.0  0.73865  0.99501  0.59364  1.0000
  C   C1365     1.0  0.56020  0.88435  0.78123  1.0000
  H   H1085     1.0  0.53595  0.83791  0.73868  1.0000
  C   C1366     1.0  0.53798  0.85521  0.74910  1.0000
  C   C1367     1.0  0.59861  0.84346  0.73686  1.0000
  C   C1368     1.0  0.59443  0.83093  0.70237  1.0000
  C   C1369     1.0  0.60867  0.83318  0.66947  1.0000
  C   C1370     1.0  0.62697  0.84815  0.67059  1.0000
  C   C1371     1.0  0.63096  0.86101  0.70448  1.0000
  C   C1372     1.0  0.61671  0.85890  0.73734  1.0000
  H   H1086     1.0  0.54801  0.75162  0.80887  1.0000
  C   C1373     1.0  0.68886  0.78201  0.52072  1.0000
  C   C1374     1.0  0.55831  0.90742  0.94265  1.0000
  H   H1087     1.0  0.59827  0.79602  0.76006  1.0000
  C   C1375     1.0  0.74875  0.73149  0.95884  1.0000
  C   C1376     1.0  0.84697  0.67037  0.72268  1.0000
  C   C1377     1.0  0.61703  0.84091  0.82921  1.0000
  H   H1088     1.0  0.66231  0.79172  0.56119  1.0000
  H   H1089     1.0  0.62631  0.83315  0.80511  1.0000
  H   H1090     1.0  0.57557  0.88978  0.79582  1.0000
  C   C1378     1.0  0.87872  0.66786  0.58561  1.0000
  C   C1379     1.0  0.81829  0.69471  0.50266  1.0000
  H   H1091     1.0  0.58021  0.81942  0.70086  1.0000
  H   H1092     1.0  0.60560  0.82327  0.64310  1.0000
  H   H1093     1.0  0.63829  0.84966  0.64541  1.0000
  H   H1094     1.0  0.64538  0.87238  0.70533  1.0000
  H   H1095     1.0  0.61996  0.86927  0.76306  1.0000
  H   H1096     1.0  0.71185  0.77276  0.77279  1.0000
  H   H1097     1.0  0.75491  0.70395  0.72835  1.0000
  H   H1098     1.0  0.72662  0.67466  0.93602  1.0000
  H   H1099     1.0  0.71835  0.78678  0.85080  1.0000
  C   C1380     1.0  0.75468  0.71217  0.93647  1.0000
  C   C1381     1.0  0.75278  0.70041  0.59732  1.0000
  P   P47       1.0  0.74656  0.70981  0.88516  1.0000
  C   C1382     1.0  0.77345  0.69824  0.61710  1.0000
  C   C1383     1.0  0.72473  0.73064  0.87456  1.0000
  C   C1384     1.0  0.70173  0.72460  0.87544  1.0000
  H   H1100     1.0  0.73858  0.74505  0.94640  1.0000
  H   H1101     1.0  0.67796  0.77544  0.85006  1.0000
  C   C1385     1.0  0.73642  0.67415  0.71108  1.0000
  C   C1386     1.0  0.73063  0.75326  0.86607  1.0000
  C   C1387     1.0  0.54029  0.78743  0.81208  1.0000
  H   H1102     1.0  0.82832  0.70835  0.84988  1.0000
  C   C1388     1.0  0.51472  0.83387  0.95619  1.0000
  C   C1389     1.0  0.77069  0.71451  0.85295  1.0000
  C   C1390     1.0  0.79280  0.70902  0.86523  1.0000
  C   C1391     1.0  0.81263  0.81126  0.50232  1.0000
  H   H1103     1.0  0.78466  0.84351  0.63546  1.0000
  C   C1392     1.0  0.61593  0.85326  0.89729  1.0000
  C   C1393     1.0  0.76748  0.72348  0.81491  1.0000
  H   H1104     1.0  0.74030  0.68384  0.81212  1.0000
  H   H1105     1.0  0.50623  0.88306  0.94889  1.0000
  H   H1106     1.0  0.61155  0.68170  0.95986  1.0000
  H   H1107     1.0  0.68864  0.73874  0.64536  1.0000
  H   H1108     1.0  0.69655  0.70762  0.88374  1.0000
  H   H1109     1.0  0.78798  0.88914  0.55419  1.0000
  C   C1394     1.0  0.69101  0.76300  0.85697  1.0000
  H   H1110     1.0  0.74820  0.75850  0.86662  1.0000
  H   H1111     1.0  0.57512  0.70188  0.94754  1.0000
  H   H1112     1.0  0.51038  0.90626  0.74715  1.0000
  H   H1113     1.0  0.76069  0.69609  0.50372  1.0000
  H   H1114     1.0  0.83270  0.70611  0.50270  1.0000
  C   C1395     1.0  0.80799  0.72189  0.80265  1.0000
  C   C1396     1.0  0.87926  0.66957  0.54422  1.0000
  C   C1397     1.0  0.73526  0.68188  0.87524  1.0000
  C   C1398     1.0  0.78209  0.90213  0.53391  1.0000
  H   H1115     1.0  0.74073  0.76157  0.54671  1.0000
  H   H1116     1.0  0.57148  0.91128  0.92132  1.0000
  C   C1399     1.0  0.67802  0.70614  0.97826  1.0000
  H   H1117     1.0  0.79868  0.80925  0.60033  1.0000
  C   C1400     1.0  0.77197  0.67314  0.74665  1.0000
  C   C1401     1.0  0.68500  0.74071  0.86637  1.0000
  H   H1118     1.0  0.58342  0.86429  0.91917  1.0000
  H   H1119     1.0  0.74699  0.68679  0.57840  1.0000
  H   H1120     1.0  0.58507  0.75734  0.77516  1.0000
  H   H1121     1.0  0.77379  0.74900  0.66527  1.0000
  S   S190      1.0  0.60179  0.76238  0.96270  1.0000
  C   C1402     1.0  0.86495  0.66478  0.74767  1.0000
  H   H1122     1.0  0.78569  0.68212  0.76079  1.0000
  H   H1123     1.0  0.66507  0.73326  0.70511  1.0000
  H   H1124     1.0  0.73596  0.77793  0.71410  1.0000
  H   H1125     1.0  0.75060  0.72756  0.80442  1.0000
  C   C1403     1.0  0.56088  0.91398  0.98206  1.0000
  H   H1126     1.0  0.72380  0.72171  0.58586  1.0000
  H   H1127     1.0  0.51591  0.84008  0.92621  1.0000
  C   C1404     1.0  0.78608  0.72743  0.79013  1.0000
  C   C1405     1.0  0.81131  0.71260  0.84010  1.0000
  C   C1406     1.0  0.58193  0.85525  0.85744  1.0000
  H   H1128     1.0  0.68400  0.78113  0.62049  1.0000
  H   H1129     1.0  0.53787  0.82378  0.81452  1.0000
  C   C1407     1.0  0.53873  0.89608  0.93074  1.0000
  C   C1408     1.0  0.78900  0.81315  0.50852  1.0000
  H   H1130     1.0  0.62425  0.85530  0.92554  1.0000
  H   H1131     1.0  0.72350  0.80872  0.66634  1.0000
  H   H1132     1.0  0.74702  0.84307  0.66864  1.0000
  C   C1409     1.0  0.71380  0.76934  0.85723  1.0000
  H   H1133     1.0  0.82243  0.72487  0.78345  1.0000
  H   H1134     1.0  0.69251  0.98047  0.51736  1.0000
  H   H1135     1.0  0.76885  0.95847  0.53055  1.0000
  H   H1136     1.0  0.78279  0.92906  0.57704  1.0000
  H   H1137     1.0  0.78354  0.73480  0.76119  1.0000
  H   H1138     1.0  0.56392  0.85866  0.85535  1.0000
  H   H1139     1.0  0.67963  0.78786  0.49496  1.0000
  C   C1410     1.0  0.71094  0.77346  0.51675  1.0000
  C   C1411     1.0  0.78277  0.80862  0.61645  1.0000
  C   C1412     1.0  0.77480  0.82802  0.63606  1.0000
  C   C1413     1.0  0.75359  0.82780  0.65457  1.0000
  C   C1414     1.0  0.74035  0.80819  0.65348  1.0000
  C   C1415     1.0  0.74854  0.78838  0.63498  1.0000
  C   C1416     1.0  0.76957  0.78898  0.61534  1.0000
  P   P48       1.0  0.73061  0.76376  0.63100  1.0000
  C   C1417     1.0  0.71373  0.75931  0.67492  1.0000
  C   C1418     1.0  0.71352  0.76920  0.58795  1.0000
  C   C1419     1.0  0.72328  0.76718  0.55022  1.0000
  H   H1140     1.0  0.54535  0.91796  0.78205  1.0000
  H   H1141     1.0  0.52432  0.78485  0.82731  1.0000
  C   C1420     1.0  0.67906  0.78417  0.55816  1.0000
  C   C1421     1.0  0.69140  0.77801  0.59172  1.0000
  C   C1422     1.0  0.72054  0.76818  0.71149  1.0000
  C   C1423     1.0  0.70712  0.76496  0.74511  1.0000
  C   C1424     1.0  0.68719  0.75233  0.74281  1.0000
  C   C1425     1.0  0.68070  0.74278  0.70686  1.0000
  C   C1426     1.0  0.69399  0.74611  0.67306  1.0000
  C   C1427     1.0  0.74738  0.73815  0.62536  1.0000
  H   H1142     1.0  0.72287  0.68377  0.69722  1.0000
  C   C1428     1.0  0.60441  0.69279  0.98231  1.0000
  H   H1143     1.0  0.77174  0.67948  0.93813  1.0000
  C   C1429     1.0  0.50343  0.73403  0.89124  1.0000
  C   C1430     1.0  0.77138  0.94112  0.52051  1.0000
  S   S191      1.0  0.66443  0.73279  0.96696  1.0000
  C   C1431     1.0  0.76740  0.69475  0.95432  1.0000
  H   H1144     1.0  0.78379  0.68307  0.61314  1.0000
  C   C1432     1.0  0.77534  0.79515  0.49584  1.0000
  C   C1433     1.0  0.67990  0.66458  0.97809  1.0000
  H   H1145     1.0  0.83884  0.66473  0.49595  1.0000
  C   C1434     1.0  0.53446  0.82994  0.97784  1.0000
  H   H1146     1.0  0.50587  0.86622  0.72544  1.0000
  C   C1435     1.0  0.78108  0.66550  0.49955  1.0000
  C   C1436     1.0  0.82172  0.67127  0.49872  1.0000
  S   S192      1.0  0.59774  0.82644  0.98068  1.0000
  H   H1147     1.0  0.55090  0.83329  0.96474  1.0000
  C   C1437     1.0  0.79630  0.70361  0.50474  1.0000
  H   H1148     1.0  0.79379  0.72189  0.50644  1.0000
  C   C1438     1.0  0.77770  0.68902  0.50317  1.0000
  C   C1439     1.0  0.58386  0.70406  0.97540  1.0000
  H   H1149     1.0  0.75719  0.79628  0.50012  1.0000
  C   C1440     1.0  0.72642  0.66861  0.90595  1.0000
  H   H1150     1.0  0.81225  0.66451  0.70789  1.0000
  H   H1151     1.0  0.77884  0.87864  0.48634  1.0000
  H   H1152     1.0  0.71879  0.77253  0.48782  1.0000
