data_image0
_chemical_formula_structural       H2SCHSFeSFeSC2SHCFeSFeSC2HFeCHC6H5C2H2SH4CH2CH2FeHC2HCH4C2H3CH2CHCH3C2HSC3PC5HC14H3CFeHC2HCPCHC3H3C2HC2HC3H5FeSCHSFeHFeSHSFeSCSFeSFeHSCHC2HC6HCH5C2SCH3C2FeHC2H3CH2CHC3PC2H2CHCHCHCH3CH3C3H2CHCHCH2C3H5C4SHCHC3H2C2SHC6PC4SHC12H6CHCH3C2H3C2H2CH2C3HCSCHCSFeSHFeSFeS2HSFeSCFeCFeS2CHS2HCPC2H3CHC4HC4HCHPC3SH2C4HC3H4C2H2CH2C2HCSHC2H2C3H2C4H2PH2SC3H2CH2CHCHC4HCH3C4HC4HC4H3FeCH2CH4C2HC5H3C2HCH3C2HC2HC2HC2HCHCHFeSFeS2CFeCS2FeHFeHSCHS2C4SC4HC2HCH2CHC2HCHFeSHPH2C4SCHC5H2CH2C3H4CH2C2HC5H3CHCHC2H2C3HC2H5SCH2PSC4H2CH2CHFeCH2C2HC3H2CHC3H2CHC2HC2HCH3CSC2HFeHSCSHFeC3SFeS2FeS2FeCFeS3CHSCFeC4HC3FeCHCPH3CFeCHC11H5CPC2HCH3C2H3SC3H2C6H7CH2CH2C3HCH2C5HCH2CH2C2HCSHSH7CH2CPC2HC5H2C4HCH3CH5CHC2H3C6PC7HC4H2C2H10CH2SCH3C2H3C4H3S2C8HCHC4H2C7PC18H12CHCH2CHCH2SCH4FeH2C3H2C3HPCPCHC6HCH3CHCHC2HCH2C2HCHC2HC3HC7SH2CHC2H4CHSHCH2C2H2SCSH2C4SHCFeSHCFeSHC2SH4SC2HFeHCH3SHSC2FeSCSHFeHFeS2FeS2FeSFeCS2H2CHCHCH2CH5CHC2HC3H2FeC2FeC7H6SFeH3C4H5CH8C2HCHC5H2CHSC2HCHC6PC6HC9H8PC2H7PHC4HCSCFeHC2H5C4HSCSCH2PC6PC18H17C4HC2H3CHC2HCHCH2C5FeC2SCHPCHC7HCHCHCHCH2C2SCH2CH2C2HCSCHCHC2HC2H2C4H2CH4C2PC2H3CSHC2SC2SCH2PHC7HCH2C2HC3SCHC8H3PCH4C4HCHCHCHC2HFeCSH2C2SHFe2S2FeS2FeSFeS3C2SHSCHFeSH7C6H4C3H2CH2C3HCHC2HCHC4HC4SCH2CHC2HCH2C4H2C6PC14H15C3PC6HCHC7H6PHSH7C3PC2HC9H10C4HC4HCHC3HCH2C9HC3PH2CHCH2CH2C5SHC2HSHCH2C2H2CH5C4H3CH2C2HC5HCH3CFeC2H2C2HCSC2H4CHCHC2HC6H6C3HCFePH3C3HC2H2C7HCHCHCHCHCH4C2HSH3C2SCFeC2Fe2HSHFeCSCS2FeS2FeSHFeCFeS3CHCSHC2HC3HFeHCHCHSCHCH2C8H5CHCHCHC2H8C2H3C2S2CHCHC5PC18H7CH3SC5PC3HCHC12SH4SC3H13FeCSHCHC2HCSC2FeH2CH3CH5CH2C2H2C7H5CH2C2HC6H5C2H2CHC2HPC2HSHCSCHCSH2CHCH3C3FeC2HCH2CFeHCHC2HCH2PS2H3CHC2FeC3FePC2HCHCSC4HCSC5HC4HCH2C2H2CHC3H2CPC2H2CH2CHC2H3CSC2HC2HC4H2CH3CHC5H3SHFeC6HCSCH3C2H3C2H2Fe2HCSH2SCSH2CFeS2FeS2FeS2Fe3S3H2C2H2C7HC4HCHCSHC2H2C7H4C2HC3H2SC4HSHC2H4SH5CSH2CH2C3SH2SCHC2H4C2H4C2H5C8PC2HCHC2H3C6H3CH3CHC3SH5C2HC2HC2PC11HCSC2H10C2HC6PC13HSHFeSH8CH8CHCHCH3C2HCHC4HC2H2C3HCH2CHPS2C5HPC2HFeC3H5C8H2C2FeH2C6H2C2H2C6H2C4HC2HC2SHFeCPSC2Fe3SHSFeS2FeSHFeSFeS3C2HCHC6HCH3CHC4H2SC6H4SCHC3HC5HC2H2CHSHC7H3C2HC2H7C2HCHCHCHC8PC15H11CH4C6PC18H6CH13C6PC8H2CHCHC2H10CH2C2H2CHC3FeCH3C2SC2SCHC3HC2H4C3HC3H2SHC3HC2HSH2CH2C5HFeC3SHCHCH3FeHCHC2H2SH3CSH5CHC2HCH3PC2HC4H2SHCSC3H3C2SH2PH3CH5CPC3HCH2C2H2C2HCH3C2FeCHPSH2CFe2SHSFeS2FeS2FeSFeHS3HCH2C5H2C3HC2HC3H2CH2C8H5C4HCHC6HC2H2C2HSC3PC14H8C2H6CSPC4HC2HSHCHC2H2CHC3PC8HC12H4CHCH3C2H2C6PC3H3C12H8CH11C2HCHCH3PH7CHC3HC7H3CPHCH2CHCH8C5HC4H2C3H2C2SCSFeC3HCHCHSHC3HC2H2C2HCHC2HCH3C2H2C2HC4H2CFeC3HC3H3C2HC3HCH2CHC2H3CH3CH4CH2CHSH2C4SH2C6HCHC2HC2HFeSHCFePFeCSHCSCFeS2HFeS2FeS2FeCFeS3CHC3SC2H5CHC2H3SH2FeCHC6H4C3HCHPCSC2HC6H3C2FeHC2HFeSHCHC2PC2H2C2HCHSC9HCH2C2H2CH4SH3CHCH3C2HCSHC2H2C4H3CHC2H4C3HC2HCHC2H4C6PC7SC12H8C2S2H4CSCH3C4HCH3C2H2C7SHCFeH3C3H5C6HC3H9C6PC18H17PC6H2C2H2C4HC2SCH2C3HFeHCHC2SH6C2HC3HSCHC2H6CH4FeSFeCSFeSFeHSCFeHSFeHSC3SHC4HC2H2C4HC3H2C2H4CHCHC2SC4HCH5CHCH2C3PSH2C4H2C2HCHC2H3CHC2HC8HCHC3HCHCSHC5HC3HSC2HC2SPCH2CHC4HPC3HCH2C2PH3C2H12S2CSFeCFeSC2H3FeHSHCH2SCHC4H2C2HCHCHCHCHSCFeC2H4CHC2HPH3CH3C2PCH2C6HC4HCH2C2HCHCHCH3C2SHCH2C2HCH3C2FeCHC2HC5HCHC2HC4HC2HCHCH2CH2C3PC2HC2HCHC2S2CFeHC3H2C2HCHC4HC3SCH2SCH2FeHFeSCHCSHCHFeSC2H2CHCPCHC7H4C3H3CH2CSCSH2FeHCHCHC4H3C2H2SCH2C2H2C2HCH2SHCHC3HCSHC2H2CFeHCHFeSC2H3CH2SHC2H3C2SCHSCFeSFeH2CS2HCHCHFeSHC2H3C7H6C3HCHCH3C3HC5H2CFeC2HC2HC4H2CH6CHSC4H3CPHC2SH3C4HC2H2C2HC2H3SHC4PFeH2C2H2C2H2SCH2C2H
_chemical_formula_sum              "H1728 S288 C2160 Fe144 P72"
_cell_length_a       58.441
_cell_length_b       58.2308
_cell_length_c       64.6983
_cell_angle_alpha    90.4838
_cell_angle_beta     90.0072
_cell_angle_gamma    116.527

_space_group_name_H-M_alt    "P 1"
_space_group_IT_number       1

loop_
  _space_group_symop_operation_xyz
  'x, y, z'

loop_
  _atom_site_type_symbol
  _atom_site_label
  _atom_site_symmetry_multiplicity
  _atom_site_fract_x
  _atom_site_fract_y
  _atom_site_fract_z
  _atom_site_occupancy
  H   H1        1.0  0.49810  0.49483  0.10915  1.0000
  H   H2        1.0  0.20896  0.43099  0.05759  1.0000
  S   S1        1.0  0.45443  0.31693  0.08065  1.0000
  C   C1        1.0  0.21008  0.47922  0.99791  1.0000
  H   H3        1.0  0.24855  0.40541  0.10562  1.0000
  S   S2        1.0  0.45170  0.32779  0.03176  1.0000
  Fe  Fe1       1.0  0.44823  0.34655  0.06165  1.0000
  S   S3        1.0  0.41793  0.36030  0.07143  1.0000
  Fe  Fe2       1.0  0.46223  0.30117  0.05042  1.0000
  S   S4        1.0  0.45085  0.25786  0.04469  1.0000
  C   C2        1.0  0.31608  0.40445  0.03941  1.0000
  C   C3        1.0  0.26746  0.47444  0.08643  1.0000
  S   S5        1.0  0.31918  0.46261  0.06937  1.0000
  H   H4        1.0  0.50083  0.17613  0.09371  1.0000
  C   C4        1.0  0.32834  0.49556  0.15007  1.0000
  Fe  Fe3       1.0  0.31472  0.48322  0.04104  1.0000
  S   S6        1.0  0.28214  0.46942  0.01662  1.0000
  Fe  Fe4       1.0  0.35909  0.47178  0.05759  1.0000
  S   S7        1.0  0.38186  0.44814  0.05142  1.0000
  C   C5        1.0  0.49019  0.42004  0.02042  1.0000
  C   C6        1.0  0.25462  0.47390  0.00987  1.0000
  H   H5        1.0  0.49083  0.27216  0.17091  1.0000
  Fe  Fe5       1.0  0.49366  0.35497  0.03417  1.0000
  C   C7        1.0  0.46963  0.47461  0.06223  1.0000
  H   H6        1.0  0.27376  0.49389  0.08104  1.0000
  C   C8        1.0  0.40862  0.38521  0.06558  1.0000
  C   C9        1.0  0.39127  0.38893  0.07875  1.0000
  C   C10       1.0  0.38298  0.40796  0.07476  1.0000
  C   C11       1.0  0.39162  0.42357  0.05730  1.0000
  C   C12       1.0  0.40877  0.41969  0.04400  1.0000
  C   C13       1.0  0.41746  0.40099  0.04822  1.0000
  H   H7        1.0  0.38414  0.37693  0.09221  1.0000
  H   H8        1.0  0.36980  0.41046  0.08520  1.0000
  H   H9        1.0  0.41551  0.43137  0.03034  1.0000
  H   H10       1.0  0.43064  0.39844  0.03785  1.0000
  H   H11       1.0  0.21653  0.50100  0.02624  1.0000
  C   C14       1.0  0.45511  0.23925  0.02391  1.0000
  C   C15       1.0  0.48937  0.49103  0.04935  1.0000
  H   H12       1.0  0.17681  0.41080  0.99683  1.0000
  H   H13       1.0  0.27765  0.48598  0.11817  1.0000
  S   S8        1.0  0.48984  0.37496  0.06279  1.0000
  H   H14       1.0  0.32689  0.47976  0.14033  1.0000
  H   H15       1.0  0.32448  0.47512  0.17861  1.0000
  H   H16       1.0  0.16866  0.34795  0.10608  1.0000
  H   H17       1.0  0.26526  0.44183  0.13030  1.0000
  C   C16       1.0  0.49470  0.27222  0.18725  1.0000
  H   H18       1.0  0.25720  0.45779  0.05610  1.0000
  H   H19       1.0  0.47989  0.32882  0.13404  1.0000
  C   C17       1.0  0.49413  0.33482  0.16558  1.0000
  H   H20       1.0  0.23585  0.35026  0.05802  1.0000
  H   H21       1.0  0.39433  0.19053  0.02233  1.0000
  Fe  Fe6       1.0  0.33748  0.50207  0.08498  1.0000
  H   H22       1.0  0.19744  0.38878  0.08946  1.0000
  C   C18       1.0  0.45512  0.41444  0.99778  1.0000
  C   C19       1.0  0.49576  0.49382  0.09250  1.0000
  H   H23       1.0  0.45180  0.46053  0.05567  1.0000
  C   C20       1.0  0.47266  0.47625  0.08370  1.0000
  H   H24       1.0  0.44587  0.20620  0.04309  1.0000
  H   H25       1.0  0.26873  0.41762  0.02153  1.0000
  H   H26       1.0  0.44843  0.17816  0.01480  1.0000
  H   H27       1.0  0.45708  0.46359  0.09344  1.0000
  C   C21       1.0  0.45074  0.21374  0.02763  1.0000
  C   C22       1.0  0.49654  0.33803  0.14393  1.0000
  H   H28       1.0  0.31776  0.39033  0.06966  1.0000
  H   H29       1.0  0.17352  0.30841  0.09894  1.0000
  H   H30       1.0  0.47046  0.28000  0.23314  1.0000
  C   C23       1.0  0.45212  0.19769  0.01154  1.0000
  H   H31       1.0  0.48502  0.38379  0.12664  1.0000
  H   H32       1.0  0.39879  0.23478  0.02131  1.0000
  C   C24       1.0  0.39283  0.19865  0.00768  1.0000
  H   H33       1.0  0.47550  0.32322  0.17214  1.0000
  C   C25       1.0  0.46125  0.24847  0.00370  1.0000
  H   H34       1.0  0.18210  0.43457  0.02970  1.0000
  H   H35       1.0  0.46734  0.38515  0.00360  1.0000
  H   H36       1.0  0.20713  0.30975  0.07485  1.0000
  C   C26       1.0  0.26978  0.47001  0.10734  1.0000
  C   C27       1.0  0.19167  0.42248  0.02759  1.0000
  H   H37       1.0  0.27643  0.38838  0.08084  1.0000
  S   S9        1.0  0.35337  0.49015  0.02858  1.0000
  C   C28       1.0  0.21677  0.39181  0.02176  1.0000
  C   C29       1.0  0.22072  0.40606  0.04017  1.0000
  C   C30       1.0  0.20735  0.42076  0.04323  1.0000
  P   P1        1.0  0.23983  0.40245  0.06072  1.0000
  C   C31       1.0  0.21932  0.37271  0.07310  1.0000
  C   C32       1.0  0.26894  0.40200  0.05177  1.0000
  C   C33       1.0  0.28316  0.39454  0.06532  1.0000
  C   C34       1.0  0.30657  0.39565  0.05910  1.0000
  C   C35       1.0  0.49085  0.39909  0.11543  1.0000
  H   H38       1.0  0.25559  0.49683  0.03639  1.0000
  C   C36       1.0  0.27873  0.41091  0.03205  1.0000
  C   C37       1.0  0.19993  0.37170  0.08640  1.0000
  C   C38       1.0  0.18355  0.34860  0.09577  1.0000
  C   C39       1.0  0.18625  0.32632  0.09172  1.0000
  C   C40       1.0  0.20521  0.32709  0.07818  1.0000
  C   C41       1.0  0.22160  0.35015  0.06877  1.0000
  C   C42       1.0  0.25039  0.42872  0.07912  1.0000
  C   C43       1.0  0.25798  0.45392  0.07235  1.0000
  C   C44       1.0  0.41845  0.50183  0.99701  1.0000
  C   C45       1.0  0.47924  0.45526  0.01550  1.0000
  C   C46       1.0  0.26275  0.44507  0.11417  1.0000
  C   C47       1.0  0.25320  0.42449  0.10012  1.0000
  C   C48       1.0  0.32693  0.49297  0.17179  1.0000
  C   C49       1.0  0.47809  0.27546  0.20121  1.0000
  H   H39       1.0  0.45234  0.38910  0.10544  1.0000
  H   H40       1.0  0.49459  0.00350  0.02490  1.0000
  H   H41       1.0  0.49296  0.25388  0.10994  1.0000
  C   C50       1.0  0.20107  0.39358  0.00614  1.0000
  Fe  Fe7       1.0  0.49610  0.34504  0.08067  1.0000
  H   H42       1.0  0.30994  0.41970  0.01089  1.0000
  C   C51       1.0  0.49448  0.44517  0.02474  1.0000
  C   C52       1.0  0.18864  0.40903  0.00903  1.0000
  H   H43       1.0  0.46564  0.42269  0.07879  1.0000
  C   C53       1.0  0.48004  0.42115  0.08846  1.0000
  P   P2        1.0  0.48528  0.48783  0.02159  1.0000
  C   C54       1.0  0.47246  0.40207  0.10348  1.0000
  H   H44       1.0  0.01117  0.48959  0.99577  1.0000
  C   C55       1.0  0.24565  0.48803  0.02220  1.0000
  C   C56       1.0  0.42161  0.50047  0.01829  1.0000
  C   C57       1.0  0.48292  0.27665  0.22244  1.0000
  H   H45       1.0  0.22593  0.37944  0.01941  1.0000
  H   H46       1.0  0.46198  0.27807  0.19552  1.0000
  H   H47       1.0  0.46459  0.26789  0.00038  1.0000
  C   C58       1.0  0.39528  0.22361  0.00712  1.0000
  C   C59       1.0  0.22348  0.49045  0.01634  1.0000
  H   H48       1.0  0.33451  0.40587  0.03479  1.0000
  C   C60       1.0  0.30219  0.41214  0.02593  1.0000
  C   C61       1.0  0.44188  0.49647  0.02595  1.0000
  H   H49       1.0  0.44346  0.49520  0.04248  1.0000
  C   C62       1.0  0.45929  0.49387  0.01232  1.0000
  C   C63       1.0  0.45932  0.43961  0.00210  1.0000
  C   C64       1.0  0.47058  0.40468  0.00691  1.0000
  H   H50       1.0  0.44674  0.44643  0.99513  1.0000
  H   H51       1.0  0.50193  0.23994  0.14368  1.0000
  H   H52       1.0  0.40808  0.50208  0.02894  1.0000
  H   H53       1.0  0.50212  0.41239  0.02745  1.0000
  H   H54       1.0  0.45607  0.42887  0.32774  1.0000
  Fe  Fe8       1.0  0.46643  0.32245  0.42356  1.0000
  S   S10       1.0  0.42945  0.31025  0.44120  1.0000
  C   C65       1.0  0.48608  0.32601  0.36967  1.0000
  H   H55       1.0  0.48351  0.26593  0.48882  1.0000
  S   S11       1.0  0.46379  0.34547  0.48005  1.0000
  Fe  Fe9       1.0  0.45113  0.30464  0.46842  1.0000
  H   H56       1.0  0.44815  0.35297  0.34071  1.0000
  Fe  Fe10      1.0  0.44484  0.35186  0.45163  1.0000
  S   S12       1.0  0.42934  0.38216  0.44873  1.0000
  H   H57       1.0  0.42114  0.31002  0.39495  1.0000
  S   S13       1.0  0.48041  0.36373  0.43215  1.0000
  Fe  Fe11      1.0  0.31542  0.48009  0.42579  1.0000
  S   S14       1.0  0.29382  0.44845  0.44855  1.0000
  C   C66       1.0  0.23766  0.49810  0.45148  1.0000
  S   S15       1.0  0.33773  0.48129  0.48263  1.0000
  Fe  Fe12      1.0  0.33288  0.45198  0.45767  1.0000
  S   S16       1.0  0.33975  0.41646  0.46380  1.0000
  Fe  Fe13      1.0  0.30019  0.48008  0.47167  1.0000
  H   H58       1.0  0.48645  0.10308  0.48904  1.0000
  S   S17       1.0  0.48655  0.31414  0.44998  1.0000
  C   C67       1.0  0.21238  0.48460  0.44464  1.0000
  H   H59       1.0  0.14703  0.49650  0.49016  1.0000
  C   C68       1.0  0.45940  0.21640  0.45530  1.0000
  C   C69       1.0  0.11049  0.48320  0.43803  1.0000
  H   H60       1.0  0.38424  0.35860  0.35599  1.0000
  C   C70       1.0  0.40444  0.39158  0.45369  1.0000
  C   C71       1.0  0.38142  0.37542  0.46330  1.0000
  C   C72       1.0  0.36200  0.38338  0.46612  1.0000
  C   C73       1.0  0.36512  0.40760  0.45945  1.0000
  C   C74       1.0  0.38811  0.42376  0.44976  1.0000
  C   C75       1.0  0.40759  0.41584  0.44699  1.0000
  H   H61       1.0  0.37849  0.35669  0.46846  1.0000
  C   C76       1.0  0.46722  0.41052  0.30357  1.0000
  H   H62       1.0  0.39095  0.44245  0.44454  1.0000
  H   H63       1.0  0.42521  0.42857  0.43948  1.0000
  H   H64       1.0  0.49154  0.36240  0.38236  1.0000
  H   H65       1.0  0.07953  0.45331  0.45448  1.0000
  H   H66       1.0  0.42588  0.10768  0.45434  1.0000
  C   C77       1.0  0.11229  0.47359  0.47410  1.0000
  C   C78       1.0  0.31669  0.49644  0.37191  1.0000
  S   S18       1.0  0.47044  0.30739  0.39165  1.0000
  C   C79       1.0  0.46256  0.36798  0.31087  1.0000
  H   H67       1.0  0.41135  0.45586  0.39080  1.0000
  H   H68       1.0  0.36221  0.39941  0.39803  1.0000
  H   H69       1.0  0.38237  0.45120  0.36145  1.0000
  C   C80       1.0  0.13718  0.49338  0.47551  1.0000
  C   C81       1.0  0.41303  0.32084  0.38675  1.0000
  Fe  Fe14      1.0  0.49794  0.35492  0.45982  1.0000
  H   H70       1.0  0.31719  0.41864  0.33385  1.0000
  C   C82       1.0  0.47159  0.20093  0.45906  1.0000
  C   C83       1.0  0.41844  0.36050  0.37060  1.0000
  H   H71       1.0  0.48136  0.41773  0.43060  1.0000
  H   H72       1.0  0.47315  0.42669  0.29323  1.0000
  H   H73       1.0  0.43744  0.06013  0.42597  1.0000
  C   C84       1.0  0.28157  0.36425  0.45689  1.0000
  H   H74       1.0  0.40269  0.39618  0.33276  1.0000
  H   H75       1.0  0.39783  0.38970  0.40731  1.0000
  C   C85       1.0  0.45739  0.41159  0.32308  1.0000
  H   H76       1.0  0.22348  0.44543  0.47886  1.0000
  C   C86       1.0  0.48429  0.41836  0.41400  1.0000
  C   C87       1.0  0.49344  0.20442  0.44779  1.0000
  C   C88       1.0  0.49156  0.41954  0.37125  1.0000
  P   P3        1.0  0.43907  0.39285  0.36236  1.0000
  C   C89       1.0  0.42853  0.34646  0.38171  1.0000
  C   C90       1.0  0.45075  0.04395  0.45027  1.0000
  H   H77       1.0  0.30882  0.32119  0.41186  1.0000
  H   H78       1.0  0.28562  0.35858  0.47183  1.0000
  C   C91       1.0  0.40958  0.44285  0.37812  1.0000
  H   H79       1.0  0.48419  0.29325  0.35259  1.0000
  C   C92       1.0  0.45278  0.36897  0.33039  1.0000
  H   H80       1.0  0.24808  0.39301  0.43528  1.0000
  C   C93       1.0  0.46664  0.40729  0.37928  1.0000
  H   H81       1.0  0.17830  0.43446  0.48764  1.0000
  C   C94       1.0  0.44564  0.11626  0.45945  1.0000
  H   H82       1.0  0.35709  0.31367  0.36537  1.0000
  H   H83       1.0  0.49488  0.42031  0.35478  1.0000
  H   H84       1.0  0.45554  0.15136  0.44313  1.0000
  C   C95       1.0  0.49421  0.35253  0.36905  1.0000
  H   H85       1.0  0.30530  0.37827  0.35257  1.0000
  H   H86       1.0  0.45846  0.02468  0.47549  1.0000
  H   H87       1.0  0.44427  0.39702  0.40730  1.0000
  C   C96       1.0  0.39312  0.44011  0.36164  1.0000
  C   C97       1.0  0.42378  0.42887  0.37831  1.0000
  C   C98       1.0  0.09887  0.46861  0.45543  1.0000
  H   H88       1.0  0.44253  0.21361  0.46407  1.0000
  H   H89       1.0  0.38951  0.34651  0.41909  1.0000
  C   C99       1.0  0.39070  0.42326  0.34536  1.0000
  H   H90       1.0  0.10011  0.47922  0.42353  1.0000
  C   C100      1.0  0.46325  0.40662  0.40076  1.0000
  H   H91       1.0  0.43638  0.43152  0.39128  1.0000
  C   C101      1.0  0.44373  0.02690  0.46682  1.0000
  H   H92       1.0  0.49962  0.25601  0.41924  1.0000
  H   H93       1.0  0.44100  0.08358  0.47762  1.0000
  C   C102      1.0  0.46989  0.38875  0.29750  1.0000
  C   C103      1.0  0.40478  0.40913  0.34554  1.0000
  C   C104      1.0  0.45416  0.10261  0.47249  1.0000
  H   H94       1.0  0.17562  0.48413  0.44213  1.0000
  H   H95       1.0  0.37796  0.42124  0.33255  1.0000
  H   H96       1.0  0.37541  0.28916  0.38485  1.0000
  H   H97       1.0  0.47810  0.38808  0.28260  1.0000
  H   H98       1.0  0.34500  0.31225  0.42143  1.0000
  C   C105      1.0  0.26485  0.37538  0.45542  1.0000
  C   C106      1.0  0.42141  0.41173  0.36207  1.0000
  C   C107      1.0  0.47969  0.11358  0.47895  1.0000
  C   C108      1.0  0.44996  0.39074  0.33661  1.0000
  S   S19       1.0  0.35346  0.48119  0.43332  1.0000
  H   H99       1.0  0.34437  0.37064  0.47361  1.0000
  C   C109      1.0  0.49170  0.24037  0.43014  1.0000
  H   H100      1.0  0.28387  0.48166  0.35163  1.0000
  C   C110      1.0  0.37705  0.32284  0.36989  1.0000
  C   C111      1.0  0.48780  0.15275  0.46058  1.0000
  C   C112      1.0  0.41785  0.01285  0.47217  1.0000
  H   H101      1.0  0.44846  0.35498  0.38618  1.0000
  H   H102      1.0  0.46532  0.35141  0.30635  1.0000
  C   C113      1.0  0.39255  0.34844  0.36469  1.0000
  C   C114      1.0  0.46246  0.14114  0.45330  1.0000
  S   S20       1.0  0.43415  0.26901  0.48949  1.0000
  H   H103      1.0  0.47077  0.05491  0.44635  1.0000
  C   C115      1.0  0.27768  0.30876  0.35433  1.0000
  C   C116      1.0  0.25124  0.29888  0.35680  1.0000
  C   C117      1.0  0.24133  0.30966  0.37154  1.0000
  C   C118      1.0  0.25783  0.33029  0.38386  1.0000
  C   C119      1.0  0.28444  0.34021  0.38159  1.0000
  C   C120      1.0  0.29424  0.32937  0.36663  1.0000
  P   P4        1.0  0.30617  0.36715  0.39706  1.0000
  C   C121      1.0  0.31666  0.39660  0.38269  1.0000
  C   C122      1.0  0.29008  0.37018  0.42005  1.0000
  C   C123      1.0  0.27332  0.38149  0.41874  1.0000
  C   C124      1.0  0.26063  0.38388  0.43633  1.0000
  S   S21       1.0  0.29896  0.47838  0.39339  1.0000
  H   H104      1.0  0.46418  0.18664  0.47110  1.0000
  C   C125      1.0  0.29418  0.36166  0.43931  1.0000
  C   C126      1.0  0.32713  0.42028  0.39326  1.0000
  C   C127      1.0  0.33378  0.44307  0.38245  1.0000
  C   C128      1.0  0.33012  0.44246  0.36109  1.0000
  C   C129      1.0  0.32018  0.41904  0.35041  1.0000
  C   C130      1.0  0.31345  0.39617  0.36113  1.0000
  C   C131      1.0  0.33279  0.36089  0.40399  1.0000
  C   C132      1.0  0.35807  0.38015  0.40268  1.0000
  C   C133      1.0  0.37838  0.37475  0.40782  1.0000
  C   C134      1.0  0.37367  0.35033  0.41457  1.0000
  C   C135      1.0  0.34859  0.33107  0.41592  1.0000
  C   C136      1.0  0.32820  0.33626  0.41055  1.0000
  H   H105      1.0  0.28535  0.30045  0.34284  1.0000
  H   H106      1.0  0.23840  0.28290  0.34727  1.0000
  H   H107      1.0  0.22081  0.30203  0.37343  1.0000
  H   H108      1.0  0.24965  0.33827  0.39513  1.0000
  H   H109      1.0  0.31470  0.33693  0.36445  1.0000
  H   H110      1.0  0.27023  0.38870  0.40415  1.0000
  C   C137      1.0  0.38730  0.30904  0.38091  1.0000
  H   H111      1.0  0.20602  0.46571  0.43774  1.0000
  C   C138      1.0  0.30415  0.49419  0.35286  1.0000
  H   H112      1.0  0.30769  0.35384  0.44110  1.0000
  H   H113      1.0  0.32966  0.42113  0.40993  1.0000
  H   H114      1.0  0.34112  0.46124  0.39068  1.0000
  C   C139      1.0  0.49041  0.31375  0.35230  1.0000
  C   C140      1.0  0.43198  0.04688  0.43878  1.0000
  H   H115      1.0  0.25567  0.37801  0.46918  1.0000
  H   H116      1.0  0.33473  0.46016  0.35289  1.0000
  H   H117      1.0  0.46023  0.24848  0.43842  1.0000
  C   C141      1.0  0.40617  0.03265  0.44379  1.0000
  C   C142      1.0  0.46946  0.23615  0.44091  1.0000
  H   H118      1.0  0.39159  0.03480  0.43481  1.0000
  H   H119      1.0  0.10352  0.46199  0.48754  1.0000
  C   C143      1.0  0.39908  0.01558  0.46035  1.0000
  H   H120      1.0  0.41597  0.44269  0.48771  1.0000
  H   H121      1.0  0.25082  0.48967  0.44996  1.0000
  C   C144      1.0  0.21937  0.45673  0.49027  1.0000
  C   C145      1.0  0.19519  0.49509  0.44729  1.0000
  C   C146      1.0  0.13551  0.50285  0.43932  1.0000
  H   H122      1.0  0.37897  0.00465  0.46392  1.0000
  C   C147      1.0  0.49649  0.13838  0.47275  1.0000
  S   S22       1.0  0.27277  0.48608  0.49488  1.0000
  C   C148      1.0  0.47720  0.23189  0.50628  1.0000
  H   H123      1.0  0.46329  0.14256  0.64377  1.0000
  C   C149      1.0  0.49010  0.08814  0.68013  1.0000
  S   S23       1.0  0.45488  0.11285  0.53259  1.0000
  Fe  Fe15      1.0  0.48163  0.13828  0.58829  1.0000
  S   S24       1.0  0.44354  0.13456  0.57676  1.0000
  H   H124      1.0  0.42146  0.19237  0.52947  1.0000
  Fe  Fe16      1.0  0.43753  0.09559  0.56338  1.0000
  S   S25       1.0  0.40085  0.05682  0.56572  1.0000
  Fe  Fe17      1.0  0.46373  0.15187  0.54666  1.0000
  S   S26       1.0  0.47016  0.18848  0.52832  1.0000
  S   S27       1.0  0.47417  0.09888  0.57697  1.0000
  H   H125      1.0  0.42948  0.22405  0.73362  1.0000
  S   S28       1.0  0.10320  0.48079  0.53202  1.0000
  Fe  Fe18      1.0  0.12640  0.47485  0.58731  1.0000
  S   S29       1.0  0.10617  0.44087  0.56562  1.0000
  C   C150      1.0  0.24019  0.48521  0.61784  1.0000
  Fe  Fe19      1.0  0.13249  0.46694  0.54088  1.0000
  C   C151      1.0  0.25950  0.44675  0.59175  1.0000
  Fe  Fe20      1.0  0.07852  0.45754  0.55842  1.0000
  S   S30       1.0  0.03428  0.44300  0.55734  1.0000
  S   S31       1.0  0.09752  0.48974  0.58184  1.0000
  C   C152      1.0  0.45755  0.34417  0.53852  1.0000
  H   H126      1.0  0.47955  0.37609  0.55868  1.0000
  S   S32       1.0  0.14426  0.47150  0.61811  1.0000
  S   S33       1.0  0.15340  0.49951  0.56288  1.0000
  H   H127      1.0  0.24246  0.46832  0.54838  1.0000
  C   C153      1.0  0.38624  0.02210  0.56565  1.0000
  P   P5        1.0  0.49234  0.08688  0.70794  1.0000
  C   C154      1.0  0.46759  0.07115  0.66987  1.0000
  C   C155      1.0  0.49811  0.48737  0.52482  1.0000
  H   H128      1.0  0.49636  0.23407  0.50383  1.0000
  H   H129      1.0  0.47590  0.29962  0.52150  1.0000
  H   H130      1.0  0.20032  0.50242  0.58825  1.0000
  C   C156      1.0  0.45986  0.21083  0.51782  1.0000
  H   H131      1.0  0.48993  0.26739  0.53933  1.0000
  C   C157      1.0  0.44170  0.03364  0.51720  1.0000
  C   C158      1.0  0.18628  0.43400  0.60549  1.0000
  C   C159      1.0  0.47707  0.31645  0.52966  1.0000
  C   C160      1.0  0.42781  0.22634  0.51203  1.0000
  H   H132      1.0  0.42542  0.26726  0.66889  1.0000
  C   C161      1.0  0.43510  0.20831  0.52067  1.0000
  C   C162      1.0  0.47341  0.01012  0.70787  1.0000
  C   C163      1.0  0.47439  0.10148  0.72053  1.0000
  C   C164      1.0  0.46995  0.25004  0.49772  1.0000
  H   H133      1.0  0.01150  0.38784  0.54592  1.0000
  C   C165      1.0  0.48417  0.30138  0.74057  1.0000
  H   H134      1.0  0.48342  0.23873  0.60087  1.0000
  P   P6        1.0  0.48268  0.25819  0.72070  1.0000
  C   C166      1.0  0.48543  0.25047  0.56921  1.0000
  C   C167      1.0  0.47918  0.15569  0.67438  1.0000
  C   C168      1.0  0.48059  0.15203  0.65287  1.0000
  S   S34       1.0  0.49881  0.17284  0.71342  1.0000
  H   H135      1.0  0.12795  0.39851  0.58337  1.0000
  H   H136      1.0  0.46068  0.14911  0.68164  1.0000
  C   C169      1.0  0.15972  0.42926  0.56854  1.0000
  C   C170      1.0  0.14763  0.41294  0.58497  1.0000
  C   C171      1.0  0.19811  0.45130  0.58938  1.0000
  C   C172      1.0  0.18482  0.44840  0.57073  1.0000
  H   H137      1.0  0.45949  0.47452  0.49700  1.0000
  C   C173      1.0  0.46562  0.04484  0.73359  1.0000
  C   C174      1.0  0.47924  0.23907  0.74345  1.0000
  C   C175      1.0  0.46030  0.04623  0.53229  1.0000
  H   H138      1.0  0.42373  0.11461  0.71276  1.0000
  H   H139      1.0  0.43990  0.31048  0.51906  1.0000
  H   H140      1.0  0.46753  0.27680  0.68425  1.0000
  H   H141      1.0  0.44775  0.05969  0.64062  1.0000
  C   C176      1.0  0.23354  0.49175  0.51482  1.0000
  C   C177      1.0  0.20787  0.48534  0.52010  1.0000
  H   H142      1.0  0.28135  0.42512  0.59170  1.0000
  H   H143      1.0  0.47997  0.47531  0.53201  1.0000
  C   C178      1.0  0.27321  0.43500  0.58236  1.0000
  H   H144      1.0  0.14959  0.42714  0.55406  1.0000
  H   H145      1.0  0.19383  0.46074  0.55778  1.0000
  C   C179      1.0  0.14757  0.48962  0.64125  1.0000
  C   C180      1.0  0.44349  0.47735  0.50259  1.0000
  H   H146      1.0  0.48383  0.09185  0.62058  1.0000
  C   C181      1.0  0.43937  0.11324  0.72071  1.0000
  S   S35       1.0  0.50185  0.15704  0.55900  1.0000
  H   H147      1.0  0.49489  0.21473  0.65835  1.0000
  C   C182      1.0  0.49917  0.35300  0.55249  1.0000
  C   C183      1.0  0.50149  0.16799  0.68650  1.0000
  H   H148      1.0  0.38554  0.23609  0.68564  1.0000
  H   H149      1.0  0.46942  0.22736  0.68201  1.0000
  C   C184      1.0  0.46539  0.07235  0.64842  1.0000
  C   C185      1.0  0.40131  0.48504  0.51411  1.0000
  C   C186      1.0  0.39939  0.00723  0.56190  1.0000
  H   H150      1.0  0.49359  0.06353  0.59263  1.0000
  H   H151      1.0  0.46714  0.06661  0.53482  1.0000
  C   C187      1.0  0.45557  0.01894  0.73895  1.0000
  C   C188      1.0  0.45653  0.32251  0.52830  1.0000
  C   C189      1.0  0.25451  0.50219  0.65869  1.0000
  C   C190      1.0  0.49698  0.29209  0.72702  1.0000
  H   H152      1.0  0.38503  0.48844  0.51800  1.0000
  H   H153      1.0  0.44177  0.34906  0.53705  1.0000
  P   P7        1.0  0.23113  0.47480  0.59143  1.0000
  H   H154      1.0  0.02689  0.47340  0.51645  1.0000
  H   H155      1.0  0.15156  0.40251  0.61612  1.0000
  S   S36       1.0  0.15452  0.45545  0.51628  1.0000
  C   C191      1.0  0.27627  0.43584  0.56089  1.0000
  C   C192      1.0  0.00790  0.43904  0.60695  1.0000
  C   C193      1.0  0.26570  0.49403  0.62428  1.0000
  H   H156      1.0  0.28695  0.42684  0.55359  1.0000
  H   H157      1.0  0.28015  0.49456  0.61355  1.0000
  C   C194      1.0  0.24913  0.45977  0.57969  1.0000
  H   H158      1.0  0.48426  0.04253  0.55591  1.0000
  H   H159      1.0  0.44888  0.09642  0.69467  1.0000
  C   C195      1.0  0.40527  0.22817  0.71064  1.0000
  H   H160      1.0  0.02774  0.44756  0.60212  1.0000
  C   C196      1.0  0.45023  0.26314  0.69168  1.0000
  H   H161      1.0  0.41978  0.01684  0.55979  1.0000
  C   C197      1.0  0.35980  0.00899  0.56906  1.0000
  C   C198      1.0  0.45378  0.10290  0.71047  1.0000
  C   C199      1.0  0.22225  0.48643  0.63172  1.0000
  C   C200      1.0  0.48350  0.03601  0.70246  1.0000
  H   H162      1.0  0.34923  0.01985  0.57219  1.0000
  C   C201      1.0  0.26522  0.44800  0.54875  1.0000
  H   H163      1.0  0.45155  0.05727  0.67849  1.0000
  H   H164      1.0  0.06121  0.49727  0.54175  1.0000
  H   H165      1.0  0.47334  0.23122  0.56343  1.0000
  C   C202      1.0  0.22937  0.49464  0.65214  1.0000
  C   C203      1.0  0.16094  0.41524  0.60342  1.0000
  C   C204      1.0  0.46973  0.03254  0.54433  1.0000
  C   C205      1.0  0.40397  0.24026  0.69241  1.0000
  H   H166      1.0  0.26728  0.44846  0.53205  1.0000
  C   C206      1.0  0.42902  0.23347  0.71940  1.0000
  C   C207      1.0  0.25139  0.45957  0.55809  1.0000
  C   C208      1.0  0.42645  0.25780  0.68297  1.0000
  C   C209      1.0  0.18759  0.46456  0.51044  1.0000
  H   H167      1.0  0.19646  0.43499  0.61969  1.0000
  C   C210      1.0  0.16123  0.48660  0.65809  1.0000
  C   C211      1.0  0.46984  0.21234  0.74130  1.0000
  C   C212      1.0  0.48963  0.23435  0.68504  1.0000
  C   C213      1.0  0.45169  0.25081  0.70983  1.0000
  H   H168      1.0  0.37863  0.44969  0.49763  1.0000
  H   H169      1.0  0.38783  0.21466  0.71801  1.0000
  H   H170      1.0  0.20381  0.49653  0.53163  1.0000
  Fe  Fe21      1.0  0.49162  0.11762  0.54711  1.0000
  C   C214      1.0  0.23963  0.47743  0.50002  1.0000
  H   H171      1.0  0.40852  0.22392  0.51430  1.0000
  H   H172      1.0  0.00570  0.47491  0.60748  1.0000
  C   C215      1.0  0.49106  0.25474  0.59029  1.0000
  H   H173      1.0  0.50107  0.18140  0.49806  1.0000
  H   H174      1.0  0.25681  0.44541  0.60832  1.0000
  H   H175      1.0  0.17626  0.49916  0.68892  1.0000
  H   H176      1.0  0.46496  0.20324  0.72618  1.0000
  C   C216      1.0  0.48574  0.09030  0.63707  1.0000
  C   C217      1.0  0.44730  0.49901  0.51464  1.0000
  H   H177      1.0  0.16817  0.47225  0.65716  1.0000
  C   C218      1.0  0.41878  0.45941  0.49690  1.0000
  C   C219      1.0  0.42595  0.50280  0.52016  1.0000
  C   C220      1.0  0.47885  0.35939  0.55064  1.0000
  C   C221      1.0  0.49518  0.27102  0.55550  1.0000
  C   C222      1.0  0.49871  0.33184  0.54155  1.0000
  H   H178      1.0  0.21537  0.49507  0.66293  1.0000
  H   H179      1.0  0.20270  0.48093  0.62686  1.0000
  H   H180      1.0  0.49808  0.04862  0.50072  1.0000
  C   C223      1.0  0.47956  0.05355  0.71523  1.0000
  C   C224      1.0  0.44503  0.24728  0.50037  1.0000
  H   H181      1.0  0.49437  0.04233  0.68831  1.0000
  C   C225      1.0  0.39771  0.46330  0.50256  1.0000
  H   H182      1.0  0.43484  0.04477  0.50803  1.0000
  H   H183      1.0  0.39048  0.02352  0.51644  1.0000
  H   H184      1.0  0.00451  0.40074  0.60761  1.0000
  C   C226      1.0  0.45986  0.00597  0.54175  1.0000
  C   C227      1.0  0.03355  0.49392  0.51843  1.0000
  H   H185      1.0  0.34785  0.01664  0.52749  1.0000
  C   C228      1.0  0.43198  0.00701  0.51420  1.0000
  C   C229      1.0  0.16593  0.50194  0.67614  1.0000
  H   H186      1.0  0.50051  0.04019  0.62187  1.0000
  C   C230      1.0  0.37436  0.00534  0.51284  1.0000
  C   C231      1.0  0.27275  0.50225  0.64471  1.0000
  H   H187      1.0  0.48881  0.00328  0.50601  1.0000
  C   C232      1.0  0.50121  0.24961  0.70257  1.0000
  C   C233      1.0  0.48052  0.11083  0.74091  1.0000
  H   H188      1.0  0.00855  0.49637  0.49518  1.0000
  C   C234      1.0  0.44547  0.12230  0.74102  1.0000
  H   H189      1.0  0.46234  0.05788  0.74378  1.0000
  C   C235      1.0  0.19366  0.45051  0.49535  1.0000
  H   H190      1.0  0.40846  0.14807  0.96360  1.0000
  Fe  Fe22      1.0  0.45907  0.14896  0.95917  1.0000
  S   S37       1.0  0.45841  0.18702  0.96984  1.0000
  Fe  Fe23      1.0  0.43135  0.09007  0.94810  1.0000
  S   S38       1.0  0.46636  0.09177  0.93292  1.0000
  S   S39       1.0  0.39389  0.05218  0.94836  1.0000
  C   C236      1.0  0.36303  0.18563  0.90962  1.0000
  Fe  Fe24      1.0  0.47185  0.12889  0.91824  1.0000
  C   C237      1.0  0.04659  0.48271  0.91286  1.0000
  S   S40       1.0  0.45193  0.11276  0.97657  1.0000
  S   S41       1.0  0.43517  0.12594  0.93174  1.0000
  Fe  Fe25      1.0  0.15263  0.47575  0.96523  1.0000
  H   H191      1.0  0.48659  0.04685  0.96160  1.0000
  Fe  Fe26      1.0  0.09619  0.44821  0.94829  1.0000
  H   H192      1.0  0.18215  0.47979  0.84682  1.0000
  S   S42       1.0  0.05675  0.41260  0.94965  1.0000
  C   C238      1.0  0.48683  0.25043  0.76314  1.0000
  H   H193      1.0  0.38973  0.22912  0.95539  1.0000
  S   S43       1.0  0.13209  0.44308  0.94255  1.0000
  S   S44       1.0  0.11592  0.47848  0.97290  1.0000
  C   C239      1.0  0.45512  0.22251  0.92309  1.0000
  C   C240      1.0  0.06010  0.40088  0.87592  1.0000
  C   C241      1.0  0.48457  0.23519  0.78038  1.0000
  C   C242      1.0  0.06072  0.41291  0.89482  1.0000
  S   S45       1.0  0.18144  0.48205  0.99195  1.0000
  C   C243      1.0  0.38796  0.01919  0.95027  1.0000
  C   C244      1.0  0.22298  0.49388  0.93479  1.0000
  C   C245      1.0  0.01236  0.48663  0.85993  1.0000
  C   C246      1.0  0.49546  0.15585  0.86460  1.0000
  H   H194      1.0  0.49123  0.24403  0.79542  1.0000
  C   C247      1.0  0.40787  0.00527  0.89546  1.0000
  C   C248      1.0  0.45761  0.20671  0.99124  1.0000
  H   H195      1.0  0.42726  0.02634  0.95287  1.0000
  C   C249      1.0  0.02606  0.47258  0.86405  1.0000
  H   H196      1.0  0.45251  0.03205  0.98794  1.0000
  H   H197      1.0  0.38834  0.16558  0.99031  1.0000
  C   C250      1.0  0.45856  0.20609  0.90891  1.0000
  H   H198      1.0  0.07122  0.39030  0.87393  1.0000
  C   C251      1.0  0.46219  0.02040  0.98425  1.0000
  C   C252      1.0  0.38088  0.10847  0.96274  1.0000
  H   H199      1.0  0.21416  0.43393  0.92122  1.0000
  C   C253      1.0  0.02398  0.40715  0.95002  1.0000
  H   H200      1.0  0.35011  0.07044  0.95934  1.0000
  Fe  Fe27      1.0  0.48723  0.11570  0.96043  1.0000
  S   S46       1.0  0.48044  0.13123  0.88329  1.0000
  H   H201      1.0  0.47432  0.19707  0.79138  1.0000
  P   P8        1.0  0.38363  0.17743  0.94630  1.0000
  H   H202      1.0  0.40210  0.15293  0.91518  1.0000
  H   H203      1.0  0.44216  0.16824  0.89526  1.0000
  C   C254      1.0  0.21936  0.46553  0.98539  1.0000
  C   C255      1.0  0.40761  0.01178  0.95239  1.0000
  C   C256      1.0  0.16860  0.50288  0.82946  1.0000
  C   C257      1.0  0.32089  0.18675  0.92928  1.0000
  S   S47       1.0  0.10481  0.47658  0.92252  1.0000
  C   C258      1.0  0.48141  0.02874  0.96934  1.0000
  H   H204      1.0  0.03079  0.44358  0.96339  1.0000
  C   C259      1.0  0.39051  0.22036  0.96990  1.0000
  C   C260      1.0  0.33915  0.09940  0.94911  1.0000
  C   C261      1.0  0.34718  0.12567  0.94611  1.0000
  C   C262      1.0  0.33909  0.18294  0.94086  1.0000
  C   C263      1.0  0.03217  0.49686  0.94329  1.0000
  H   H205      1.0  0.41805  0.04401  0.90555  1.0000
  H   H206      1.0  0.01028  0.36918  0.93682  1.0000
  C   C264      1.0  0.02124  0.46589  0.90762  1.0000
  H   H207      1.0  0.49540  0.27100  0.76527  1.0000
  H   H208      1.0  0.34710  0.00507  0.94795  1.0000
  C   C265      1.0  0.26313  0.49119  0.93573  1.0000
  C   C266      1.0  0.43935  0.18108  0.90610  1.0000
  C   C267      1.0  0.45644  0.49605  0.99096  1.0000
  H   H209      1.0  0.44469  0.01228  0.75307  1.0000
  H   H210      1.0  0.18992  0.45940  0.92547  1.0000
  H   H211      1.0  0.49647  0.11019  0.74896  1.0000
  H   H212      1.0  0.46145  0.17683  0.75662  1.0000
  C   C268      1.0  0.41438  0.02446  0.85535  1.0000
  H   H213      1.0  0.49524  0.12900  0.84136  1.0000
  H   H214      1.0  0.47010  0.24183  0.92548  1.0000
  C   C269      1.0  0.05204  0.49798  0.93071  1.0000
  C   C270      1.0  0.04513  0.40248  0.85968  1.0000
  H   H215      1.0  0.43065  0.22681  0.94573  1.0000
  C   C271      1.0  0.41513  0.03132  0.89235  1.0000
  C   C272      1.0  0.50217  0.18172  0.86872  1.0000
  C   C273      1.0  0.41332  0.18863  0.93212  1.0000
  C   C274      1.0  0.46234  0.23232  0.98757  1.0000
  C   C275      1.0  0.49427  0.01405  0.96481  1.0000
  H   H216      1.0  0.46983  0.49442  0.98015  1.0000
  H   H217      1.0  0.33658  0.18032  0.95742  1.0000
  H   H218      1.0  0.20921  0.45644  0.97137  1.0000
  C   C276      1.0  0.37227  0.14355  0.95129  1.0000
  H   H219      1.0  0.33384  0.13179  0.93951  1.0000
  C   C277      1.0  0.04969  0.47950  0.85423  1.0000
  H   H220      1.0  0.31991  0.08563  0.94488  1.0000
  C   C278      1.0  0.03203  0.42900  0.88111  1.0000
  C   C279      1.0  0.34477  0.18943  0.89808  1.0000
  H   H221      1.0  0.34697  0.19194  0.88150  1.0000
  H   H222      1.0  0.39398  0.10170  0.96898  1.0000
  C   C280      1.0  0.38842  0.19534  0.97026  1.0000
  C   C281      1.0  0.15578  0.48814  0.86494  1.0000
  C   C282      1.0  0.25039  0.46534  0.92976  1.0000
  H   H223      1.0  0.04712  0.43563  0.91236  1.0000
  C   C283      1.0  0.21037  0.46822  0.92842  1.0000
  C   C284      1.0  0.38901  0.13469  0.95964  1.0000
  H   H224      1.0  0.24789  0.45173  0.98169  1.0000
  H   H225      1.0  0.43970  0.40233  0.98754  1.0000
  H   H226      1.0  0.04458  0.39306  0.84505  1.0000
  H   H227      1.0  0.42432  0.06125  0.86996  1.0000
  H   H228      1.0  0.41696  0.03200  0.83983  1.0000
  S   S48       1.0  0.49605  0.15300  0.94467  1.0000
  C   C285      1.0  0.01641  0.42515  0.95795  1.0000
  H   H229      1.0  0.46683  0.23978  0.97208  1.0000
  H   H230      1.0  0.07217  0.41148  0.90747  1.0000
  P   P9        1.0  0.01484  0.44802  0.88358  1.0000
  S   S49       1.0  0.15898  0.47197  0.88716  1.0000
  C   C286      1.0  0.39412  0.23447  0.98824  1.0000
  C   C287      1.0  0.43258  0.21388  0.93460  1.0000
  C   C288      1.0  0.04659  0.42678  0.89749  1.0000
  C   C289      1.0  0.41851  0.04096  0.87230  1.0000
  H   H231      1.0  0.06136  0.46988  0.85776  1.0000
  H   H232      1.0  0.05746  0.50280  0.99368  1.0000
  C   C290      1.0  0.46770  0.19722  0.75857  1.0000
  H   H233      1.0  0.30458  0.18719  0.93691  1.0000
  H   H234      1.0  0.37913  0.18520  0.90169  1.0000
  C   C291      1.0  0.22404  0.45390  0.92599  1.0000
  H   H235      1.0  0.30963  0.19301  0.89895  1.0000
  Fe  Fe28      1.0  0.14144  0.47366  0.91828  1.0000
  C   C292      1.0  0.35605  0.09081  0.95733  1.0000
  H   H236      1.0  0.26096  0.45419  0.92798  1.0000
  H   H237      1.0  0.12836  0.49890  0.87833  1.0000
  C   C293      1.0  0.41675  0.17241  0.91754  1.0000
  C   C294      1.0  0.36036  0.18247  0.93112  1.0000
  H   H238      1.0  0.47616  0.21266  0.90021  1.0000
  C   C295      1.0  0.43591  0.49969  0.98334  1.0000
  C   C296      1.0  0.47501  0.20862  0.77811  1.0000
  C   C297      1.0  0.32373  0.19002  0.90790  1.0000
  H   H239      1.0  0.28362  0.49983  0.93818  1.0000
  H   H240      1.0  0.06212  0.48399  0.90307  1.0000
  C   C298      1.0  0.00683  0.48037  0.93812  1.0000
  H   H241      1.0  0.19862  0.38308  0.99176  1.0000
  C   C299      1.0  0.03104  0.41639  0.86228  1.0000
  C   C300      1.0  0.38957  0.18459  0.98936  1.0000
  C   C301      1.0  0.16988  0.48923  0.84702  1.0000
  H   H242      1.0  0.47125  0.12881  0.76666  1.0000
  H   H243      1.0  0.43353  0.50092  0.96684  1.0000
  C   C302      1.0  0.50032  0.14892  0.84475  1.0000
  H   H244      1.0  0.48572  0.33426  0.75731  1.0000
  C   C303      1.0  0.00478  0.38327  0.94307  1.0000
  C   C304      1.0  0.24128  0.46275  0.99141  1.0000
  H   H245      1.0  0.43441  0.13048  0.74883  1.0000
  C   C305      1.0  0.05887  0.49940  0.83988  1.0000
  C   C306      1.0  0.13971  0.50012  0.86485  1.0000
  H   H246      1.0  0.01963  0.41762  0.84953  1.0000
  C   C307      1.0  0.46613  0.12124  0.75108  1.0000
  H   H247      1.0  0.39645  0.25399  0.98786  1.0000
  H   H248      1.0  0.49867  0.18740  0.88387  1.0000
  H   H249      1.0  0.46590  0.28841  0.74709  1.0000
  C   C308      1.0  0.49524  0.32733  0.74631  1.0000
  S   S50       1.0  0.35379  0.58226  0.22866  1.0000
  C   C309      1.0  0.21326  0.58839  0.19510  1.0000
  C   C310      1.0  0.08155  0.63761  0.16924  1.0000
  H   H250      1.0  0.31847  0.78606  0.14096  1.0000
  Fe  Fe29      1.0  0.17146  0.64959  0.21835  1.0000
  H   H251      1.0  0.45948  0.94048  0.08014  1.0000
  S   S51       1.0  0.14772  0.63629  0.18858  1.0000
  C   C311      1.0  0.42784  0.64000  0.16462  1.0000
  S   S52       1.0  0.21151  0.65352  0.21959  1.0000
  H   H252      1.0  0.40545  0.56649  0.21754  1.0000
  Fe  Fe30      1.0  0.44249  0.79816  0.21791  1.0000
  C   C312      1.0  0.48347  0.89602  0.20217  1.0000
  C   C313      1.0  0.21699  0.66380  0.02236  1.0000
  C   C314      1.0  0.40938  0.93921  0.00181  1.0000
  S   S53       1.0  0.42778  0.75579  0.21303  1.0000
  Fe  Fe31      1.0  0.13920  0.67266  0.07074  1.0000
  S   S54       1.0  0.11660  0.68713  0.05069  1.0000
  S   S55       1.0  0.15819  0.69121  0.10145  1.0000
  Fe  Fe32      1.0  0.13800  0.63464  0.03745  1.0000
  S   S56       1.0  0.11575  0.64630  0.01538  1.0000
  S   S57       1.0  0.15212  0.60483  0.03155  1.0000
  Fe  Fe33      1.0  0.14285  0.68705  0.02485  1.0000
  C   C315      1.0  0.49485  0.75946  0.07788  1.0000
  Fe  Fe34      1.0  0.09127  0.64503  0.04280  1.0000
  S   S58       1.0  0.04809  0.61638  0.04138  1.0000
  S   S59       1.0  0.16625  0.67483  0.04529  1.0000
  S   S60       1.0  0.11280  0.63126  0.06454  1.0000
  C   C316      1.0  0.46501  0.74714  0.11683  1.0000
  H   H253      1.0  0.47962  0.92411  0.03099  1.0000
  S   S61       1.0  0.39823  0.56708  0.03875  1.0000
  C   C317      1.0  0.42104  0.66296  0.06424  1.0000
  Fe  Fe35      1.0  0.48575  0.87011  0.04860  1.0000
  C   C318      1.0  0.46599  0.84075  0.15057  1.0000
  C   C319      1.0  0.44558  0.71378  0.07926  1.0000
  C   C320      1.0  0.28381  0.69877  0.23956  1.0000
  C   C321      1.0  0.47294  0.91760  0.09758  1.0000
  H   H254      1.0  0.43324  0.60215  0.06957  1.0000
  C   C322      1.0  0.43668  0.84634  0.00957  1.0000
  C   C323      1.0  0.48997  0.66892  0.05776  1.0000
  C   C324      1.0  0.46808  0.75052  0.16018  1.0000
  Fe  Fe36      1.0  0.21854  0.68453  0.24328  1.0000
  C   C325      1.0  0.14781  0.56608  0.00532  1.0000
  H   H255      1.0  0.37454  0.85409  0.00261  1.0000
  C   C326      1.0  0.27272  0.62906  0.17603  1.0000
  P   P10       1.0  0.46176  0.95377  0.00473  1.0000
  H   H256      1.0  0.29102  0.60147  0.21480  1.0000
  H   H257      1.0  0.49452  0.73714  0.02251  1.0000
  H   H258      1.0  0.47833  0.65413  0.23749  1.0000
  C   C327      1.0  0.18876  0.58703  0.19449  1.0000
  Fe  Fe37      1.0  0.36907  0.52689  0.04678  1.0000
  C   C328      1.0  0.40279  0.58342  0.16756  1.0000
  H   H259      1.0  0.21103  0.64365  0.02549  1.0000
  C   C329      1.0  0.23235  0.51945  0.22512  1.0000
  C   C330      1.0  0.25511  0.58048  0.13867  1.0000
  C   C331      1.0  0.27140  0.55244  0.15314  1.0000
  C   C332      1.0  0.07200  0.63141  0.14909  1.0000
  C   C333      1.0  0.42026  0.66806  0.08532  1.0000
  C   C334      1.0  0.15216  0.65167  0.16422  1.0000
  C   C335      1.0  0.13743  0.63754  0.14720  1.0000
  C   C336      1.0  0.13933  0.64918  0.12781  1.0000
  C   C337      1.0  0.15590  0.67523  0.12526  1.0000
  C   C338      1.0  0.17083  0.68931  0.14223  1.0000
  C   C339      1.0  0.16906  0.67761  0.16158  1.0000
  H   H260      1.0  0.12425  0.61750  0.14910  1.0000
  H   H261      1.0  0.12771  0.63812  0.11493  1.0000
  H   H262      1.0  0.18357  0.70950  0.14045  1.0000
  H   H263      1.0  0.18024  0.68881  0.17458  1.0000
  H   H264      1.0  0.06643  0.67379  0.06712  1.0000
  C   C340      1.0  0.39272  0.53820  0.17004  1.0000
  P   P11       1.0  0.46313  0.74641  0.08888  1.0000
  C   C341      1.0  0.44516  0.74572  0.15019  1.0000
  C   C342      1.0  0.25541  0.51826  0.22852  1.0000
  H   H265      1.0  0.38192  0.77628  0.09537  1.0000
  C   C343      1.0  0.48939  0.75346  0.14860  1.0000
  H   H266      1.0  0.34461  0.75576  0.01483  1.0000
  H   H267      1.0  0.41070  0.60373  0.19705  1.0000
  H   H268      1.0  0.33056  0.80920  0.10784  1.0000
  C   C344      1.0  0.33182  0.53622  0.17570  1.0000
  C   C345      1.0  0.33268  0.53861  0.15399  1.0000
  H   H269      1.0  0.33320  0.55198  0.18542  1.0000
  H   H270      1.0  0.33472  0.55631  0.14719  1.0000
  H   H271      1.0  0.37001  0.75293  0.12820  1.0000
  S   S62       1.0  0.16274  0.71536  0.99844  1.0000
  C   C346      1.0  0.33168  0.78452  0.00983  1.0000
  C   C347      1.0  0.49691  0.64895  0.02703  1.0000
  C   C348      1.0  0.45031  0.64139  0.17359  1.0000
  H   H272      1.0  0.47385  0.88462  0.21550  1.0000
  H   H273      1.0  0.22228  0.54728  0.00795  1.0000
  C   C349      1.0  0.37408  0.61070  0.15357  1.0000
  C   C350      1.0  0.36198  0.60822  0.17270  1.0000
  C   C351      1.0  0.33888  0.60974  0.17406  1.0000
  C   C352      1.0  0.32757  0.61368  0.15630  1.0000
  C   C353      1.0  0.33951  0.61635  0.13717  1.0000
  C   C354      1.0  0.36289  0.61527  0.13582  1.0000
  H   H274      1.0  0.36218  0.80431  0.08493  1.0000
  H   H275      1.0  0.37052  0.60538  0.18668  1.0000
  H   H276      1.0  0.32996  0.60788  0.18899  1.0000
  H   H277      1.0  0.30961  0.61473  0.15733  1.0000
  H   H278      1.0  0.33062  0.61920  0.12337  1.0000
  H   H279      1.0  0.37208  0.61810  0.12093  1.0000
  H   H280      1.0  0.32181  0.68058  0.19850  1.0000
  C   C355      1.0  0.29108  0.77641  0.02532  1.0000
  H   H281      1.0  0.27942  0.55653  0.10098  1.0000
  H   H282      1.0  0.27484  0.54246  0.16580  1.0000
  C   C356      1.0  0.04017  0.60832  0.18268  1.0000
  H   H283      1.0  0.10135  0.65134  0.17185  1.0000
  H   H284      1.0  0.07959  0.59474  0.13035  1.0000
  C   C357      1.0  0.44807  0.76628  0.08090  1.0000
  C   C358      1.0  0.27851  0.54820  0.13337  1.0000
  C   C359      1.0  0.03059  0.60193  0.16250  1.0000
  H   H285      1.0  0.42581  0.74059  0.12105  1.0000
  C   C360      1.0  0.48940  0.91750  0.11325  1.0000
  H   H286      1.0  0.07332  0.57757  0.01744  1.0000
  H   H287      1.0  0.39261  0.52411  0.20074  1.0000
  C   C361      1.0  0.43522  0.76219  0.06184  1.0000
  C   C362      1.0  0.42520  0.77877  0.05536  1.0000
  C   C363      1.0  0.42782  0.79951  0.06784  1.0000
  C   C364      1.0  0.44038  0.80363  0.08687  1.0000
  C   C365      1.0  0.45061  0.78726  0.09331  1.0000
  H   H288      1.0  0.31345  0.80932  0.00663  1.0000
  C   C366      1.0  0.47186  0.94036  0.09256  1.0000
  H   H289      1.0  0.49030  0.89978  0.11679  1.0000
  H   H290      1.0  0.48402  0.66434  0.19163  1.0000
  C   C367      1.0  0.05965  0.55833  0.01273  1.0000
  H   H291      1.0  0.44124  0.99167  0.00648  1.0000
  H   H292      1.0  0.19183  0.65589  0.99613  1.0000
  C   C368      1.0  0.42929  0.93963  0.01425  1.0000
  C   C369      1.0  0.06827  0.54099  0.00534  1.0000
  H   H293      1.0  0.00601  0.55341  0.13615  1.0000
  C   C370      1.0  0.42928  0.85872  0.02488  1.0000
  S   S63       1.0  0.46922  0.80068  0.24402  1.0000
  H   H294      1.0  0.40064  0.87028  0.03433  1.0000
  S   S64       1.0  0.33165  0.52251  0.11375  1.0000
  H   H295      1.0  0.43351  0.74681  0.05158  1.0000
  H   H296      1.0  0.41622  0.77614  0.04029  1.0000
  H   H297      1.0  0.42106  0.81301  0.06240  1.0000
  H   H298      1.0  0.44326  0.82025  0.09622  1.0000
  H   H299      1.0  0.46140  0.79167  0.10763  1.0000
  H   H300      1.0  0.42886  0.74406  0.15920  1.0000
  H   H301      1.0  0.26628  0.68109  0.23973  1.0000
  C   C371      1.0  0.39598  0.54071  0.19145  1.0000
  H   H302      1.0  0.28750  0.53556  0.13127  1.0000
  H   H303      1.0  0.45410  0.84431  0.01144  1.0000
  C   C372      1.0  0.03926  0.63456  0.10797  1.0000
  P   P12       1.0  0.03526  0.60478  0.11924  1.0000
  C   C373      1.0  0.29077  0.61583  0.20451  1.0000
  C   C374      1.0  0.05310  0.59093  0.10545  1.0000
  H   H304      1.0  0.47961  0.67778  0.06570  1.0000
  C   C375      1.0  0.48719  0.96305  0.10324  1.0000
  C   C376      1.0  0.08020  0.56948  0.08307  1.0000
  C   C377      1.0  0.05939  0.57132  0.07402  1.0000
  C   C378      1.0  0.04578  0.58177  0.08521  1.0000
  C   C379      1.0  0.02798  0.67001  0.10764  1.0000
  H   H305      1.0  0.45729  0.72366  0.04744  1.0000
  H   H306      1.0  0.39390  0.90798  0.05595  1.0000
  C   C380      1.0  0.23130  0.53732  0.21130  1.0000
  C   C381      1.0  0.04666  0.61293  0.14553  1.0000
  C   C382      1.0  0.00873  0.63171  0.04368  1.0000
  C   C383      1.0  0.03341  0.55095  0.01415  1.0000
  H   H307      1.0  0.29531  0.53410  0.22079  1.0000
  C   C384      1.0  0.38420  0.92791  0.00896  1.0000
  H   H308      1.0  0.41169  0.64334  0.05844  1.0000
  H   H309      1.0  0.02721  0.56467  0.02017  1.0000
  H   H310      1.0  0.41037  0.65231  0.09583  1.0000
  C   C385      1.0  0.27658  0.55313  0.20464  1.0000
  H   H311      1.0  0.49199  0.64287  0.01108  1.0000
  H   H312      1.0  0.09118  0.56205  0.07416  1.0000
  H   H313      1.0  0.05433  0.56550  0.05807  1.0000
  H   H314      1.0  0.02994  0.58343  0.07788  1.0000
  H   H315      1.0  0.46950  0.75250  0.17689  1.0000
  C   C386      1.0  0.30842  0.64140  0.20803  1.0000
  H   H316      1.0  0.38680  0.53644  0.00109  1.0000
  C   C387      1.0  0.46183  0.68474  0.18559  1.0000
  C   C388      1.0  0.32974  0.76157  0.01800  1.0000
  H   H317      1.0  0.29392  0.56581  0.19676  1.0000
  H   H318      1.0  0.48714  0.80573  0.17968  1.0000
  H   H319      1.0  0.28955  0.66972  0.17048  1.0000
  C   C389      1.0  0.20693  0.75198  0.07267  1.0000
  C   C390      1.0  0.22093  0.77737  0.07934  1.0000
  C   C391      1.0  0.24746  0.78971  0.07683  1.0000
  C   C392      1.0  0.25998  0.77667  0.06756  1.0000
  C   C393      1.0  0.24588  0.75151  0.05999  1.0000
  C   C394      1.0  0.21936  0.73915  0.06303  1.0000
  P   P13       1.0  0.26201  0.73373  0.04973  1.0000
  C   C395      1.0  0.28946  0.75385  0.03435  1.0000
  C   C396      1.0  0.26918  0.72009  0.07236  1.0000
  C   C397      1.0  0.24893  0.70187  0.08392  1.0000
  C   C398      1.0  0.25389  0.69056  0.10120  1.0000
  C   C399      1.0  0.27908  0.69768  0.10734  1.0000
  C   C400      1.0  0.29932  0.71676  0.09658  1.0000
  C   C401      1.0  0.29440  0.72821  0.07931  1.0000
  H   H320      1.0  0.45239  0.55698  0.00980  1.0000
  C   C402      1.0  0.49793  0.83302  0.13164  1.0000
  C   C403      1.0  0.30860  0.74615  0.03005  1.0000
  C   C404      1.0  0.24088  0.70881  0.03227  1.0000
  C   C405      1.0  0.23050  0.71553  0.01517  1.0000
  H   H321      1.0  0.10359  0.57682  0.11037  1.0000
  H   H322      1.0  0.43542  0.69985  0.17799  1.0000
  C   C406      1.0  0.48076  0.84370  0.13264  1.0000
  C   C407      1.0  0.23456  0.68277  0.03543  1.0000
  H   H323      1.0  0.18639  0.74211  0.07499  1.0000
  H   H324      1.0  0.21117  0.78735  0.08659  1.0000
  H   H325      1.0  0.25831  0.80934  0.08214  1.0000
  H   H326      1.0  0.28061  0.78627  0.06627  1.0000
  H   H327      1.0  0.20823  0.71948  0.05817  1.0000
  H   H328      1.0  0.22921  0.69617  0.07945  1.0000
  H   H329      1.0  0.23807  0.67632  0.10984  1.0000
  H   H330      1.0  0.28276  0.68880  0.12075  1.0000
  H   H331      1.0  0.31884  0.72283  0.10165  1.0000
  H   H332      1.0  0.31028  0.74348  0.07164  1.0000
  C   C408      1.0  0.33011  0.72092  0.23611  1.0000
  H   H333      1.0  0.28764  0.74066  0.13521  1.0000
  H   H334      1.0  0.30707  0.72814  0.03586  1.0000
  S   S65       1.0  0.49044  0.83430  0.05308  1.0000
  C   C409      1.0  0.46601  0.66349  0.23867  1.0000
  H   H335      1.0  0.07330  0.63065  0.20162  1.0000
  H   H336      1.0  0.47456  0.70175  0.19421  1.0000
  H   H337      1.0  0.24267  0.67683  0.04807  1.0000
  C   C410      1.0  0.40603  0.58570  0.18914  1.0000
  C   C411      1.0  0.46717  0.66367  0.18409  1.0000
  H   H338      1.0  0.25853  0.62485  0.16401  1.0000
  H   H339      1.0  0.45282  0.84914  0.15117  1.0000
  H   H340      1.0  0.46462  0.63457  0.09338  1.0000
  C   C412      1.0  0.42790  0.60396  0.08535  1.0000
  C   C413      1.0  0.42349  0.92818  0.03380  1.0000
  C   C414      1.0  0.02639  0.64765  0.11673  1.0000
  C   C415      1.0  0.37862  0.91681  0.02851  1.0000
  H   H341      1.0  0.15504  0.55932  0.01810  1.0000
  H   H342      1.0  0.08458  0.64073  0.13623  1.0000
  H   H343      1.0  0.04340  0.69654  0.08247  1.0000
  S   S66       1.0  0.44756  0.87100  0.04749  1.0000
  S   S67       1.0  0.33051  0.52138  0.05722  1.0000
  C   C416      1.0  0.44356  0.74388  0.12860  1.0000
  C   C417      1.0  0.41045  0.57405  0.01357  1.0000
  C   C418      1.0  0.42949  0.59880  0.00928  1.0000
  C   C419      1.0  0.25997  0.56901  0.15610  1.0000
  C   C420      1.0  0.39827  0.91700  0.04094  1.0000
  C   C421      1.0  0.05563  0.66675  0.08118  1.0000
  C   C422      1.0  0.39605  0.55939  0.15813  1.0000
  C   C423      1.0  0.43410  0.68314  0.05066  1.0000
  H   H344      1.0  0.23555  0.73546  0.01214  1.0000
  C   C424      1.0  0.40289  0.56451  0.20094  1.0000
  H   H345      1.0  0.22640  0.69133  0.17421  1.0000
  C   C425      1.0  0.44654  0.70838  0.05814  1.0000
  C   C426      1.0  0.48450  0.96281  0.02585  1.0000
  C   C427      1.0  0.33115  0.51840  0.14103  1.0000
  C   C428      1.0  0.46813  0.82705  0.16770  1.0000
  H   H346      1.0  0.02333  0.65119  0.04169  1.0000
  H   H347      1.0  0.22676  0.60060  0.20664  1.0000
  C   C429      1.0  0.30828  0.66076  0.19553  1.0000
  C   C430      1.0  0.37254  0.71035  0.18056  1.0000
  C   C431      1.0  0.36474  0.69011  0.16630  1.0000
  C   C432      1.0  0.34804  0.68844  0.15028  1.0000
  C   C433      1.0  0.33900  0.70692  0.14865  1.0000
  C   C434      1.0  0.34675  0.72736  0.16292  1.0000
  C   C435      1.0  0.36359  0.72893  0.17894  1.0000
  P   P14       1.0  0.33351  0.75003  0.16098  1.0000
  C   C436      1.0  0.29943  0.73139  0.16456  1.0000
  C   C437      1.0  0.34613  0.77502  0.18053  1.0000
  C   C438      1.0  0.37246  0.79155  0.18117  1.0000
  C   C439      1.0  0.38230  0.81157  0.19570  1.0000
  C   C440      1.0  0.36605  0.81533  0.20965  1.0000
  C   C441      1.0  0.33979  0.79930  0.20889  1.0000
  C   C442      1.0  0.32981  0.77930  0.19436  1.0000
  C   C443      1.0  0.29060  0.71742  0.18286  1.0000
  C   C444      1.0  0.26440  0.70311  0.18629  1.0000
  C   C445      1.0  0.24675  0.70231  0.17140  1.0000
  C   C446      1.0  0.25534  0.71592  0.15303  1.0000
  C   C447      1.0  0.28159  0.73042  0.14958  1.0000
  C   C448      1.0  0.34213  0.76653  0.13654  1.0000
  C   C449      1.0  0.36057  0.76442  0.12373  1.0000
  C   C450      1.0  0.36756  0.77782  0.10511  1.0000
  C   C451      1.0  0.35651  0.79369  0.09926  1.0000
  C   C452      1.0  0.33869  0.79643  0.11216  1.0000
  C   C453      1.0  0.33177  0.78318  0.13085  1.0000
  H   H348      1.0  0.38484  0.71119  0.19339  1.0000
  H   H349      1.0  0.37122  0.67544  0.16801  1.0000
  H   H350      1.0  0.34176  0.67257  0.13937  1.0000
  H   H351      1.0  0.32575  0.70519  0.13638  1.0000
  H   H352      1.0  0.36933  0.74395  0.19059  1.0000
  H   H353      1.0  0.38548  0.78902  0.17050  1.0000
  H   H354      1.0  0.40261  0.82419  0.19624  1.0000
  H   H355      1.0  0.45040  0.87810  0.18250  1.0000
  H   H356      1.0  0.32713  0.80229  0.21963  1.0000
  H   H357      1.0  0.30935  0.76743  0.19410  1.0000
  H   H358      1.0  0.30398  0.71803  0.19472  1.0000
  H   H359      1.0  0.25777  0.69299  0.20069  1.0000
  C   C454      1.0  0.27333  0.60929  0.18799  1.0000
  H   H360      1.0  0.24154  0.71538  0.14157  1.0000
  C   C455      1.0  0.26211  0.57603  0.11890  1.0000
  H   H361      1.0  0.40583  0.66105  0.15898  1.0000
  H   H362      1.0  0.25808  0.58477  0.10555  1.0000
  C   C456      1.0  0.32951  0.74447  0.23893  1.0000
  H   H363      1.0  0.27588  0.78209  0.02712  1.0000
  C   C457      1.0  0.05430  0.64453  0.09035  1.0000
  H   H364      1.0  0.24548  0.59251  0.14022  1.0000
  H   H365      1.0  0.37385  0.83069  0.22103  1.0000
  S   S68       1.0  0.44972  0.82475  0.19021  1.0000
  C   C458      1.0  0.42291  0.66150  0.16581  1.0000
  H   H366      1.0  0.36896  0.92754  0.99918  1.0000
  H   H367      1.0  0.38972  0.57328  0.08202  1.0000
  H   H368      1.0  0.39263  0.55647  0.14172  1.0000
  H   H369      1.0  0.01473  0.64026  0.13038  1.0000
  Fe  Fe38      1.0  0.39793  0.75129  0.23662  1.0000
  H   H370      1.0  0.47893  0.85425  0.11960  1.0000
  H   H371      1.0  0.37729  0.57673  0.11774  1.0000
  C   C459      1.0  0.04247  0.67947  0.08977  1.0000
  C   C460      1.0  0.43242  0.69335  0.09283  1.0000
  C   C461      1.0  0.39642  0.58970  0.11267  1.0000
  H   H372      1.0  0.45270  0.63847  0.12931  1.0000
  H   H373      1.0  0.43823  0.92737  0.04342  1.0000
  C   C462      1.0  0.39181  0.85191  0.00439  1.0000
  C   C463      1.0  0.40336  0.58771  0.09233  1.0000
  C   C464      1.0  0.21323  0.69653  0.00197  1.0000
  H   H374      1.0  0.45447  0.62503  0.17297  1.0000
  P   P15       1.0  0.25188  0.57615  0.18173  1.0000
  C   C465      1.0  0.49998  0.81921  0.14870  1.0000
  P   P16       1.0  0.40485  0.61048  0.15263  1.0000
  C   C466      1.0  0.41400  0.60803  0.12629  1.0000
  H   H375      1.0  0.02782  0.59962  0.19575  1.0000
  C   C467      1.0  0.43867  0.62431  0.11917  1.0000
  C   C468      1.0  0.31230  0.79185  0.01342  1.0000
  C   C469      1.0  0.20168  0.55746  0.16694  1.0000
  C   C470      1.0  0.44554  0.62223  0.09876  1.0000
  C   C471      1.0  0.22003  0.57391  0.18111  1.0000
  C   C472      1.0  0.43974  0.68367  0.17642  1.0000
  H   H376      1.0  0.34800  0.79645  0.00043  1.0000
  C   C473      1.0  0.46108  0.70273  0.23989  1.0000
  H   H377      1.0  0.43488  0.67923  0.03431  1.0000
  H   H378      1.0  0.31337  0.52098  0.00006  1.0000
  H   H379      1.0  0.20616  0.54550  0.15642  1.0000
  C   C474      1.0  0.07371  0.58850  0.11464  1.0000
  H   H380      1.0  0.43625  0.61323  0.02139  1.0000
  C   C475      1.0  0.17725  0.55633  0.16629  1.0000
  H   H381      1.0  0.34710  0.76212  0.23854  1.0000
  C   C476      1.0  0.01570  0.61162  0.04426  1.0000
  C   C477      1.0  0.27749  0.53515  0.21832  1.0000
  H   H382      1.0  0.49658  0.72310  0.07624  1.0000
  C   C478      1.0  0.29020  0.65463  0.17972  1.0000
  H   H383      1.0  0.19361  0.75293  0.03034  1.0000
  H   H384      1.0  0.47216  0.90242  0.15168  1.0000
  C   C479      1.0  0.48978  0.94417  0.03551  1.0000
  C   C480      1.0  0.25341  0.55421  0.20077  1.0000
  H   H385      1.0  0.21321  0.53784  0.20895  1.0000
  C   C481      1.0  0.43448  0.68807  0.24164  1.0000
  H   H386      1.0  0.15198  0.57051  0.17950  1.0000
  C   C482      1.0  0.40167  0.55545  0.99789  1.0000
  C   C483      1.0  0.06571  0.62593  0.18603  1.0000
  H   H387      1.0  0.18354  0.59810  0.20542  1.0000
  C   C484      1.0  0.05065  0.51623  0.99935  1.0000
  C   C485      1.0  0.48512  0.81615  0.16660  1.0000
  C   C486      1.0  0.20334  0.75880  0.01573  1.0000
  H   H388      1.0  0.46142  0.90009  0.08899  1.0000
  C   C487      1.0  0.08727  0.57796  0.10341  1.0000
  C   C488      1.0  0.47102  0.56940  0.00354  1.0000
  C   C489      1.0  0.27398  0.56005  0.11627  1.0000
  C   C490      1.0  0.48359  0.66036  0.03738  1.0000
  C   C491      1.0  0.40666  0.86115  0.02236  1.0000
  C   C492      1.0  0.17086  0.57124  0.17998  1.0000
  C   C493      1.0  0.30727  0.69818  0.23677  1.0000
  S   S69       1.0  0.41046  0.79351  0.23974  1.0000
  H   H389      1.0  0.00921  0.53230  0.05004  1.0000
  H   H390      1.0  0.35902  0.90781  0.03387  1.0000
  C   C494      1.0  0.48795  0.75192  0.12700  1.0000
  H   H391      1.0  0.16321  0.54385  0.15520  1.0000
  C   C495      1.0  0.48882  0.58946  0.01555  1.0000
  C   C496      1.0  0.14435  0.58827  0.00772  1.0000
  H   H392      1.0  0.32197  0.64625  0.22075  1.0000
  H   H393      1.0  0.23463  0.79291  0.02826  1.0000
  H   H394      1.0  0.43183  0.69673  0.10923  1.0000
  H   H395      1.0  0.06467  0.63506  0.08339  1.0000
  C   C497      1.0  0.22659  0.78157  0.01443  1.0000
  H   H396      1.0  0.46866  0.66293  0.02931  1.0000
  S   S70       1.0  0.17921  0.68257  0.24043  1.0000
  H   H397      1.0  0.08863  0.54673  0.00428  1.0000
  C   C498      1.0  0.49810  0.98865  0.03207  1.0000
  H   H398      1.0  0.38675  0.51958  0.16271  1.0000
  H   H399      1.0  0.01770  0.67982  0.11427  1.0000
  C   C499      1.0  0.43961  0.64871  0.24073  1.0000
  C   C500      1.0  0.01546  0.52619  0.00791  1.0000
  H   H400      1.0  0.48370  0.59213  0.03117  1.0000
  H   H401      1.0  0.50034  0.79867  0.07824  1.0000
  S   S71       1.0  0.25348  0.72315  0.24400  1.0000
  C   C501      1.0  0.47021  0.89237  0.18352  1.0000
  S   S72       1.0  0.42786  0.61510  0.24155  1.0000
  H   H402      1.0  0.25628  0.50422  0.23897  1.0000
  H   H403      1.0  0.30526  0.76327  0.24352  1.0000
  C   C502      1.0  0.19238  0.74402  0.99800  1.0000
  C   C503      1.0  0.20616  0.67066  0.00575  1.0000
  C   C504      1.0  0.28299  0.72222  0.24173  1.0000
  C   C505      1.0  0.30588  0.74509  0.24169  1.0000
  S   S73       1.0  0.35863  0.71865  0.23129  1.0000
  H   H404      1.0  0.01067  0.58864  0.16033  1.0000
  C   C506      1.0  0.48274  0.90618  0.16601  1.0000
  Fe  Fe39      1.0  0.45181  0.75757  0.24046  1.0000
  S   S74       1.0  0.47605  0.73656  0.23980  1.0000
  H   H405      1.0  0.42228  0.69756  0.24286  1.0000
  C   C507      1.0  0.32884  0.51331  0.18476  1.0000
  Fe  Fe40      1.0  0.33983  0.54075  0.23657  1.0000
  S   S75       1.0  0.32637  0.50883  0.21204  1.0000
  H   H406      1.0  0.48659  0.98077  0.09911  1.0000
  C   C508      1.0  0.42373  0.66098  0.24220  1.0000
  C   C509      1.0  0.02435  0.50884  0.00057  1.0000
  S   S76       1.0  0.37715  0.50965  0.07499  1.0000
  H   H407      1.0  0.40329  0.64966  0.24385  1.0000
  H   H408      1.0  0.21522  0.50648  0.23313  1.0000
  H   H409      1.0  0.30772  0.67998  0.23502  1.0000
  H   H410      1.0  0.49717  0.70145  0.23698  1.0000
  S   S77       1.0  0.15760  0.62091  0.24421  1.0000
  C   C510      1.0  0.47668  0.69029  0.23840  1.0000
  C   C511      1.0  0.23929  0.78994  0.99541  1.0000
  H   H411      1.0  0.17642  0.53664  0.35327  1.0000
  Fe  Fe41      1.0  0.35324  0.55200  0.28315  1.0000
  H   H412      1.0  0.46692  0.84636  0.36594  1.0000
  C   C512      1.0  0.45807  0.82103  0.31682  1.0000
  H   H413      1.0  0.14428  0.51360  0.42556  1.0000
  H   H414      1.0  0.48481  0.81114  0.30098  1.0000
  H   H415      1.0  0.43007  0.97560  0.45762  1.0000
  S   S78       1.0  0.36839  0.59444  0.27815  1.0000
  H   H416      1.0  0.18407  0.58288  0.47502  1.0000
  S   S79       1.0  0.20876  0.65826  0.27057  1.0000
  C   C513      1.0  0.47472  0.93110  0.43101  1.0000
  C   C514      1.0  0.19240  0.53810  0.36263  1.0000
  Fe  Fe42      1.0  0.16909  0.65413  0.26651  1.0000
  S   S80       1.0  0.14266  0.65006  0.29381  1.0000
  C   C515      1.0  0.43139  0.76300  0.34154  1.0000
  S   S81       1.0  0.42098  0.74958  0.26380  1.0000
  H   H417      1.0  0.45325  0.71261  0.28701  1.0000
  Fe  Fe43      1.0  0.43613  0.79250  0.26557  1.0000
  H   H418      1.0  0.39024  0.70258  0.40834  1.0000
  Fe  Fe44      1.0  0.14313  0.66737  0.41902  1.0000
  S   S82       1.0  0.12664  0.69074  0.43605  1.0000
  S   S83       1.0  0.16757  0.67880  0.38952  1.0000
  Fe  Fe45      1.0  0.13077  0.63034  0.45495  1.0000
  S   S84       1.0  0.11400  0.65104  0.47442  1.0000
  S   S85       1.0  0.13173  0.59283  0.46190  1.0000
  Fe  Fe46      1.0  0.09380  0.65246  0.44502  1.0000
  S   S86       1.0  0.05086  0.64384  0.44521  1.0000
  Fe  Fe47      1.0  0.14820  0.68755  0.46416  1.0000
  C   C516      1.0  0.44913  0.75317  0.33929  1.0000
  S   S87       1.0  0.10917  0.62983  0.42601  1.0000
  S   S88       1.0  0.16595  0.66604  0.44674  1.0000
  H   H419      1.0  0.30542  0.57830  0.30240  1.0000
  H   H420      1.0  0.49325  0.62914  0.37140  1.0000
  C   C517      1.0  0.06391  0.56189  0.44452  1.0000
  H   H421      1.0  0.15977  0.60273  0.35009  1.0000
  C   C518      1.0  0.49833  0.95665  0.46783  1.0000
  H   H422      1.0  0.34875  0.66626  0.39844  1.0000
  C   C519      1.0  0.47247  0.54443  0.48326  1.0000
  H   H423      1.0  0.36285  0.65845  0.28288  1.0000
  H   H424      1.0  0.38860  0.83121  0.46649  1.0000
  C   C520      1.0  0.49355  0.83617  0.35021  1.0000
  H   H425      1.0  0.30305  0.64294  0.30665  1.0000
  H   H426      1.0  0.33170  0.62451  0.30137  1.0000
  H   H427      1.0  0.34222  0.64791  0.36314  1.0000
  H   H428      1.0  0.24888  0.53945  0.39509  1.0000
  H   H429      1.0  0.34633  0.57365  0.35609  1.0000
  C   C521      1.0  0.24772  0.76861  0.48857  1.0000
  H   H430      1.0  0.20425  0.51174  0.40561  1.0000
  C   C522      1.0  0.23313  0.53946  0.38621  1.0000
  C   C523      1.0  0.21314  0.58526  0.41274  1.0000
  H   H431      1.0  0.44890  0.74296  0.32519  1.0000
  C   C524      1.0  0.34296  0.51251  0.37325  1.0000
  C   C525      1.0  0.43354  0.65012  0.29979  1.0000
  C   C526      1.0  0.26978  0.61094  0.31855  1.0000
  H   H432      1.0  0.46814  0.87216  0.48244  1.0000
  H   H433      1.0  0.46607  0.92105  0.41676  1.0000
  Fe  Fe48      1.0  0.35631  0.51027  0.45763  1.0000
  C   C527      1.0  0.16463  0.60106  0.31727  1.0000
  C   C528      1.0  0.48081  0.81871  0.31511  1.0000
  Fe  Fe49      1.0  0.33406  0.58426  0.25792  1.0000
  C   C529      1.0  0.04089  0.60388  0.49155  1.0000
  C   C530      1.0  0.15046  0.65646  0.32053  1.0000
  C   C531      1.0  0.17539  0.67209  0.32740  1.0000
  C   C532      1.0  0.18022  0.67855  0.34857  1.0000
  C   C533      1.0  0.16037  0.66897  0.36320  1.0000
  C   C534      1.0  0.13563  0.65252  0.35642  1.0000
  C   C535      1.0  0.13068  0.64658  0.33519  1.0000
  H   H434      1.0  0.19072  0.67994  0.31630  1.0000
  H   H435      1.0  0.19936  0.69139  0.35367  1.0000
  H   H436      1.0  0.12020  0.64472  0.36746  1.0000
  H   H437      1.0  0.11133  0.63447  0.33006  1.0000
  H   H438      1.0  0.35289  0.51439  0.38776  1.0000
  H   H439      1.0  0.16809  0.51063  0.38482  1.0000
  S   S89       1.0  0.31896  0.61356  0.26002  1.0000
  Fe  Fe50      1.0  0.19804  0.62697  0.24666  1.0000
  H   H440      1.0  0.22661  0.55688  0.25406  1.0000
  H   H441      1.0  0.45847  0.52524  0.47902  1.0000
  H   H442      1.0  0.17418  0.59851  0.28547  1.0000
  C   C536      1.0  0.18693  0.54863  0.48487  1.0000
  C   C537      1.0  0.24165  0.57632  0.25473  1.0000
  C   C538      1.0  0.43134  0.58103  0.48423  1.0000
  C   C539      1.0  0.18760  0.52311  0.38038  1.0000
  H   H443      1.0  0.35750  0.94711  0.48967  1.0000
  H   H444      1.0  0.25692  0.80416  0.29091  1.0000
  H   H445      1.0  0.05851  0.64511  0.48953  1.0000
  H   H446      1.0  0.49402  0.96803  0.41665  1.0000
  H   H447      1.0  0.14610  0.82900  0.37818  1.0000
  C   C540      1.0  0.43118  0.77621  0.35961  1.0000
  H   H448      1.0  0.31061  0.66907  0.33874  1.0000
  H   H449      1.0  0.26967  0.52872  0.29796  1.0000
  H   H450      1.0  0.27985  0.78715  0.31345  1.0000
  H   H451      1.0  0.34298  0.72502  0.31513  1.0000
  H   H452      1.0  0.28121  0.65229  0.36839  1.0000
  H   H453      1.0  0.26517  0.53197  0.46698  1.0000
  H   H454      1.0  0.49335  0.77493  0.31635  1.0000
  H   H455      1.0  0.21958  0.77432  0.27009  1.0000
  C   C541      1.0  0.23549  0.59691  0.25297  1.0000
  C   C542      1.0  0.19547  0.58635  0.30620  1.0000
  H   H456      1.0  0.46773  0.74754  0.44252  1.0000
  C   C543      1.0  0.46707  0.75678  0.35499  1.0000
  H   H457      1.0  0.41800  0.78459  0.36106  1.0000
  C   C544      1.0  0.20910  0.51863  0.28632  1.0000
  C   C545      1.0  0.28656  0.60615  0.25785  1.0000
  C   C546      1.0  0.12963  0.58190  0.48744  1.0000
  C   C547      1.0  0.02857  0.55046  0.46850  1.0000
  C   C548      1.0  0.35647  0.52611  0.35576  1.0000
  H   H458      1.0  0.37387  0.62045  0.35475  1.0000
  H   H459      1.0  0.25011  0.63787  0.25226  1.0000
  C   C549      1.0  0.02042  0.54155  0.43171  1.0000
  H   H460      1.0  0.23383  0.50327  0.27419  1.0000
  S   S90       1.0  0.49628  0.88377  0.41376  1.0000
  C   C550      1.0  0.46654  0.76988  0.37319  1.0000
  C   C551      1.0  0.46788  0.66241  0.46208  1.0000
  H   H461      1.0  0.45859  0.89696  0.44929  1.0000
  C   C552      1.0  0.42134  0.95943  0.46786  1.0000
  H   H462      1.0  0.45395  0.68377  0.41110  1.0000
  C   C553      1.0  0.09750  0.77980  0.35301  1.0000
  C   C554      1.0  0.11294  0.80475  0.36012  1.0000
  C   C555      1.0  0.13394  0.80960  0.37288  1.0000
  C   C556      1.0  0.13940  0.78948  0.37871  1.0000
  C   C557      1.0  0.12351  0.76425  0.37213  1.0000
  C   C558      1.0  0.10290  0.75965  0.35883  1.0000
  P   P17       1.0  0.13096  0.73828  0.37863  1.0000
  C   C559      1.0  0.15122  0.74603  0.40125  1.0000
  C   C560      1.0  0.10252  0.70994  0.38565  1.0000
  C   C561      1.0  0.08054  0.71163  0.39261  1.0000
  C   C562      1.0  0.08083  0.66376  0.39040  1.0000
  C   C563      1.0  0.10273  0.68595  0.38516  1.0000
  C   C564      1.0  0.14503  0.75632  0.41889  1.0000
  H   H463      1.0  0.37681  0.53843  0.35699  1.0000
  C   C565      1.0  0.44436  0.66338  0.38206  1.0000
  C   C566      1.0  0.42250  0.63279  0.46287  1.0000
  C   C567      1.0  0.17172  0.73970  0.40219  1.0000
  C   C568      1.0  0.14545  0.73259  0.35574  1.0000
  C   C569      1.0  0.13064  0.71319  0.34157  1.0000
  C   C570      1.0  0.14159  0.70949  0.32344  1.0000
  C   C571      1.0  0.16728  0.72523  0.31917  1.0000
  C   C572      1.0  0.18201  0.74504  0.33286  1.0000
  C   C573      1.0  0.17110  0.74886  0.35104  1.0000
  H   H464      1.0  0.08143  0.77608  0.34287  1.0000
  H   H465      1.0  0.10876  0.82036  0.35558  1.0000
  H   H466      1.0  0.15607  0.79373  0.38823  1.0000
  H   H467      1.0  0.09103  0.74046  0.35294  1.0000
  H   H468      1.0  0.08030  0.73002  0.39423  1.0000
  H   H469      1.0  0.08112  0.64529  0.39011  1.0000
  H   H470      1.0  0.11995  0.68449  0.38092  1.0000
  H   H471      1.0  0.12856  0.76021  0.41885  1.0000
  P   P18       1.0  0.40904  0.99111  0.49376  1.0000
  C   C574      1.0  0.49875  0.76003  0.49457  1.0000
  C   C575      1.0  0.20795  0.52372  0.39211  1.0000
  H   H472      1.0  0.17596  0.73041  0.38925  1.0000
  H   H473      1.0  0.11061  0.70085  0.34438  1.0000
  H   H474      1.0  0.13022  0.69410  0.31277  1.0000
  H   H475      1.0  0.17565  0.72184  0.30525  1.0000
  H   H476      1.0  0.20183  0.75743  0.32931  1.0000
  H   H477      1.0  0.18260  0.76450  0.36139  1.0000
  H   H478      1.0  0.31200  0.55252  0.33015  1.0000
  P   P19       1.0  0.18155  0.53350  0.45964  1.0000
  H   H479      1.0  0.27209  0.56505  0.25805  1.0000
  C   C576      1.0  0.18680  0.55692  0.43970  1.0000
  C   C577      1.0  0.16847  0.56588  0.43626  1.0000
  C   C578      1.0  0.17256  0.58455  0.42137  1.0000
  C   C579      1.0  0.19486  0.59424  0.40958  1.0000
  H   H480      1.0  0.44185  0.58839  0.47010  1.0000
  C   C580      1.0  0.49848  0.82638  0.33166  1.0000
  S   S91       1.0  0.36222  0.54210  0.31546  1.0000
  C   C581      1.0  0.44832  0.86605  0.48613  1.0000
  Fe  Fe51      1.0  0.38681  0.58928  0.24956  1.0000
  H   H481      1.0  0.29527  0.64599  0.25711  1.0000
  C   C582      1.0  0.48499  0.63715  0.42257  1.0000
  C   C583      1.0  0.44664  0.66543  0.36059  1.0000
  H   H482      1.0  0.08427  0.57032  0.44164  1.0000
  H   H483      1.0  0.15120  0.55882  0.44545  1.0000
  H   H484      1.0  0.15855  0.59186  0.41937  1.0000
  H   H485      1.0  0.19805  0.60896  0.39825  1.0000
  H   H486      1.0  0.48003  0.77291  0.38563  1.0000
  C   C584      1.0  0.42171  0.93635  0.46224  1.0000
  C   C585      1.0  0.25211  0.53075  0.29863  1.0000
  C   C586      1.0  0.40348  0.84296  0.47726  1.0000
  C   C587      1.0  0.48043  0.71805  0.44456  1.0000
  H   H487      1.0  0.12299  0.54400  0.47748  1.0000
  S   S92       1.0  0.16986  0.72040  0.48802  1.0000
  C   C588      1.0  0.20923  0.56678  0.42783  1.0000
  S   S93       1.0  0.43472  0.81088  0.29671  1.0000
  C   C589      1.0  0.00276  0.59978  0.44062  1.0000
  H   H488      1.0  0.44911  0.79066  0.38914  1.0000
  H   H489      1.0  0.46112  0.69065  0.33486  1.0000
  P   P20       1.0  0.49729  0.68010  0.44799  1.0000
  C   C590      1.0  0.23677  0.65668  0.31707  1.0000
  C   C591      1.0  0.24995  0.65197  0.30089  1.0000
  C   C592      1.0  0.27034  0.67240  0.29151  1.0000
  C   C593      1.0  0.27736  0.69755  0.29805  1.0000
  C   C594      1.0  0.26441  0.70250  0.31442  1.0000
  C   C595      1.0  0.24381  0.68183  0.32371  1.0000
  P   P21       1.0  0.27229  0.73509  0.32208  1.0000
  C   C596      1.0  0.26254  0.73453  0.34871  1.0000
  C   C597      1.0  0.30631  0.75479  0.31872  1.0000
  C   C598      1.0  0.32334  0.76185  0.33557  1.0000
  C   C599      1.0  0.34969  0.77616  0.33241  1.0000
  C   C600      1.0  0.35923  0.78343  0.31246  1.0000
  C   C601      1.0  0.34239  0.77675  0.29566  1.0000
  C   C602      1.0  0.31605  0.76277  0.29878  1.0000
  C   C603      1.0  0.24627  0.74538  0.35446  1.0000
  C   C604      1.0  0.23640  0.74222  0.37450  1.0000
  C   C605      1.0  0.24271  0.72827  0.38896  1.0000
  C   C606      1.0  0.25918  0.71775  0.38348  1.0000
  C   C607      1.0  0.26904  0.72080  0.36344  1.0000
  C   C608      1.0  0.25532  0.74735  0.30573  1.0000
  C   C609      1.0  0.23397  0.73063  0.29414  1.0000
  C   C610      1.0  0.22115  0.74041  0.28139  1.0000
  C   C611      1.0  0.22936  0.76686  0.28027  1.0000
  C   C612      1.0  0.25044  0.78363  0.29194  1.0000
  C   C613      1.0  0.26342  0.77394  0.30461  1.0000
  H   H490      1.0  0.22051  0.64095  0.32397  1.0000
  H   H491      1.0  0.24381  0.63259  0.29514  1.0000
  H   H492      1.0  0.28030  0.66894  0.27872  1.0000
  H   H493      1.0  0.29242  0.71292  0.28982  1.0000
  H   H494      1.0  0.23268  0.68505  0.33572  1.0000
  H   H495      1.0  0.31648  0.75653  0.35115  1.0000
  H   H496      1.0  0.36280  0.78170  0.34543  1.0000
  H   H497      1.0  0.37968  0.79436  0.30998  1.0000
  H   H498      1.0  0.34980  0.78241  0.28018  1.0000
  H   H499      1.0  0.30328  0.75784  0.28554  1.0000
  H   H500      1.0  0.24054  0.75568  0.34345  1.0000
  H   H501      1.0  0.22337  0.75007  0.37873  1.0000
  H   H502      1.0  0.23449  0.72529  0.40432  1.0000
  H   H503      1.0  0.26383  0.70677  0.39472  1.0000
  H   H504      1.0  0.28110  0.71181  0.35922  1.0000
  H   H505      1.0  0.22746  0.71010  0.29444  1.0000
  H   H506      1.0  0.20521  0.72741  0.27196  1.0000
  C   C614      1.0  0.49426  0.58956  0.47492  1.0000
  C   C615      1.0  0.29488  0.65003  0.33791  1.0000
  C   C616      1.0  0.46776  0.66435  0.48368  1.0000
  C   C617      1.0  0.34395  0.52403  0.33675  1.0000
  H   H507      1.0  0.41089  0.89710  0.47071  1.0000
  C   C618      1.0  0.36062  0.66343  0.36735  1.0000
  C   C619      1.0  0.42275  0.63454  0.48443  1.0000
  H   H508      1.0  0.33494  0.71479  0.27786  1.0000
  H   H509      1.0  0.19098  0.75774  0.45192  1.0000
  H   H510      1.0  0.46162  0.70342  0.44862  1.0000
  C   C620      1.0  0.32354  0.57311  0.32983  1.0000
  H   H511      1.0  0.41836  0.76118  0.32898  1.0000
  C   C621      1.0  0.45597  0.68536  0.39449  1.0000
  C   C622      1.0  0.04670  0.55243  0.42803  1.0000
  H   H512      1.0  0.43739  0.64840  0.35093  1.0000
  C   C623      1.0  0.22869  0.53268  0.46365  1.0000
  H   H513      1.0  0.15090  0.60821  0.31349  1.0000
  C   C624      1.0  0.33502  0.61401  0.31360  1.0000
  H   H514      1.0  0.30782  0.50590  0.32081  1.0000
  H   H515      1.0  0.22377  0.56039  0.43022  1.0000
  C   C625      1.0  0.47093  0.83873  0.35185  1.0000
  C   C626      1.0  0.45337  0.83131  0.33521  1.0000
  C   C627      1.0  0.35790  0.67238  0.29036  1.0000
  C   C628      1.0  0.42008  0.69014  0.30547  1.0000
  C   C629      1.0  0.27821  0.64060  0.35460  1.0000
  Fe  Fe52      1.0  0.47911  0.85667  0.44015  1.0000
  C   C630      1.0  0.31971  0.58756  0.31433  1.0000
  C   C631      1.0  0.24964  0.54763  0.31294  1.0000
  S   S94       1.0  0.20359  0.59117  0.24997  1.0000
  C   C632      1.0  0.44487  0.64695  0.45168  1.0000
  H   H516      1.0  0.49335  0.78945  0.47785  1.0000
  P   P22       1.0  0.37524  0.66047  0.32685  1.0000
  C   C633      1.0  0.26728  0.58091  0.25703  1.0000
  H   H517      1.0  0.20141  0.73845  0.42124  1.0000
  C   C634      1.0  0.05874  0.66546  0.39659  1.0000
  C   C635      1.0  0.34293  0.58511  0.34448  1.0000
  C   C636      1.0  0.35852  0.61159  0.34360  1.0000
  C   C637      1.0  0.17768  0.59549  0.30146  1.0000
  C   C638      1.0  0.16953  0.59775  0.33789  1.0000
  C   C639      1.0  0.34222  0.70426  0.28733  1.0000
  C   C640      1.0  0.47017  0.70935  0.38550  1.0000
  H   H518      1.0  0.43057  0.93496  0.44790  1.0000
  C   C641      1.0  0.40731  0.70433  0.37851  1.0000
  H   H519      1.0  0.20597  0.58297  0.29373  1.0000
  C   C642      1.0  0.05869  0.68939  0.39796  1.0000
  H   H520      1.0  0.46582  0.56059  0.45547  1.0000
  C   C643      1.0  0.18715  0.58835  0.34268  1.0000
  H   H521      1.0  0.19102  0.58637  0.35875  1.0000
  C   C644      1.0  0.34678  0.71001  0.30837  1.0000
  H   H522      1.0  0.25762  0.56617  0.36389  1.0000
  H   H523      1.0  0.04192  0.64829  0.40107  1.0000
  C   C645      1.0  0.35463  0.62630  0.32811  1.0000
  C   C646      1.0  0.41167  0.64597  0.31113  1.0000
  S   S95       1.0  0.31976  0.51139  0.44828  1.0000
  C   C647      1.0  0.25717  0.61642  0.35324  1.0000
  H   H524      1.0  0.15453  0.76833  0.45072  1.0000
  H   H525      1.0  0.04182  0.69062  0.40360  1.0000
  C   C648      1.0  0.19984  0.58202  0.32681  1.0000
  H   H526      1.0  0.24389  0.60974  0.36601  1.0000
  H   H527      1.0  0.41924  0.70187  0.34759  1.0000
  C   C649      1.0  0.40477  0.66600  0.31411  1.0000
  C   C650      1.0  0.34767  0.68537  0.27838  1.0000
  H   H528      1.0  0.39986  0.62687  0.31682  1.0000
  C   C651      1.0  0.24576  0.52204  0.46109  1.0000
  S   S96       1.0  0.39424  0.54611  0.45916  1.0000
  C   C652      1.0  0.23190  0.51635  0.28524  1.0000
  H   H529      1.0  0.46526  0.67720  0.28222  1.0000
  C   C653      1.0  0.01642  0.62650  0.44409  1.0000
  H   H530      1.0  0.43813  0.63430  0.29669  1.0000
  C   C654      1.0  0.38065  0.67301  0.35295  1.0000
  C   C655      1.0  0.44875  0.67425  0.29149  1.0000
  H   H531      1.0  0.05378  0.55366  0.41240  1.0000
  C   C656      1.0  0.48232  0.93013  0.46772  1.0000
  C   C657      1.0  0.46048  0.68944  0.35152  1.0000
  H   H532      1.0  0.34439  0.68095  0.26202  1.0000
  H   H533      1.0  0.23052  0.59285  0.40372  1.0000
  C   C658      1.0  0.29071  0.63522  0.31992  1.0000
  C   C659      1.0  0.42926  0.85096  0.47209  1.0000
  C   C660      1.0  0.36167  0.67730  0.31167  1.0000
  C   C661      1.0  0.25288  0.60138  0.33526  1.0000
  H   H534      1.0  0.41464  0.70560  0.30676  1.0000
  H   H535      1.0  0.43592  0.83332  0.33666  1.0000
  C   C662      1.0  0.18021  0.75488  0.43768  1.0000
  H   H536      1.0  0.47893  0.72623  0.39537  1.0000
  H   H537      1.0  0.04459  0.60167  0.47545  1.0000
  H   H538      1.0  0.42525  0.72041  0.38277  1.0000
  H   H539      1.0  0.06868  0.56857  0.47726  1.0000
  C   C663      1.0  0.40388  0.69376  0.35859  1.0000
  C   C664      1.0  0.44200  0.69424  0.29428  1.0000
  P   P23       1.0  0.22400  0.57174  0.33288  1.0000
  C   C665      1.0  0.44875  0.77967  0.37541  1.0000
  C   C666      1.0  0.35658  0.69667  0.32053  1.0000
  H   H540      1.0  0.41549  0.79179  0.46632  1.0000
  H   H541      1.0  0.40506  0.61992  0.45494  1.0000
  H   H542      1.0  0.43352  0.64476  0.38906  1.0000
  C   C667      1.0  0.14898  0.50839  0.45817  1.0000
  S   S97       1.0  0.31703  0.54197  0.26476  1.0000
  H   H543      1.0  0.47466  0.60382  0.40300  1.0000
  C   C668      1.0  0.18618  0.74417  0.42034  1.0000
  C   C669      1.0  0.22709  0.55059  0.31371  1.0000
  S   S98       1.0  0.43723  0.84231  0.44792  1.0000
  C   C670      1.0  0.21764  0.55439  0.35684  1.0000
  C   C671      1.0  0.22325  0.74912  0.48272  1.0000
  S   S99       1.0  0.49233  0.82808  0.42852  1.0000
  C   C672      1.0  0.23799  0.55466  0.36858  1.0000
  H   H544      1.0  0.26629  0.60027  0.30412  1.0000
  H   H545      1.0  0.44414  0.64540  0.43502  1.0000
  P   P24       1.0  0.01737  0.55015  0.49458  1.0000
  H   H546      1.0  0.36026  0.70172  0.33672  1.0000
  C   C673      1.0  0.15962  0.76090  0.43697  1.0000
  C   C674      1.0  0.47266  0.71157  0.36392  1.0000
  C   C675      1.0  0.38753  0.69434  0.39291  1.0000
  C   C676      1.0  0.36416  0.67390  0.38732  1.0000
  C   C677      1.0  0.47060  0.91746  0.44938  1.0000
  C   C678      1.0  0.12572  0.55663  0.49058  1.0000
  C   C679      1.0  0.41053  0.91498  0.47502  1.0000
  H   H547      1.0  0.47930  0.91915  0.48172  1.0000
  C   C680      1.0  0.38418  0.77660  0.48778  1.0000
  H   H548      1.0  0.23526  0.55123  0.47120  1.0000
  H   H549      1.0  0.26524  0.55825  0.32351  1.0000
  C   C681      1.0  0.39878  0.91663  0.49338  1.0000
  C   C682      1.0  0.50136  0.71235  0.44335  1.0000
  H   H550      1.0  0.18859  0.53658  0.30145  1.0000
  C   C683      1.0  0.20659  0.53551  0.30062  1.0000
  C   C684      1.0  0.49035  0.95753  0.43098  1.0000
  C   C685      1.0  0.40962  0.96129  0.48636  1.0000
  S   S100      1.0  0.37457  0.54753  0.25561  1.0000
  C   C686      1.0  0.49649  0.66411  0.42369  1.0000
  H   H551      1.0  0.36964  0.77071  0.47582  1.0000
  C   C687      1.0  0.20325  0.51926  0.45678  1.0000
  C   C688      1.0  0.41003  0.78851  0.48243  1.0000
  C   C689      1.0  0.05496  0.56086  0.46470  1.0000
  C   C690      1.0  0.40707  0.55994  0.48340  1.0000
  C   C691      1.0  0.28025  0.62657  0.25647  1.0000
  C   C692      1.0  0.47676  0.56447  0.46970  1.0000
  C   C693      1.0  0.25482  0.62201  0.25375  1.0000
  C   C694      1.0  0.31767  0.50791  0.33537  1.0000
  H   H552      1.0  0.01226  0.66091  0.44950  1.0000
  H   H553      1.0  0.01328  0.58873  0.43835  1.0000
  H   H554      1.0  0.19334  0.50734  0.27604  1.0000
  P   P25       1.0  0.48924  0.74300  0.35256  1.0000
  C   C695      1.0  0.49425  0.63890  0.38597  1.0000
  H   H555      1.0  0.47688  0.62573  0.43623  1.0000
  H   H556      1.0  0.22103  0.73821  0.46863  1.0000
  H   H557      1.0  0.26400  0.77238  0.47880  1.0000
  H   H558      1.0  0.00705  0.53428  0.41891  1.0000
  C   C696      1.0  0.49851  0.75996  0.31172  1.0000
  C   C697      1.0  0.48376  0.62463  0.40376  1.0000
  C   C698      1.0  0.18707  0.57265  0.48777  1.0000
  C   C699      1.0  0.49835  0.74186  0.32601  1.0000
  H   H559      1.0  0.48503  0.67635  0.49203  1.0000
  C   C700      1.0  0.48376  0.74304  0.44105  1.0000
  H   H560      1.0  0.49696  0.60514  0.46471  1.0000
  C   C701      1.0  0.01133  0.54040  0.45186  1.0000
  H   H561      1.0  0.40567  0.62298  0.49318  1.0000
  C   C702      1.0  0.44532  0.65053  0.49481  1.0000
  H   H562      1.0  0.44870  0.80714  0.49323  1.0000
  C   C703      1.0  0.50210  0.97029  0.44929  1.0000
  C   C704      1.0  0.20173  0.74405  0.49497  1.0000
  H   H563      1.0  0.39291  0.55623  0.53470  1.0000
  Fe  Fe53      1.0  0.18255  0.54944  0.73150  1.0000
  C   C705      1.0  0.12397  0.59774  0.59720  1.0000
  S   S101      1.0  0.16376  0.54206  0.69915  1.0000
  H   H564      1.0  0.13498  0.53672  0.66205  1.0000
  H   H565      1.0  0.32615  0.97258  0.57056  1.0000
  C   C706      1.0  0.21785  0.51308  0.57974  1.0000
  C   C707      1.0  0.09916  0.58441  0.58922  1.0000
  S   S102      1.0  0.43218  0.68634  0.72259  1.0000
  H   H566      1.0  0.47849  0.74820  0.49677  1.0000
  Fe  Fe54      1.0  0.44815  0.65779  0.72118  1.0000
  Fe  Fe55      1.0  0.31007  0.83712  0.53783  1.0000
  S   S103      1.0  0.33875  0.82566  0.55193  1.0000
  S   S104      1.0  0.28299  0.80797  0.51325  1.0000
  Fe  Fe56      1.0  0.33785  0.89173  0.55889  1.0000
  S   S105      1.0  0.36684  0.88216  0.57448  1.0000
  S   S106      1.0  0.34019  0.93254  0.56220  1.0000
  Fe  Fe57      1.0  0.36870  0.86476  0.54387  1.0000
  S   S107      1.0  0.40921  0.87484  0.53436  1.0000
  Fe  Fe58      1.0  0.33451  0.84361  0.58180  1.0000
  S   S108      1.0  0.33569  0.81901  0.60911  1.0000
  S   S109      1.0  0.34125  0.87586  0.52769  1.0000
  S   S110      1.0  0.30427  0.85364  0.56825  1.0000
  C   C708      1.0  0.40825  0.83143  0.57808  1.0000
  C   C709      1.0  0.46947  0.65540  0.66808  1.0000
  S   S111      1.0  0.13248  0.55370  0.55278  1.0000
  H   H567      1.0  0.30856  0.67785  0.67333  1.0000
  S   S112      1.0  0.48252  0.67340  0.55813  1.0000
  C   C710      1.0  0.25896  0.51811  0.56744  1.0000
  H   H568      1.0  0.47849  0.64010  0.61840  1.0000
  Fe  Fe59      1.0  0.34452  0.81214  0.73245  1.0000
  S   S113      1.0  0.32901  0.82880  0.70732  1.0000
  H   H569      1.0  0.04990  0.65168  0.52600  1.0000
  H   H570      1.0  0.17314  0.65352  0.63085  1.0000
  H   H571      1.0  0.31537  0.94006  0.50245  1.0000
  H   H572      1.0  0.45295  0.62058  0.64984  1.0000
  H   H573      1.0  0.21626  0.56371  0.65512  1.0000
  H   H574      1.0  0.35065  0.67165  0.70802  1.0000
  H   H575      1.0  0.45104  0.92499  0.56039  1.0000
  C   C711      1.0  0.33490  0.82304  0.63638  1.0000
  C   C712      1.0  0.32787  0.84087  0.64534  1.0000
  C   C713      1.0  0.32630  0.84242  0.66704  1.0000
  C   C714      1.0  0.33213  0.82652  0.68009  1.0000
  C   C715      1.0  0.33936  0.80878  0.67113  1.0000
  C   C716      1.0  0.34055  0.80696  0.64941  1.0000
  H   H576      1.0  0.32326  0.85322  0.63555  1.0000
  H   H577      1.0  0.32053  0.85609  0.67378  1.0000
  H   H578      1.0  0.34362  0.79619  0.68091  1.0000
  H   H579      1.0  0.34566  0.79287  0.64264  1.0000
  C   C717      1.0  0.13025  0.56403  0.52765  1.0000
  C   C718      1.0  0.12609  0.54775  0.51059  1.0000
  C   C719      1.0  0.47988  0.78536  0.55133  1.0000
  H   H580      1.0  0.12401  0.52859  0.51267  1.0000
  H   H581      1.0  0.24147  0.68083  0.59701  1.0000
  C   C720      1.0  0.03109  0.53335  0.50976  1.0000
  H   H582      1.0  0.43940  0.81414  0.61449  1.0000
  H   H583      1.0  0.46424  0.86045  0.54589  1.0000
  C   C721      1.0  0.05132  0.54685  0.52366  1.0000
  C   C722      1.0  0.39592  0.78095  0.52399  1.0000
  C   C723      1.0  0.41609  0.86532  0.51026  1.0000
  H   H584      1.0  0.37464  0.53456  0.50121  1.0000
  C   C724      1.0  0.41607  0.82758  0.59759  1.0000
  H   H585      1.0  0.02676  0.61408  0.54861  1.0000
  C   C725      1.0  0.02298  0.50693  0.50668  1.0000
  C   C726      1.0  0.35930  0.96694  0.56380  1.0000
  H   H586      1.0  0.39632  0.96870  0.55777  1.0000
  C   C727      1.0  0.28037  0.63840  0.71367  1.0000
  H   H587      1.0  0.37207  0.57178  0.67165  1.0000
  C   C728      1.0  0.28269  0.54670  0.70623  1.0000
  C   C729      1.0  0.04379  0.63238  0.52003  1.0000
  C   C730      1.0  0.26896  0.77428  0.72170  1.0000
  C   C731      1.0  0.46412  0.72693  0.60819  1.0000
  H   H588      1.0  0.29864  0.72303  0.71190  1.0000
  C   C732      1.0  0.49296  0.52963  0.56218  1.0000
  C   C733      1.0  0.19054  0.53601  0.50202  1.0000
  C   C734      1.0  0.32885  0.97799  0.51553  1.0000
  C   C735      1.0  0.13352  0.58915  0.52460  1.0000
  S   S114      1.0  0.45147  0.64005  0.69036  1.0000
  C   C736      1.0  0.36721  0.68611  0.70030  1.0000
  H   H589      1.0  0.13623  0.61763  0.50217  1.0000
  H   H590      1.0  0.23214  0.78887  0.53335  1.0000
  C   C737      1.0  0.46336  0.93485  0.54754  1.0000
  H   H591      1.0  0.01270  0.57006  0.53482  1.0000
  C   C738      1.0  0.45518  0.77947  0.54404  1.0000
  C   C739      1.0  0.05297  0.50736  0.53274  1.0000
  H   H592      1.0  0.43312  0.97269  0.52549  1.0000
  C   C740      1.0  0.06207  0.53384  0.53515  1.0000
  H   H593      1.0  0.20099  0.59628  0.65031  1.0000
  H   H594      1.0  0.44565  0.65163  0.51157  1.0000
  C   C741      1.0  0.33179  0.95846  0.50500  1.0000
  C   C742      1.0  0.23942  0.52089  0.71815  1.0000
  C   C743      1.0  0.43782  0.75368  0.54035  1.0000
  C   C744      1.0  0.48988  0.94471  0.54933  1.0000
  H   H595      1.0  0.41867  0.74852  0.53481  1.0000
  H   H596      1.0  0.20786  0.54327  0.57146  1.0000
  C   C745      1.0  0.23939  0.64543  0.66572  1.0000
  C   C746      1.0  0.22737  0.63408  0.68418  1.0000
  C   C747      1.0  0.22671  0.64946  0.70061  1.0000
  C   C748      1.0  0.23793  0.67616  0.69861  1.0000
  C   C749      1.0  0.24924  0.68767  0.67987  1.0000
  C   C750      1.0  0.25036  0.67210  0.66359  1.0000
  P   P26       1.0  0.26587  0.72218  0.67753  1.0000
  C   C751      1.0  0.25732  0.73853  0.69764  1.0000
  C   C752      1.0  0.29934  0.72982  0.67896  1.0000
  C   C753      1.0  0.30992  0.72763  0.69787  1.0000
  C   C754      1.0  0.33509  0.73090  0.69882  1.0000
  C   C755      1.0  0.35019  0.73737  0.68108  1.0000
  C   C756      1.0  0.33986  0.73970  0.66220  1.0000
  C   C757      1.0  0.31444  0.73566  0.66106  1.0000
  C   C758      1.0  0.27594  0.76117  0.70672  1.0000
  C   C759      1.0  0.25843  0.73327  0.65365  1.0000
  C   C760      1.0  0.23775  0.71705  0.64114  1.0000
  C   C761      1.0  0.23271  0.72607  0.62252  1.0000
  C   C762      1.0  0.24805  0.75135  0.61644  1.0000
  C   C763      1.0  0.26817  0.76776  0.62912  1.0000
  C   C764      1.0  0.27315  0.75886  0.64776  1.0000
  H   H597      1.0  0.24083  0.63365  0.65324  1.0000
  H   H598      1.0  0.21905  0.61342  0.68606  1.0000
  H   H599      1.0  0.21801  0.64071  0.71514  1.0000
  H   H600      1.0  0.23823  0.68764  0.71192  1.0000
  H   H601      1.0  0.26023  0.68068  0.64942  1.0000
  H   H602      1.0  0.36993  0.74075  0.68206  1.0000
  H   H603      1.0  0.35154  0.74468  0.64844  1.0000
  H   H604      1.0  0.30675  0.73715  0.64619  1.0000
  H   H605      1.0  0.21678  0.71296  0.69583  1.0000
  H   H606      1.0  0.29579  0.76914  0.70202  1.0000
  H   H607      1.0  0.22536  0.69761  0.64575  1.0000
  H   H608      1.0  0.21683  0.71358  0.61280  1.0000
  H   H609      1.0  0.24429  0.75841  0.60199  1.0000
  H   H610      1.0  0.27999  0.78747  0.62450  1.0000
  H   H611      1.0  0.28859  0.77198  0.65755  1.0000
  C   C765      1.0  0.23078  0.53505  0.70588  1.0000
  C   C766      1.0  0.27410  0.56087  0.69365  1.0000
  C   C767      1.0  0.24802  0.55500  0.69374  1.0000
  P   P27       1.0  0.29645  0.58822  0.67929  1.0000
  C   C768      1.0  0.29270  0.61615  0.68733  1.0000
  C   C769      1.0  0.32876  0.59379  0.68500  1.0000
  C   C770      1.0  0.34405  0.61317  0.69895  1.0000
  C   C771      1.0  0.36931  0.61782  0.70267  1.0000
  C   C772      1.0  0.33891  0.57870  0.67527  1.0000
  C   C773      1.0  0.30198  0.63833  0.67516  1.0000
  H   H612      1.0  0.39450  0.70107  0.65284  1.0000
  C   C774      1.0  0.24433  0.54980  0.55891  1.0000
  H   H613      1.0  0.08194  0.52683  0.61242  1.0000
  C   C775      1.0  0.28194  0.61644  0.70665  1.0000
  C   C776      1.0  0.29209  0.58331  0.65164  1.0000
  C   C777      1.0  0.26938  0.56417  0.64315  1.0000
  C   C778      1.0  0.26684  0.56011  0.62175  1.0000
  C   C779      1.0  0.28689  0.57515  0.60868  1.0000
  C   C780      1.0  0.30955  0.59419  0.61696  1.0000
  C   C781      1.0  0.31218  0.59825  0.63833  1.0000
  H   H614      1.0  0.46656  0.99515  0.55148  1.0000
  H   H615      1.0  0.24117  0.56658  0.68518  1.0000
  H   H616      1.0  0.33662  0.62468  0.70711  1.0000
  H   H617      1.0  0.38114  0.63299  0.71326  1.0000
  H   H618      1.0  0.32736  0.56343  0.66464  1.0000
  H   H619      1.0  0.31059  0.63878  0.66030  1.0000
  P   P28       1.0  0.44625  0.80489  0.53880  1.0000
  H   H620      1.0  0.31022  0.97471  0.52125  1.0000
  S   S115      1.0  0.36080  0.78457  0.72580  1.0000
  H   H621      1.0  0.27528  0.59994  0.71664  1.0000
  H   H622      1.0  0.25371  0.55206  0.65288  1.0000
  H   H623      1.0  0.24942  0.54515  0.61528  1.0000
  H   H624      1.0  0.28497  0.57196  0.59214  1.0000
  H   H625      1.0  0.32522  0.60565  0.60682  1.0000
  H   H626      1.0  0.33008  0.61285  0.64448  1.0000
  H   H627      1.0  0.19348  0.57789  0.54011  1.0000
  C   C782      1.0  0.11842  0.55993  0.61616  1.0000
  C   C783      1.0  0.13412  0.58525  0.61011  1.0000
  C   C784      1.0  0.45251  0.93726  0.52899  1.0000
  P   P29       1.0  0.16665  0.60175  0.61951  1.0000
  C   C785      1.0  0.16573  0.61672  0.64392  1.0000
  C   C786      1.0  0.42198  0.79377  0.51878  1.0000
  H   H628      1.0  0.48952  0.69298  0.68181  1.0000
  C   C787      1.0  0.15991  0.60240  0.66222  1.0000
  C   C788      1.0  0.17960  0.57902  0.62240  1.0000
  C   C789      1.0  0.17353  0.55908  0.60790  1.0000
  C   C790      1.0  0.18257  0.54079  0.61067  1.0000
  C   C791      1.0  0.19820  0.54257  0.62753  1.0000
  C   C792      1.0  0.20497  0.56281  0.64164  1.0000
  C   C793      1.0  0.19591  0.58110  0.63900  1.0000
  C   C794      1.0  0.41445  0.80562  0.68266  1.0000
  C   C795      1.0  0.46642  0.64071  0.64998  1.0000
  H   H629      1.0  0.13536  0.61755  0.59287  1.0000
  H   H630      1.0  0.47212  0.72201  0.59471  1.0000
  H   H631      1.0  0.39532  0.84015  0.57665  1.0000
  H   H632      1.0  0.15542  0.58224  0.66191  1.0000
  H   H633      1.0  0.16108  0.55707  0.59485  1.0000
  H   H634      1.0  0.17624  0.52437  0.60043  1.0000
  H   H635      1.0  0.20401  0.52759  0.63011  1.0000
  H   H636      1.0  0.12695  0.50974  0.63031  1.0000
  H   H637      1.0  0.46480  0.57755  0.57310  1.0000
  H   H638      1.0  0.19449  0.53599  0.53493  1.0000
  C   C796      1.0  0.36414  0.58329  0.67920  1.0000
  C   C797      1.0  0.37933  0.60288  0.69287  1.0000
  C   C798      1.0  0.37105  0.68381  0.67921  1.0000
  C   C799      1.0  0.46352  0.75064  0.60953  1.0000
  H   H639      1.0  0.41999  0.74179  0.71081  1.0000
  C   C800      1.0  0.49482  0.54016  0.58199  1.0000
  C   C801      1.0  0.39232  0.70272  0.66932  1.0000
  C   C802      1.0  0.48694  0.68144  0.66802  1.0000
  C   C803      1.0  0.44527  0.73421  0.54342  1.0000
  H   H640      1.0  0.41535  0.81721  0.69617  1.0000
  C   C804      1.0  0.16023  0.61408  0.68124  1.0000
  H   H641      1.0  0.39889  0.60646  0.69594  1.0000
  C   C805      1.0  0.44183  0.80928  0.58160  1.0000
  C   C806      1.0  0.22479  0.66362  0.59215  1.0000
  C   C807      1.0  0.16565  0.64000  0.68213  1.0000
  H   H642      1.0  0.30279  0.55149  0.70740  1.0000
  C   C808      1.0  0.26279  0.54079  0.55752  1.0000
  H   H643      1.0  0.34303  0.72885  0.71347  1.0000
  H   H644      1.0  0.15628  0.60295  0.69533  1.0000
  C   C809      1.0  0.18715  0.62421  0.60062  1.0000
  C   C810      1.0  0.40379  0.56304  0.52064  1.0000
  C   C811      1.0  0.47257  0.56405  0.57012  1.0000
  C   C812      1.0  0.23157  0.72979  0.70323  1.0000
  C   C813      1.0  0.38603  0.97983  0.56087  1.0000
  C   C814      1.0  0.25139  0.78323  0.50691  1.0000
  C   C815      1.0  0.19260  0.57019  0.52467  1.0000
  C   C816      1.0  0.26535  0.52672  0.71833  1.0000
  C   C817      1.0  0.09362  0.54667  0.60822  1.0000
  H   H645      1.0  0.13671  0.60184  0.53774  1.0000
  C   C818      1.0  0.22473  0.74280  0.71841  1.0000
  C   C819      1.0  0.29018  0.66052  0.70178  1.0000
  C   C820      1.0  0.30089  0.66053  0.68247  1.0000
  P   P30       1.0  0.47936  0.52368  0.52019  1.0000
  H   H646      1.0  0.44009  0.70321  0.65530  1.0000
  H   H647      1.0  0.39007  0.89999  0.50326  1.0000
  C   C821      1.0  0.18209  0.61905  0.57940  1.0000
  H   H648      1.0  0.35754  0.66737  0.67057  1.0000
  C   C822      1.0  0.46493  0.76061  0.68337  1.0000
  H   H649      1.0  0.16598  0.60162  0.57410  1.0000
  H   H650      1.0  0.47601  0.72528  0.55203  1.0000
  C   C823      1.0  0.19776  0.63647  0.56474  1.0000
  H   H651      1.0  0.24724  0.56731  0.55114  1.0000
  H   H652      1.0  0.12548  0.55024  0.62672  1.0000
  C   C824      1.0  0.46800  0.94915  0.51205  1.0000
  C   C825      1.0  0.48083  0.53624  0.54613  1.0000
  C   C826      1.0  0.40648  0.72565  0.70187  1.0000
  C   C827      1.0  0.48557  0.54939  0.50225  1.0000
  C   C828      1.0  0.49462  0.95843  0.51349  1.0000
  S   S116      1.0  0.43957  0.60032  0.54524  1.0000
  H   H653      1.0  0.19332  0.63259  0.54841  1.0000
  C   C829      1.0  0.22206  0.53615  0.57027  1.0000
  C   C830      1.0  0.17007  0.64246  0.64483  1.0000
  H   H654      1.0  0.45508  0.80107  0.58325  1.0000
  S   S117      1.0  0.41980  0.63111  0.74415  1.0000
  H   H655      1.0  0.38203  0.70864  0.72803  1.0000
  C   C831      1.0  0.40184  0.80720  0.66480  1.0000
  H   H656      1.0  0.06508  0.54832  0.58806  1.0000
  H   H657      1.0  0.45519  0.77627  0.62858  1.0000
  C   C832      1.0  0.49988  0.87931  0.52996  1.0000
  C   C833      1.0  0.22993  0.77791  0.51928  1.0000
  H   H658      1.0  0.21416  0.64993  0.62306  1.0000
  H   H659      1.0  0.24891  0.50791  0.52231  1.0000
  C   C834      1.0  0.19000  0.58338  0.50760  1.0000
  H   H660      1.0  0.48946  0.81153  0.51224  1.0000
  H   H661      1.0  0.40910  0.83333  0.61127  1.0000
  H   H662      1.0  0.21090  0.53134  0.70650  1.0000
  H   H663      1.0  0.23819  0.77535  0.73925  1.0000
  H   H664      1.0  0.46192  0.55975  0.53816  1.0000
  C   C835      1.0  0.47408  0.83300  0.53021  1.0000
  C   C836      1.0  0.45530  0.70983  0.62464  1.0000
  C   C837      1.0  0.41105  0.77469  0.64833  1.0000
  C   C838      1.0  0.04873  0.62869  0.49947  1.0000
  H   H665      1.0  0.46003  0.72214  0.68929  1.0000
  H   H666      1.0  0.28006  0.55128  0.54865  1.0000
  H   H667      1.0  0.16594  0.64898  0.69694  1.0000
  C   C839      1.0  0.44577  0.71634  0.64240  1.0000
  H   H668      1.0  0.05930  0.56747  0.52540  1.0000
  H   H669      1.0  0.45660  0.88600  0.51541  1.0000
  C   C840      1.0  0.34660  0.98196  0.56810  1.0000
  C   C841      1.0  0.43298  0.81665  0.59936  1.0000
  H   H670      1.0  0.28935  0.67753  0.70773  1.0000
  C   C842      1.0  0.17032  0.65412  0.66391  1.0000
  C   C843      1.0  0.21897  0.65886  0.57110  1.0000
  C   C844      1.0  0.20912  0.64621  0.60687  1.0000
  C   C845      1.0  0.41727  0.82435  0.56034  1.0000
  C   C846      1.0  0.47207  0.74248  0.69149  1.0000
  H   H671      1.0  0.23095  0.67246  0.55969  1.0000
  C   C847      1.0  0.19303  0.54658  0.52182  1.0000
  H   H672      1.0  0.43191  0.92931  0.52772  1.0000
  H   H673      1.0  0.42819  0.51982  0.52854  1.0000
  H   H674      1.0  0.17391  0.67405  0.66458  1.0000
  C   C848      1.0  0.44463  0.73993  0.64375  1.0000
  Fe  Fe60      1.0  0.12291  0.51172  0.55576  1.0000
  C   C849      1.0  0.14259  0.52292  0.66097  1.0000
  C   C850      1.0  0.02825  0.58251  0.50432  1.0000
  H   H675      1.0  0.39001  0.77755  0.53998  1.0000
  H   H676      1.0  0.39314  0.82021  0.66439  1.0000
  C   C851      1.0  0.48732  0.76585  0.55415  1.0000
  C   C852      1.0  0.42794  0.58439  0.52141  1.0000
  H   H677      1.0  0.27203  0.63844  0.72861  1.0000
  C   C853      1.0  0.47080  0.55370  0.55028  1.0000
  S   S118      1.0  0.22201  0.58245  0.73432  1.0000
  C   C854      1.0  0.49217  0.83033  0.51739  1.0000
  C   C855      1.0  0.45419  0.75730  0.62736  1.0000
  H   H678      1.0  0.18908  0.75519  0.52293  1.0000
  H   H679      1.0  0.46059  0.60922  0.50361  1.0000
  H   H680      1.0  0.27216  0.51655  0.72868  1.0000
  H   H681      1.0  0.09178  0.59383  0.57863  1.0000
  C   C856      1.0  0.42550  0.78873  0.68337  1.0000
  H   H682      1.0  0.07780  0.54432  0.54571  1.0000
  C   C857      1.0  0.48139  0.78688  0.68589  1.0000
  H   H683      1.0  0.18897  0.60137  0.50979  1.0000
  C   C858      1.0  0.20540  0.75869  0.51327  1.0000
  C   C859      1.0  0.13316  0.59809  0.50450  1.0000
  H   H684      1.0  0.19060  0.51753  0.50017  1.0000
  C   C860      1.0  0.38492  0.70704  0.71161  1.0000
  C   C861      1.0  0.24345  0.76502  0.72768  1.0000
  C   C862      1.0  0.43378  0.81280  0.56194  1.0000
  C   C863      1.0  0.42444  0.77356  0.66603  1.0000
  C   C864      1.0  0.48463  0.55737  0.58596  1.0000
  C   C865      1.0  0.39340  0.55076  0.50170  1.0000
  H   H685      1.0  0.43206  0.71438  0.54016  1.0000
  H   H686      1.0  0.40859  0.76210  0.63523  1.0000
  H   H687      1.0  0.48558  0.82980  0.74448  1.0000
  H   H688      1.0  0.43445  0.78730  0.69768  1.0000
  H   H689      1.0  0.38920  0.94051  0.51350  1.0000
  H   H690      1.0  0.38951  0.79239  0.63410  1.0000
  C   C866      1.0  0.15699  0.52058  0.67757  1.0000
  C   C867      1.0  0.44192  0.59298  0.50320  1.0000
  C   C868      1.0  0.40000  0.79163  0.64769  1.0000
  H   H691      1.0  0.49361  0.80504  0.55443  1.0000
  C   C869      1.0  0.41035  0.72363  0.68067  1.0000
  Fe  Fe61      1.0  0.47826  0.63507  0.54715  1.0000
  P   P31       1.0  0.43624  0.74977  0.66798  1.0000
  H   H692      1.0  0.41142  0.82807  0.54535  1.0000
  H   H693      1.0  0.50134  0.51667  0.55950  1.0000
  H   H694      1.0  0.45664  0.69184  0.62389  1.0000
  C   C870      1.0  0.35596  0.96241  0.49816  1.0000
  C   C871      1.0  0.39838  0.93966  0.49911  1.0000
  C   C872      1.0  0.13784  0.50754  0.64298  1.0000
  H   H695      1.0  0.47683  0.80128  0.67916  1.0000
  C   C873      1.0  0.08409  0.55880  0.59455  1.0000
  C   C874      1.0  0.35005  0.00156  0.51910  1.0000
  H   H696      1.0  0.28337  0.79196  0.72842  1.0000
  H   H697      1.0  0.48632  0.56579  0.60123  1.0000
  C   C875      1.0  0.47808  0.85770  0.53639  1.0000
  C   C876      1.0  0.37713  0.77275  0.50855  1.0000
  C   C877      1.0  0.48090  0.65173  0.63212  1.0000
  C   C878      1.0  0.44090  0.99324  0.52687  1.0000
  C   C879      1.0  0.44175  0.87360  0.50493  1.0000
  C   C880      1.0  0.03080  0.61120  0.53273  1.0000
  C   C881      1.0  0.49885  0.67758  0.63222  1.0000
  H   H698      1.0  0.22622  0.50613  0.72823  1.0000
  C   C882      1.0  0.47003  0.74032  0.55019  1.0000
  H   H699      1.0  0.47103  0.76412  0.59698  1.0000
  C   C883      1.0  0.37761  0.98569  0.50250  1.0000
  H   H700      1.0  0.20489  0.73586  0.72283  1.0000
  C   C884      1.0  0.02292  0.58634  0.52488  1.0000
  H   H701      1.0  0.49825  0.94283  0.56377  1.0000
  C   C885      1.0  0.50164  0.69239  0.65022  1.0000
  H   H702      1.0  0.47632  0.99662  0.69790  1.0000
  C   C886      1.0  0.49498  0.75046  0.70243  1.0000
  H   H703      1.0  0.35707  0.76374  0.51271  1.0000
  H   H704      1.0  0.37697  0.84347  0.50043  1.0000
  H   H705      1.0  0.25985  0.50817  0.67458  1.0000
  H   H706      1.0  0.27374  0.51174  0.56648  1.0000
  C   C887      1.0  0.23615  0.50377  0.57818  1.0000
  C   C888      1.0  0.39686  0.84992  0.49642  1.0000
  H   H707      1.0  0.29236  0.50861  0.64971  1.0000
  S   S119      1.0  0.43421  0.82162  0.74126  1.0000
  H   H708      1.0  0.45146  0.98148  0.73021  1.0000
  H   H709      1.0  0.50008  0.73632  0.70907  1.0000
  H   H710      1.0  0.45913  0.95061  0.49776  1.0000
  C   C889      1.0  0.45941  0.00158  0.72609  1.0000
  C   C890      1.0  0.42888  0.79730  0.49783  1.0000
  S   S120      1.0  0.21523  0.57865  0.78513  1.0000
  C   C891      1.0  0.24223  0.54526  0.98053  1.0000
  Fe  Fe62      1.0  0.17640  0.54585  0.77975  1.0000
  C   C892      1.0  0.24438  0.54830  0.95899  1.0000
  C   C893      1.0  0.40587  0.72020  0.88104  1.0000
  Fe  Fe63      1.0  0.44813  0.65400  0.76909  1.0000
  Fe  Fe64      1.0  0.34033  0.76510  0.75475  1.0000
  H   H711      1.0  0.44339  0.73269  0.79235  1.0000
  S   S121      1.0  0.43198  0.68205  0.77340  1.0000
  H   H712      1.0  0.40542  0.99809  0.91108  1.0000
  Fe  Fe65      1.0  0.35691  0.81524  0.77939  1.0000
  C   C894      1.0  0.11057  0.56534  0.86469  1.0000
  S   S122      1.0  0.36526  0.83714  0.81026  1.0000
  C   C895      1.0  0.12898  0.58325  0.97228  1.0000
  S   S123      1.0  0.16392  0.50575  0.94045  1.0000
  S   S124      1.0  0.37363  0.78746  0.77567  1.0000
  Fe  Fe66      1.0  0.31618  0.84153  0.92428  1.0000
  S   S125      1.0  0.30079  0.86459  0.94308  1.0000
  S   S126      1.0  0.30051  0.82364  0.89266  1.0000
  Fe  Fe67      1.0  0.35141  0.84207  0.95921  1.0000
  S   S127      1.0  0.33874  0.86485  0.98023  1.0000
  H   H713      1.0  0.27370  0.64630  0.84913  1.0000
  Fe  Fe68      1.0  0.29868  0.83803  0.96931  1.0000
  C   C896      1.0  0.34957  0.95156  0.90075  1.0000
  Fe  Fe69      1.0  0.34221  0.88952  0.95247  1.0000
  S   S128      1.0  0.37024  0.93296  0.95424  1.0000
  S   S129      1.0  0.31164  0.81398  0.94993  1.0000
  S   S130      1.0  0.35706  0.86750  0.93197  1.0000
  C   C897      1.0  0.04476  0.51282  0.83545  1.0000
  H   H714      1.0  0.37434  0.72964  0.88308  1.0000
  C   C898      1.0  0.45892  0.74822  0.80040  1.0000
  S   S131      1.0  0.12451  0.54412  0.94633  1.0000
  H   H715      1.0  0.31183  0.60003  0.80788  1.0000
  C   C899      1.0  0.28669  0.58420  0.88319  1.0000
  C   C900      1.0  0.40291  0.75440  0.86159  1.0000
  H   H716      1.0  0.23736  0.78158  0.96290  1.0000
  C   C901      1.0  0.21011  0.53236  0.88997  1.0000
  C   C902      1.0  0.28208  0.63575  0.84078  1.0000
  C   C903      1.0  0.20505  0.75243  0.97902  1.0000
  H   H717      1.0  0.00824  0.56343  0.98506  1.0000
  Fe  Fe70      1.0  0.20579  0.59804  0.75903  1.0000
  H   H718      1.0  0.40540  0.54712  0.96585  1.0000
  C   C904      1.0  0.19393  0.67809  0.89852  1.0000
  H   H719      1.0  0.29105  0.90153  0.90898  1.0000
  C   C905      1.0  0.44465  0.91057  0.97865  1.0000
  H   H720      1.0  0.32057  0.69136  0.82211  1.0000
  S   S132      1.0  0.21080  0.63885  0.75981  1.0000
  C   C906      1.0  0.36212  0.93824  0.89181  1.0000
  H   H721      1.0  0.22784  0.51544  0.86991  1.0000
  C   C907      1.0  0.30379  0.60961  0.81784  1.0000
  H   H722      1.0  0.43983  0.71505  0.87596  1.0000
  H   H723      1.0  0.46106  0.94841  0.94505  1.0000
  C   C908      1.0  0.32646  0.75103  0.81291  1.0000
  C   C909      1.0  0.41917  0.91821  0.84046  1.0000
  C   C910      1.0  0.34708  0.83186  0.83327  1.0000
  C   C911      1.0  0.35903  0.84625  0.85109  1.0000
  C   C912      1.0  0.34520  0.84361  0.86949  1.0000
  C   C913      1.0  0.31911  0.82673  0.87019  1.0000
  C   C914      1.0  0.30725  0.81194  0.85251  1.0000
  C   C915      1.0  0.32117  0.81436  0.83415  1.0000
  H   H724      1.0  0.37909  0.85971  0.85061  1.0000
  H   H725      1.0  0.35465  0.85489  0.88302  1.0000
  H   H726      1.0  0.28708  0.79884  0.85291  1.0000
  H   H727      1.0  0.31171  0.80324  0.82055  1.0000
  H   H728      1.0  0.20476  0.70187  0.98914  1.0000
  C   C916      1.0  0.02158  0.50653  0.84555  1.0000
  H   H729      1.0  0.19669  0.74125  0.96526  1.0000
  C   C917      1.0  0.22454  0.55067  0.99146  1.0000
  H   H730      1.0  0.21198  0.50445  0.93693  1.0000
  C   C918      1.0  0.22828  0.77516  0.97769  1.0000
  H   H731      1.0  0.14625  0.59408  0.85379  1.0000
  C   C919      1.0  0.29377  0.70033  0.75934  1.0000
  C   C920      1.0  0.43325  0.84395  0.81623  1.0000
  H   H732      1.0  0.28359  0.54915  0.86938  1.0000
  H   H733      1.0  0.27871  0.72619  0.74958  1.0000
  H   H734      1.0  0.35121  0.55618  0.82592  1.0000
  H   H735      1.0  0.42752  0.66132  0.87687  1.0000
  H   H736      1.0  0.20795  0.80868  0.92223  1.0000
  H   H737      1.0  0.31461  0.94872  0.91400  1.0000
  H   H738      1.0  0.19765  0.56757  0.95153  1.0000
  H   H739      1.0  0.49838  0.98013  0.97171  1.0000
  C   C921      1.0  0.44789  0.89228  0.96650  1.0000
  C   C922      1.0  0.13809  0.51338  0.84720  1.0000
  H   H740      1.0  0.41316  0.94728  0.98642  1.0000
  H   H741      1.0  0.35631  0.71600  0.84593  1.0000
  H   H742      1.0  0.13254  0.61411  0.99274  1.0000
  C   C923      1.0  0.39920  0.83965  0.98899  1.0000
  C   C924      1.0  0.27758  0.60227  0.81637  1.0000
  S   S133      1.0  0.14986  0.53213  0.80773  1.0000
  S   S134      1.0  0.38096  0.82804  0.96619  1.0000
  C   C925      1.0  0.38188  0.79514  0.91410  1.0000
  H   H743      1.0  0.41726  0.98009  0.95510  1.0000
  C   C926      1.0  0.41239  0.82505  0.84844  1.0000
  H   H744      1.0  0.31946  0.58029  0.94337  1.0000
  C   C927      1.0  0.29193  0.60651  0.75698  1.0000
  C   C928      1.0  0.22221  0.74951  0.91904  1.0000
  C   C929      1.0  0.38994  0.78780  0.89592  1.0000
  C   C930      1.0  0.30836  0.64314  0.84229  1.0000
  C   C931      1.0  0.31936  0.62980  0.83115  1.0000
  P   P32       1.0  0.35375  0.64181  0.83075  1.0000
  C   C932      1.0  0.36170  0.61816  0.81900  1.0000
  C   C933      1.0  0.36551  0.67079  0.81568  1.0000
  C   C934      1.0  0.35349  0.67053  0.79685  1.0000
  C   C935      1.0  0.36124  0.69295  0.78535  1.0000
  C   C936      1.0  0.38104  0.71586  0.79249  1.0000
  C   C937      1.0  0.39314  0.71631  0.81121  1.0000
  C   C938      1.0  0.38549  0.69391  0.82281  1.0000
  C   C939      1.0  0.37968  0.62476  0.80304  1.0000
  C   C940      1.0  0.34862  0.91146  0.88921  1.0000
  C   C941      1.0  0.37713  0.58206  0.80372  1.0000
  C   C942      1.0  0.35902  0.57528  0.81949  1.0000
  C   C943      1.0  0.35152  0.59334  0.82727  1.0000
  C   C944      1.0  0.36894  0.64694  0.85587  1.0000
  C   C945      1.0  0.39528  0.65399  0.85700  1.0000
  C   C946      1.0  0.40725  0.65622  0.87613  1.0000
  C   C947      1.0  0.39304  0.65122  0.89431  1.0000
  C   C948      1.0  0.36678  0.64390  0.89337  1.0000
  C   C949      1.0  0.35470  0.64159  0.87422  1.0000
  H   H745      1.0  0.32025  0.65978  0.85160  1.0000
  H   H746      1.0  0.33815  0.65296  0.79093  1.0000
  H   H747      1.0  0.35208  0.69245  0.77066  1.0000
  H   H748      1.0  0.38693  0.73314  0.78341  1.0000
  H   H749      1.0  0.40843  0.73406  0.81670  1.0000
  H   H750      1.0  0.39506  0.69490  0.83730  1.0000
  H   H751      1.0  0.38811  0.64384  0.79660  1.0000
  C   C950      1.0  0.35676  0.97346  0.95084  1.0000
  H   H752      1.0  0.40656  0.65722  0.84303  1.0000
  H   H753      1.0  0.35574  0.63945  0.90749  1.0000
  H   H754      1.0  0.33428  0.63493  0.87387  1.0000
  S   S135      1.0  0.18944  0.52550  0.75597  1.0000
  C   C951      1.0  0.44278  0.75658  0.74975  1.0000
  C   C952      1.0  0.22148  0.54474  0.85448  1.0000
  C   C953      1.0  0.21083  0.56193  0.85600  1.0000
  C   C954      1.0  0.19993  0.56473  0.87467  1.0000
  C   C955      1.0  0.19975  0.54977  0.89166  1.0000
  P   P33       1.0  0.18663  0.58742  0.87737  1.0000
  C   C956      1.0  0.19824  0.61082  0.85677  1.0000
  C   C957      1.0  0.15197  0.57046  0.87712  1.0000
  C   C958      1.0  0.46574  0.93027  0.98862  1.0000
  H   H755      1.0  0.18996  0.69431  0.94879  1.0000
  C   C959      1.0  0.28258  0.55868  0.88358  1.0000
  H   H756      1.0  0.09945  0.57110  0.85445  1.0000
  C   C960      1.0  0.13924  0.55028  0.89097  1.0000
  C   C961      1.0  0.21496  0.63672  0.86096  1.0000
  C   C962      1.0  0.22414  0.65442  0.84483  1.0000
  C   C963      1.0  0.21660  0.64646  0.82443  1.0000
  C   C964      1.0  0.19966  0.62090  0.82018  1.0000
  C   C965      1.0  0.19048  0.60317  0.83622  1.0000
  C   C966      1.0  0.19757  0.60249  0.90243  1.0000
  C   C967      1.0  0.22354  0.61208  0.90781  1.0000
  C   C968      1.0  0.23204  0.62238  0.92756  1.0000
  C   C969      1.0  0.21466  0.62301  0.94213  1.0000
  C   C970      1.0  0.18881  0.61342  0.93695  1.0000
  C   C971      1.0  0.18026  0.60321  0.91721  1.0000
  S   S136      1.0  0.48816  0.69128  0.88510  1.0000
  H   H757      1.0  0.05190  0.52819  0.82428  1.0000
  H   H758      1.0  0.22904  0.54208  0.83984  1.0000
  H   H759      1.0  0.21079  0.57234  0.84236  1.0000
  H   H760      1.0  0.19129  0.55118  0.90619  1.0000
  S   S137      1.0  0.32158  0.79097  0.76049  1.0000
  C   C972      1.0  0.25033  0.72654  0.89677  1.0000
  C   C973      1.0  0.45885  0.77208  0.80250  1.0000
  C   C974      1.0  0.28873  0.72710  0.88174  1.0000
  H   H761      1.0  0.14974  0.54424  0.90156  1.0000
  H   H762      1.0  0.22085  0.64342  0.87660  1.0000
  H   H763      1.0  0.23700  0.67437  0.84809  1.0000
  H   H764      1.0  0.22367  0.66004  0.81183  1.0000
  H   H765      1.0  0.19360  0.61481  0.80435  1.0000
  H   H766      1.0  0.17733  0.58336  0.83253  1.0000
  H   H767      1.0  0.23707  0.61114  0.89680  1.0000
  H   H768      1.0  0.25201  0.62944  0.93172  1.0000
  H   H769      1.0  0.22104  0.63047  0.95759  1.0000
  H   H770      1.0  0.17520  0.61336  0.94837  1.0000
  H   H771      1.0  0.16003  0.59548  0.91382  1.0000
  H   H772      1.0  0.40841  0.78766  0.89572  1.0000
  H   H773      1.0  0.31686  0.56442  0.76390  1.0000
  Fe  Fe71      1.0  0.40591  0.66109  0.74702  1.0000
  C   C975      1.0  0.49313  0.91259  0.97440  1.0000
  S   S138      1.0  0.36544  0.65609  0.74651  1.0000
  H   H774      1.0  0.43146  0.87699  0.95904  1.0000
  C   C976      1.0  0.39260  0.73431  0.87588  1.0000
  H   H775      1.0  0.41695  0.91344  0.94081  1.0000
  C   C977      1.0  0.42950  0.72598  0.87197  1.0000
  C   C978      1.0  0.50047  0.78914  0.81895  1.0000
  H   H776      1.0  0.12164  0.58992  0.95952  1.0000
  C   C979      1.0  0.44095  0.97286  0.90525  1.0000
  S   S139      1.0  0.45671  0.63551  0.79702  1.0000
  C   C980      1.0  0.09818  0.54519  0.87843  1.0000
  C   C981      1.0  0.38747  0.60678  0.79560  1.0000
  Fe  Fe72      1.0  0.49919  0.67548  0.91372  1.0000
  H   H777      1.0  0.25776  0.63715  0.77078  1.0000
  H   H778      1.0  0.33802  0.58806  0.83990  1.0000
  C   C982      1.0  0.33810  0.62764  0.75244  1.0000
  H   H779      1.0  0.31282  0.87774  0.89310  1.0000
  H   H780      1.0  0.30123  0.71347  0.80118  1.0000
  H   H781      1.0  0.42731  0.82705  0.97991  1.0000
  C   C983      1.0  0.15271  0.51509  0.82949  1.0000
  H   H782      1.0  0.35455  0.78596  0.82644  1.0000
  H   H783      1.0  0.31846  0.76077  0.80322  1.0000
  H   H784      1.0  0.27388  0.60744  0.75707  1.0000
  H   H785      1.0  0.35757  0.58806  0.96431  1.0000
  H   H786      1.0  0.13839  0.62822  0.91418  1.0000
  C   C984      1.0  0.26671  0.61532  0.82781  1.0000
  H   H787      1.0  0.43390  0.93937  0.86863  1.0000
  H   H788      1.0  0.40241  0.65259  0.90907  1.0000
  C   C985      1.0  0.34702  0.76525  0.82604  1.0000
  C   C986      1.0  0.31675  0.72438  0.81176  1.0000
  H   H789      1.0  0.43067  0.81739  0.79195  1.0000
  H   H790      1.0  0.44352  0.86071  0.80677  1.0000
  C   C987      1.0  0.46952  0.76641  0.75026  1.0000
  C   C988      1.0  0.22090  0.52979  0.87141  1.0000
  C   C989      1.0  0.42599  0.81947  0.80789  1.0000
  C   C990      1.0  0.46927  0.68536  0.84545  1.0000
  C   C991      1.0  0.32758  0.71192  0.82375  1.0000
  C   C992      1.0  0.41167  0.79775  0.81971  1.0000
  C   C993      1.0  0.42650  0.84673  0.83650  1.0000
  H   H791      1.0  0.45581  0.68190  0.81389  1.0000
  H   H792      1.0  0.33899  0.77843  0.86515  1.0000
  H   H793      1.0  0.32470  0.79022  0.89748  1.0000
  H   H794      1.0  0.40529  0.77891  0.81274  1.0000
  H   H795      1.0  0.43153  0.86569  0.84276  1.0000
  C   C994      1.0  0.46208  0.67328  0.82592  1.0000
  H   H796      1.0  0.46858  0.70337  0.84825  1.0000
  H   H797      1.0  0.07747  0.53535  0.87896  1.0000
  C   C995      1.0  0.37636  0.96602  0.95282  1.0000
  C   C996      1.0  0.42695  0.76043  0.85290  1.0000
  H   H798      1.0  0.43575  0.77611  0.84224  1.0000
  C   C997      1.0  0.35801  0.75292  0.83827  1.0000
  C   C998      1.0  0.35095  0.78239  0.87875  1.0000
  C   C999      1.0  0.34282  0.78934  0.89704  1.0000
  C   C1000     1.0  0.40490  0.80036  0.84013  1.0000
  C   C1001     1.0  0.31077  0.91178  0.90407  1.0000
  C   C1002     1.0  0.27483  0.55719  0.92061  1.0000
  H   H799      1.0  0.28889  0.61636  0.90125  1.0000
  H   H800      1.0  0.39396  0.80061  0.92779  1.0000
  H   H801      1.0  0.26280  0.76311  0.94785  1.0000
  H   H802      1.0  0.35222  0.80173  0.92870  1.0000
  H   H803      1.0  0.24652  0.61006  0.82611  1.0000
  C   C1003     1.0  0.32306  0.89836  0.89521  1.0000
  C   C1004     1.0  0.23637  0.79550  0.91617  1.0000
  H   H804      1.0  0.33710  0.95893  0.95043  1.0000
  H   H805      1.0  0.40202  0.61213  0.78385  1.0000
  C   C1005     1.0  0.34803  0.72607  0.83709  1.0000
  H   H806      1.0  0.40682  0.82775  0.86388  1.0000
  C   C1006     1.0  0.41593  0.95315  0.90288  1.0000
  C   C1007     1.0  0.47804  0.67464  0.86115  1.0000
  H   H807      1.0  0.48547  0.64285  0.86926  1.0000
  P   P34       1.0  0.38512  0.77199  0.85465  1.0000
  C   C1008     1.0  0.37442  0.78117  0.87813  1.0000
  C   C1009     1.0  0.35830  0.79581  0.91467  1.0000
  H   H808      1.0  0.27892  0.59287  0.93430  1.0000
  S   S140      1.0  0.32618  0.72245  0.75783  1.0000
  H   H809      1.0  0.12548  0.52243  0.84729  1.0000
  C   C1010     1.0  0.27268  0.72127  0.97821  1.0000
  S   S141      1.0  0.16606  0.56671  0.75503  1.0000
  C   C1011     1.0  0.46366  0.65038  0.82185  1.0000
  H   H810      1.0  0.31388  0.64621  0.74891  1.0000
  C   C1012     1.0  0.27977  0.58313  0.92019  1.0000
  S   S142      1.0  0.37814  0.83844  0.75186  1.0000
  H   H811      1.0  0.16612  0.64387  0.88328  1.0000
  H   H812      1.0  0.40390  0.98585  0.84515  1.0000
  C   C1013     1.0  0.40183  0.98544  0.95365  1.0000
  H   H813      1.0  0.42557  0.90894  0.98034  1.0000
  C   C1014     1.0  0.24502  0.73482  0.87783  1.0000
  H   H814      1.0  0.20864  0.51991  0.90273  1.0000
  H   H815      1.0  0.20562  0.68467  0.88484  1.0000
  H   H816      1.0  0.17330  0.76499  0.92855  1.0000
  C   C1015     1.0  0.21068  0.56209  0.95963  1.0000
  C   C1016     1.0  0.29261  0.58329  0.76077  1.0000
  C   C1017     1.0  0.33780  0.55521  0.98360  1.0000
  Fe  Fe73      1.0  0.12659  0.50635  0.94667  1.0000
  C   C1018     1.0  0.26223  0.65648  0.76608  1.0000
  C   C1019     1.0  0.47204  0.89309  0.96457  1.0000
  H   H817      1.0  0.48008  0.72658  0.80436  1.0000
  C   C1020     1.0  0.18511  0.68339  0.93441  1.0000
  H   H818      1.0  0.35781  0.90058  0.88258  1.0000
  H   H819      1.0  0.36184  0.93420  0.84692  1.0000
  C   C1021     1.0  0.25817  0.69847  0.96737  1.0000
  Fe  Fe74      1.0  0.22789  0.55996  0.76015  1.0000
  H   H820      1.0  0.27717  0.71675  0.91308  1.0000
  C   C1022     1.0  0.43996  0.74603  0.85786  1.0000
  H   H821      1.0  0.38351  0.56837  0.79796  1.0000
  C   C1023     1.0  0.27413  0.74443  0.97105  1.0000
  C   C1024     1.0  0.13502  0.59691  0.99112  1.0000
  H   H822      1.0  0.36306  0.90767  0.81731  1.0000
  C   C1025     1.0  0.50030  0.58270  0.97473  1.0000
  H   H823      1.0  0.46225  0.55183  0.97329  1.0000
  H   H824      1.0  0.45821  0.75040  0.85076  1.0000
  P   P35       1.0  0.26594  0.53952  0.94458  1.0000
  S   S143      1.0  0.26846  0.81911  0.99468  1.0000
  S   S144      1.0  0.26398  0.55538  0.76506  1.0000
  H   H825      1.0  0.18196  0.72751  0.92642  1.0000
  H   H826      1.0  0.29630  0.73941  0.85008  1.0000
  H   H827      1.0  0.35458  0.55877  0.99283  1.0000
  C   C1026     1.0  0.26146  0.73922  0.86102  1.0000
  H   H828      1.0  0.14422  0.53516  0.98488  1.0000
  C   C1027     1.0  0.17150  0.65493  0.89756  1.0000
  C   C1028     1.0  0.37808  0.93009  0.84517  1.0000
  Fe  Fe75      1.0  0.39246  0.80894  0.74731  1.0000
  C   C1029     1.0  0.29293  0.52925  0.97581  1.0000
  C   C1030     1.0  0.14162  0.55234  0.98654  1.0000
  C   C1031     1.0  0.44863  0.94971  0.93321  1.0000
  Fe  Fe76      1.0  0.47779  0.63232  0.94463  1.0000
  P   P36       1.0  0.39493  0.95504  0.88315  1.0000
  C   C1032     1.0  0.49008  0.93125  0.98621  1.0000
  C   C1033     1.0  0.42391  0.92993  0.93074  1.0000
  H   H829      1.0  0.30599  0.72471  0.88334  1.0000
  C   C1034     1.0  0.39915  0.90903  0.82607  1.0000
  H   H830      1.0  0.47947  0.81101  0.81348  1.0000
  C   C1035     1.0  0.19739  0.74625  0.92340  1.0000
  S   S145      1.0  0.50202  0.63833  0.91629  1.0000
  C   C1036     1.0  0.37872  0.91512  0.82836  1.0000
  C   C1037     1.0  0.20090  0.69250  0.91699  1.0000
  C   C1038     1.0  0.39768  0.93862  0.86011  1.0000
  C   C1039     1.0  0.47944  0.79244  0.81207  1.0000
  H   H831      1.0  0.27318  0.52530  0.90199  1.0000
  C   C1040     1.0  0.28550  0.59651  0.90152  1.0000
  S   S146      1.0  0.47261  0.66789  0.94075  1.0000
  C   C1041     1.0  0.43138  0.58622  0.97374  1.0000
  C   C1042     1.0  0.40771  0.93160  0.91559  1.0000
  C   C1043     1.0  0.24512  0.69885  0.94935  1.0000
  C   C1044     1.0  0.21181  0.79216  0.92105  1.0000
  C   C1045     1.0  0.24642  0.72210  0.94210  1.0000
  H   H832      1.0  0.30277  0.67060  0.77047  1.0000
  C   C1046     1.0  0.15585  0.64609  0.91495  1.0000
  C   C1047     1.0  0.43996  0.60490  0.98939  1.0000
  C   C1048     1.0  0.33939  0.57178  0.96757  1.0000
  C   C1049     1.0  0.46814  0.98213  0.98981  1.0000
  H   H833      1.0  0.44795  0.98956  0.89543  1.0000
  C   C1050     1.0  0.24265  0.66265  0.76036  1.0000
  H   H834      1.0  0.26082  0.77738  0.91152  1.0000
  H   H835      1.0  0.01079  0.51714  0.84228  1.0000
  C   C1051     1.0  0.22825  0.55655  0.94861  1.0000
  C   C1052     1.0  0.19231  0.76754  0.92457  1.0000
  H   H836      1.0  0.35717  0.60378  0.75659  1.0000
  H   H837      1.0  0.25676  0.68049  0.97314  1.0000
  C   C1053     1.0  0.13732  0.57816  0.86421  1.0000
  H   H838      1.0  0.29072  0.59433  0.86864  1.0000
  C   C1054     1.0  0.24155  0.77429  0.91510  1.0000
  C   C1055     1.0  0.47993  0.74487  0.80716  1.0000
  C   C1056     1.0  0.26120  0.74489  0.95303  1.0000
  H   H839      1.0  0.28513  0.76215  0.97948  1.0000
  H   H840      1.0  0.23399  0.68103  0.94112  1.0000
  C   C1057     1.0  0.16270  0.66028  0.93337  1.0000
  P   P37       1.0  0.22971  0.72253  0.91869  1.0000
  C   C1058     1.0  0.31769  0.56723  0.95571  1.0000
  C   C1059     1.0  0.41211  0.56155  0.97798  1.0000
  H   H841      1.0  0.43497  0.91344  0.83864  1.0000
  H   H842      1.0  0.44319  0.77495  0.79611  1.0000
  C   C1060     1.0  0.41849  0.93297  0.85743  1.0000
  H   H843      1.0  0.15051  0.65351  0.94686  1.0000
  H   H844      1.0  0.25758  0.74620  0.84660  1.0000
  C   C1061     1.0  0.27662  0.54517  0.90217  1.0000
  H   H845      1.0  0.39919  0.89682  0.81330  1.0000
  C   C1062     1.0  0.29425  0.54583  0.95971  1.0000
  C   C1063     1.0  0.28769  0.67534  0.76572  1.0000
  H   H846      1.0  0.26589  0.58692  0.80577  1.0000
  H   H847      1.0  0.38856  0.91631  0.91419  1.0000
  H   H848      1.0  0.22843  0.73840  0.87617  1.0000
  C   C1064     1.0  0.11254  0.53787  0.89166  1.0000
  S   S147      1.0  0.44483  0.59303  0.94894  1.0000
  C   C1065     1.0  0.13218  0.56090  0.97000  1.0000
  C   C1066     1.0  0.32402  0.93834  0.90686  1.0000
  H   H849      1.0  0.10311  0.52267  0.90267  1.0000
  C   C1067     1.0  0.28333  0.73543  0.86299  1.0000
  C   C1068     1.0  0.47891  0.65138  0.85729  1.0000
  H   H850      1.0  0.39794  0.70483  0.89215  1.0000
  C   C1069     1.0  0.45716  0.97117  0.92045  1.0000
  C   C1070     1.0  0.47174  0.63933  0.83775  1.0000
  C   C1071     1.0  0.27231  0.72264  0.89859  1.0000
  C   C1072     1.0  0.31623  0.58236  0.76085  1.0000
  H   H851      1.0  0.25155  0.81459  0.91341  1.0000
  H   H852      1.0  0.47431  0.87836  0.95572  1.0000
  C   C1073     1.0  0.31455  0.62846  0.75253  1.0000
  H   H853      1.0  0.22855  0.55787  0.93195  1.0000
  H   H854      1.0  0.28252  0.72098  0.99230  1.0000
  H   H855      1.0  0.47291  0.62157  0.83481  1.0000
  C   C1074     1.0  0.45570  0.99733  0.99458  1.0000
  H   H856      1.0  0.35933  0.97206  0.90329  1.0000
  C   C1075     1.0  0.24947  0.50567  0.93831  1.0000
  C   C1076     1.0  0.33903  0.60458  0.75672  1.0000
  C   C1077     1.0  0.24854  0.68797  0.75492  1.0000
  C   C1078     1.0  0.47662  0.56628  0.98304  1.0000
  C   C1079     1.0  0.27415  0.70682  0.75424  1.0000
  H   H857      1.0  0.19468  0.56262  0.98953  1.0000
  H   H858      1.0  0.43090  0.73612  0.75105  1.0000
  H   H859      1.0  0.41085  0.76581  0.74695  1.0000
  S   S148      1.0  0.47787  0.67763  0.74585  1.0000
  H   H860      1.0  0.27516  0.51257  0.97913  1.0000
  Fe  Fe77      1.0  0.45965  0.70429  0.74880  1.0000
  C   C1080     1.0  0.40366  0.98852  0.87857  1.0000
  C   C1081     1.0  0.48777  0.99090  0.97506  1.0000
  C   C1082     1.0  0.31458  0.53395  0.98770  1.0000
  C   C1083     1.0  0.48477  0.79285  0.74876  1.0000
  C   C1084     1.0  0.42148  0.83655  0.99175  1.0000
  C   C1085     1.0  0.43146  0.77335  0.74750  1.0000
  H   H861      1.0  0.47626  0.98659  0.92242  1.0000
  C   C1086     1.0  0.50109  0.76545  0.81613  1.0000
  S   S149      1.0  0.48474  0.74651  0.75306  1.0000
  C   C1087     1.0  0.36253  0.99975  0.94951  1.0000
  H   H862      1.0  0.03649  0.50893  0.95695  1.0000
  H   H863      1.0  0.23333  0.69289  0.75083  1.0000
  H   H864      1.0  0.25346  0.53790  0.98895  1.0000
  C   C1088     1.0  0.40695  0.99829  0.85844  1.0000
  C   C1089     1.0  0.20883  0.55913  0.98105  1.0000
  H   H865      1.0  0.45471  0.62397  0.98613  1.0000
  H   H866      1.0  0.40245  0.50449  0.99114  1.0000
  H   H867      1.0  0.07169  0.51071  0.93481  1.0000
  C   C1090     1.0  0.47356  0.80941  0.74607  1.0000
  C   C1091     1.0  0.44696  0.79980  0.74538  1.0000
  H   H868      1.0  0.17970  0.50373  0.81587  1.0000
  H   H869      1.0  0.07705  0.50449  0.83227  1.0000
  Fe  Fe78      1.0  0.53898  0.35788  0.23330  1.0000
  Fe  Fe79      1.0  0.78647  0.45562  0.22041  1.0000
  H   H870      1.0  0.61143  0.40127  0.06159  1.0000
  C   C1092     1.0  0.79892  0.34170  0.00673  1.0000
  S   S150      1.0  0.58177  0.37548  0.23046  1.0000
  H   H871      1.0  0.55242  0.02237  0.18089  1.0000
  H   H872      1.0  0.56014  0.08526  0.06699  1.0000
  S   S151      1.0  0.74362  0.43577  0.22397  1.0000
  C   C1093     1.0  0.53957  0.22400  0.15793  1.0000
  S   S152      1.0  0.64484  0.22799  0.21201  1.0000
  H   H873      1.0  0.53052  0.15755  0.10121  1.0000
  H   H874      1.0  0.73370  0.38645  0.99640  1.0000
  C   C1094     1.0  0.53373  0.27670  0.15125  1.0000
  Fe  Fe80      1.0  0.64840  0.19174  0.21729  1.0000
  S   S153      1.0  0.63539  0.16179  0.19122  1.0000
  S   S154      1.0  0.58803  0.22489  0.24388  1.0000
  Fe  Fe81      1.0  0.63537  0.15948  0.03893  1.0000
  S   S155      1.0  0.64833  0.13943  0.01557  1.0000
  S   S156      1.0  0.60722  0.17515  0.03124  1.0000
  Fe  Fe82      1.0  0.67110  0.15666  0.07164  1.0000
  S   S157      1.0  0.68633  0.13572  0.05004  1.0000
  S   S158      1.0  0.68876  0.17354  0.10308  1.0000
  Fe  Fe83      1.0  0.68857  0.16516  0.02629  1.0000
  Fe  Fe84      1.0  0.74933  0.47130  0.24140  1.0000
  Fe  Fe85      1.0  0.64456  0.11150  0.04103  1.0000
  S   S159      1.0  0.62030  0.06876  0.03087  1.0000
  S   S160      1.0  0.67544  0.18676  0.04820  1.0000
  S   S161      1.0  0.62975  0.13108  0.06402  1.0000
  H   H875      1.0  0.58515  0.42145  0.19483  1.0000
  H   H876      1.0  0.56274  0.31612  0.15431  1.0000
  C   C1095     1.0  0.57674  0.31167  0.19439  1.0000
  C   C1096     1.0  0.52110  0.18862  0.09559  1.0000
  H   H877      1.0  0.96752  0.46188  0.01467  1.0000
  H   H878      1.0  0.61031  0.46746  0.20383  1.0000
  C   C1097     1.0  0.58084  0.15458  0.01614  1.0000
  C   C1098     1.0  0.74664  0.48408  0.05678  1.0000
  C   C1099     1.0  0.86760  0.45399  0.01545  1.0000
  C   C1100     1.0  0.81602  0.21338  0.01652  1.0000
  C   C1101     1.0  0.54280  0.30967  0.12546  1.0000
  C   C1102     1.0  0.58241  0.02332  0.16107  1.0000
  C   C1103     1.0  0.55787  0.12115  0.06615  1.0000
  H   H879      1.0  0.52804  0.16482  0.17532  1.0000
  C   C1104     1.0  0.60629  0.03596  0.03967  1.0000
  C   C1105     1.0  0.61105  0.02899  0.05932  1.0000
  C   C1106     1.0  0.64044  0.38509  0.15644  1.0000
  C   C1107     1.0  0.79625  0.34422  0.23164  1.0000
  H   H880      1.0  0.62351  0.04376  0.06991  1.0000
  C   C1108     1.0  0.95614  0.49763  0.07816  1.0000
  H   H881      1.0  0.69991  0.36369  0.21405  1.0000
  C   C1109     1.0  0.57692  0.12963  0.01144  1.0000
  S   S162      1.0  0.51106  0.34171  0.20603  1.0000
  H   H882      1.0  0.58978  0.12256  0.01756  1.0000
  C   C1110     1.0  0.71218  0.44414  0.17695  1.0000
  C   C1111     1.0  0.74121  0.45711  0.14787  1.0000
  H   H883      1.0  0.56215  0.13971  0.13898  1.0000
  H   H884      1.0  0.58442  0.25822  0.18263  1.0000
  C   C1112     1.0  0.58995  0.01613  0.02625  1.0000
  C   C1113     1.0  0.67273  0.17077  0.12699  1.0000
  C   C1114     1.0  0.64814  0.15124  0.13061  1.0000
  C   C1115     1.0  0.63677  0.14900  0.15024  1.0000
  C   C1116     1.0  0.64967  0.16647  0.16634  1.0000
  C   C1117     1.0  0.67393  0.18643  0.16250  1.0000
  C   C1118     1.0  0.68548  0.18836  0.14302  1.0000
  H   H885      1.0  0.63827  0.13745  0.11848  1.0000
  H   H886      1.0  0.61807  0.13343  0.15309  1.0000
  H   H887      1.0  0.68414  0.19991  0.17473  1.0000
  H   H888      1.0  0.70454  0.20346  0.14043  1.0000
  C   C1119     1.0  0.56422  0.10302  0.07514  1.0000
  C   C1120     1.0  0.60053  0.32626  0.20374  1.0000
  H   H889      1.0  0.63049  0.41118  0.13928  1.0000
  C   C1121     1.0  0.55643  0.23131  0.09620  1.0000
  C   C1122     1.0  0.53948  0.36141  0.17001  1.0000
  C   C1123     1.0  0.54190  0.36459  0.14834  1.0000
  H   H890      1.0  0.55610  0.37045  0.17991  1.0000
  H   H891      1.0  0.56053  0.37609  0.14175  1.0000
  S   S163      1.0  0.71156  0.28515  0.22100  1.0000
  C   C1124     1.0  0.61797  0.41681  0.18461  1.0000
  C   C1125     1.0  0.58868  0.27733  0.18807  1.0000
  C   C1126     1.0  0.66553  0.39442  0.19753  1.0000
  C   C1127     1.0  0.76358  0.41802  0.01268  1.0000
  H   H892      1.0  0.61258  0.47200  0.15674  1.0000
  S   S164      1.0  0.61391  0.47809  0.00558  1.0000
  H   H893      1.0  0.56013  0.15880  0.06847  1.0000
  C   C1128     1.0  0.81235  0.38939  0.24001  1.0000
  C   C1129     1.0  0.80063  0.37459  0.20473  1.0000
  H   H894      1.0  0.74959  0.45391  0.03942  1.0000
  H   H895      1.0  0.80068  0.49964  0.18291  1.0000
  H   H896      1.0  0.70918  0.44510  0.19343  1.0000
  H   H897      1.0  0.78322  0.46849  0.10018  1.0000
  S   S165      1.0  0.80377  0.45134  0.18972  1.0000
  H   H898      1.0  0.58977  0.18143  0.19583  1.0000
  H   H899      1.0  0.78685  0.33394  0.19960  1.0000
  H   H900      1.0  0.79855  0.37867  0.18871  1.0000
  H   H901      1.0  0.81536  0.41410  0.21440  1.0000
  H   H902      1.0  0.67933  0.46435  0.18573  1.0000
  C   C1130     1.0  0.52046  0.35296  0.13514  1.0000
  S   S166      1.0  0.82805  0.49658  0.05643  1.0000
  H   H903      1.0  0.82294  0.44912  0.14915  1.0000
  H   H904      1.0  0.51849  0.29871  0.09850  1.0000
  C   C1131     1.0  0.94617  0.49214  0.04156  1.0000
  H   H905      1.0  0.60858  0.01869  0.13997  1.0000
  H   H906      1.0  0.72462  0.44103  0.11833  1.0000
  C   C1132     1.0  0.75357  0.46418  0.05403  1.0000
  C   C1133     1.0  0.51634  0.27006  0.19448  1.0000
  C   C1134     1.0  0.73644  0.35947  0.23801  1.0000
  S   S167      1.0  0.72579  0.49236  0.23495  1.0000
  H   H907      1.0  0.81862  0.21388  0.03312  1.0000
  H   H908      1.0  0.70381  0.48246  0.14528  1.0000
  S   S168      1.0  0.71834  0.18505  0.00043  1.0000
  C   C1135     1.0  0.79408  0.34947  0.21087  1.0000
  H   H909      1.0  0.68119  0.41586  0.13216  1.0000
  C   C1136     1.0  0.63672  0.35959  0.15786  1.0000
  C   C1137     1.0  0.61823  0.31635  0.20543  1.0000
  H   H910      1.0  0.56693  0.18285  0.01184  1.0000
  H   H911      1.0  0.84509  0.47322  0.00665  1.0000
  H   H912      1.0  0.79005  0.26826  0.02192  1.0000
  H   H913      1.0  0.54889  0.11746  0.05101  1.0000
  C   C1138     1.0  0.61237  0.29197  0.19753  1.0000
  C   C1139     1.0  0.53404  0.23414  0.17599  1.0000
  H   H914      1.0  0.52795  0.01571  0.05175  1.0000
  H   H915      1.0  0.76038  0.46790  0.14183  1.0000
  H   H916      1.0  0.79121  0.32463  0.23602  1.0000
  H   H917      1.0  0.83393  0.47796  0.11869  1.0000
  C   C1140     1.0  0.58578  0.44892  0.00449  1.0000
  C   C1141     1.0  0.52107  0.27138  0.21584  1.0000
  H   H918      1.0  0.64556  0.35372  0.17006  1.0000
  H   H919      1.0  0.62589  0.28405  0.19940  1.0000
  H   H920      1.0  0.85524  0.23954  0.01061  1.0000
  H   H921      1.0  0.74288  0.33840  0.21297  1.0000
  H   H922      1.0  0.54668  0.40186  0.03706  1.0000
  C   C1142     1.0  0.69181  0.42864  0.16387  1.0000
  C   C1143     1.0  0.54034  0.40262  0.00445  1.0000
  C   C1144     1.0  0.57538  0.39810  0.07259  1.0000
  C   C1145     1.0  0.60149  0.41137  0.06831  1.0000
  C   C1146     1.0  0.61451  0.43780  0.07207  1.0000
  C   C1147     1.0  0.60138  0.45090  0.08015  1.0000
  C   C1148     1.0  0.57517  0.43763  0.08460  1.0000
  C   C1149     1.0  0.56223  0.41122  0.08048  1.0000
  P   P38       1.0  0.55839  0.45517  0.09409  1.0000
  C   C1150     1.0  0.52465  0.43439  0.09730  1.0000
  C   C1151     1.0  0.56990  0.46860  0.11943  1.0000
  H   H923      1.0  0.53792  0.27038  0.22171  1.0000
  C   C1152     1.0  0.73673  0.45824  0.16898  1.0000
  H   H924      1.0  0.77223  0.44319  0.06740  1.0000
  C   C1153     1.0  0.59747  0.47483  0.14924  1.0000
  C   C1154     1.0  0.55790  0.48134  0.13006  1.0000
  H   H925      1.0  0.50979  0.45678  0.03517  1.0000
  H   H926      1.0  0.59154  0.49490  0.17523  1.0000
  H   H927      1.0  0.59846  0.45447  0.12190  1.0000
  C   C1155     1.0  0.52474  0.19423  0.19362  1.0000
  C   C1156     1.0  0.51682  0.41523  0.11243  1.0000
  C   C1157     1.0  0.56405  0.47943  0.07491  1.0000
  C   C1158     1.0  0.55881  0.47191  0.05411  1.0000
  C   C1159     1.0  0.56609  0.49028  0.03855  1.0000
  C   C1160     1.0  0.76629  0.45816  0.06978  1.0000
  H   H928      1.0  0.58599  0.02105  0.01103  1.0000
  H   H929      1.0  0.54618  0.23547  0.14414  1.0000
  H   H930      1.0  0.56502  0.37768  0.06933  1.0000
  C   C1161     1.0  0.72104  0.44194  0.13468  1.0000
  H   H931      1.0  0.63456  0.44824  0.06811  1.0000
  H   H932      1.0  0.61149  0.47146  0.08253  1.0000
  H   H933      1.0  0.54188  0.40069  0.08288  1.0000
  C   C1162     1.0  0.85182  0.45937  0.00212  1.0000
  H   H934      1.0  0.58701  0.44258  0.03704  1.0000
  C   C1163     1.0  0.69639  0.42775  0.14261  1.0000
  C   C1164     1.0  0.57052  0.28694  0.18664  1.0000
  C   C1165     1.0  0.78285  0.44317  0.01129  1.0000
  S   S169      1.0  0.51191  0.37372  0.00406  1.0000
  H   H935      1.0  0.56288  0.31932  0.19384  1.0000
  H   H936      1.0  0.75242  0.46976  0.17928  1.0000
  H   H937      1.0  0.59544  0.04307  0.16493  1.0000
  H   H938      1.0  0.53080  0.41228  0.12161  1.0000
  H   H939      1.0  0.54979  0.45173  0.04988  1.0000
  C   C1166     1.0  0.71424  0.31299  0.23380  1.0000
  C   C1167     1.0  0.54806  0.30201  0.14459  1.0000
  H   H940      1.0  0.90751  0.41538  0.06887  1.0000
  C   C1168     1.0  0.76548  0.49221  0.09104  1.0000
  C   C1169     1.0  0.57654  0.43525  0.02282  1.0000
  H   H941      1.0  0.63622  0.32723  0.21341  1.0000
  C   C1170     1.0  0.58353  0.13192  0.10413  1.0000
  C   C1171     1.0  0.57619  0.14976  0.09567  1.0000
  P   P39       1.0  0.58602  0.18080  0.10782  1.0000
  C   C1172     1.0  0.58660  0.18051  0.13573  1.0000
  C   C1173     1.0  0.61748  0.20061  0.09786  1.0000
  C   C1174     1.0  0.63941  0.20504  0.10945  1.0000
  C   C1175     1.0  0.66372  0.21952  0.10119  1.0000
  C   C1176     1.0  0.66633  0.22925  0.08121  1.0000
  C   C1177     1.0  0.64458  0.22447  0.06944  1.0000
  C   C1178     1.0  0.62023  0.21016  0.07771  1.0000
  C   C1179     1.0  0.59973  0.20377  0.14660  1.0000
  C   C1180     1.0  0.60049  0.20411  0.16818  1.0000
  C   C1181     1.0  0.56435  0.19418  0.10161  1.0000
  C   C1182     1.0  0.53801  0.17814  0.09963  1.0000
  H   H942      1.0  0.80088  0.32512  0.01214  1.0000
  C   C1183     1.0  0.55378  0.41227  0.02287  1.0000
  S   S170      1.0  0.68583  0.21167  0.23461  1.0000
  C   C1184     1.0  0.57341  0.22088  0.10017  1.0000
  C   C1185     1.0  0.87626  0.43609  0.00941  1.0000
  H   H943      1.0  0.59478  0.13637  0.11819  1.0000
  H   H944      1.0  0.63790  0.19676  0.12463  1.0000
  H   H945      1.0  0.68056  0.22226  0.10999  1.0000
  H   H946      1.0  0.68519  0.23958  0.07459  1.0000
  H   H947      1.0  0.64650  0.23089  0.05358  1.0000
  H   H948      1.0  0.60358  0.20583  0.06811  1.0000
  H   H949      1.0  0.60974  0.22163  0.13839  1.0000
  H   H950      1.0  0.61105  0.22203  0.17647  1.0000
  H   H951      1.0  0.75049  0.37800  0.23270  1.0000
  H   H952      1.0  0.51720  0.22325  0.09048  1.0000
  C   C1186     1.0  0.67424  0.37203  0.23301  1.0000
  C   C1187     1.0  0.65741  0.38305  0.23373  1.0000
  H   H953      1.0  0.59358  0.23365  0.10211  1.0000
  C   C1188     1.0  0.76865  0.28945  0.05848  1.0000
  C   C1189     1.0  0.78431  0.28066  0.06860  1.0000
  C   C1190     1.0  0.81013  0.29727  0.07200  1.0000
  C   C1191     1.0  0.82041  0.32265  0.06514  1.0000
  C   C1192     1.0  0.80488  0.33152  0.05469  1.0000
  C   C1193     1.0  0.77882  0.31483  0.05169  1.0000
  P   P40       1.0  0.81800  0.36406  0.04525  1.0000
  C   C1194     1.0  0.81016  0.38421  0.06243  1.0000
  C   C1195     1.0  0.85239  0.37678  0.04321  1.0000
  C   C1196     1.0  0.86324  0.37070  0.02594  1.0000
  C   C1197     1.0  0.88983  0.38095  0.02403  1.0000
  C   C1198     1.0  0.90579  0.39710  0.03945  1.0000
  C   C1199     1.0  0.89516  0.40278  0.05694  1.0000
  C   C1200     1.0  0.86858  0.39250  0.05892  1.0000
  C   C1201     1.0  0.79188  0.37355  0.07813  1.0000
  C   C1202     1.0  0.78709  0.38954  0.09195  1.0000
  C   C1203     1.0  0.80050  0.41623  0.09023  1.0000
  C   C1204     1.0  0.81854  0.42694  0.07457  1.0000
  C   C1205     1.0  0.82329  0.41101  0.06075  1.0000
  C   C1206     1.0  0.80566  0.36346  0.01947  1.0000
  H   H954      1.0  0.76053  0.40778  0.02711  1.0000
  S   S171      1.0  0.79193  0.49215  0.23638  1.0000
  H   H955      1.0  0.56321  0.48418  0.02246  1.0000
  Fe  Fe86      1.0  0.68017  0.24722  0.23144  1.0000
  S   S172      1.0  0.50429  0.32801  0.05170  1.0000
  H   H956      1.0  0.74868  0.27646  0.05572  1.0000
  H   H957      1.0  0.77640  0.26091  0.07373  1.0000
  H   H958      1.0  0.82223  0.29041  0.07987  1.0000
  H   H959      1.0  0.84048  0.33515  0.06785  1.0000
  H   H960      1.0  0.76646  0.32133  0.04378  1.0000
  H   H961      1.0  0.85119  0.35820  0.01385  1.0000
  H   H962      1.0  0.89809  0.37669  0.01041  1.0000
  H   H963      1.0  0.92637  0.40531  0.03779  1.0000
  C   C1207     1.0  0.88507  0.31522  0.99738  1.0000
  H   H964      1.0  0.86080  0.39706  0.07266  1.0000
  H   H965      1.0  0.78160  0.35299  0.08000  1.0000
  H   H966      1.0  0.51137  0.45197  0.07373  1.0000
  H   H967      1.0  0.79721  0.42862  0.10120  1.0000
  H   H968      1.0  0.82930  0.44762  0.07330  1.0000
  H   H969      1.0  0.83771  0.41961  0.04899  1.0000
  H   H970      1.0  0.54217  0.48347  0.12296  1.0000
  H   H971      1.0  0.73735  0.48856  0.04412  1.0000
  C   C1208     1.0  0.62814  0.39171  0.14055  1.0000
  H   H972      1.0  0.61847  0.32151  0.14467  1.0000
  C   C1209     1.0  0.56408  0.14454  0.07623  1.0000
  H   H973      1.0  0.80990  0.40245  0.02042  1.0000
  C   C1210     1.0  0.77895  0.25661  0.00906  1.0000
  H   H974      1.0  0.77579  0.18712  0.01779  1.0000
  H   H975      1.0  0.56352  0.25190  0.09485  1.0000
  H   H976      1.0  0.52346  0.22663  0.20827  1.0000
  C   C1211     1.0  0.57330  0.15776  0.14685  1.0000
  C   C1212     1.0  0.64624  0.46890  0.19419  1.0000
  H   H977      1.0  0.91862  0.47414  0.06562  1.0000
  C   C1213     1.0  0.79196  0.19813  0.00791  1.0000
  H   H978      1.0  0.56552  0.14038  0.17700  1.0000
  C   C1214     1.0  0.57464  0.15810  0.16845  1.0000
  C   C1215     1.0  0.64466  0.42864  0.18204  1.0000
  C   C1216     1.0  0.82025  0.46632  0.14987  1.0000
  C   C1217     1.0  0.58828  0.18125  0.17911  1.0000
  H   H979      1.0  0.58315  0.09491  0.10059  1.0000
  C   C1218     1.0  0.62130  0.34115  0.14343  1.0000
  C   C1219     1.0  0.82649  0.48262  0.13256  1.0000
  H   H980      1.0  0.79475  0.45259  0.02459  1.0000
  H   H981      1.0  0.88873  0.43212  0.01955  1.0000
  C   C1220     1.0  0.80762  0.49464  0.16891  1.0000
  C   C1221     1.0  0.57710  0.10843  0.09411  1.0000
  C   C1222     1.0  0.51550  0.34651  0.17880  1.0000
  H   H982      1.0  0.60300  0.37833  0.11405  1.0000
  C   C1223     1.0  0.53031  0.21518  0.09381  1.0000
  H   H983      1.0  0.75215  0.22664  0.02874  1.0000
  H   H984      1.0  0.59773  0.33373  0.11621  1.0000
  C   C1224     1.0  0.75730  0.23298  0.01301  1.0000
  H   H985      1.0  0.55332  0.32940  0.12061  1.0000
  P   P41       1.0  0.66056  0.40937  0.17477  1.0000
  S   S173      1.0  0.52489  0.35700  0.10785  1.0000
  S   S174      1.0  0.87610  0.46850  0.04007  1.0000
  C   C1225     1.0  0.68685  0.37224  0.21462  1.0000
  C   C1226     1.0  0.52689  0.21913  0.19391  1.0000
  C   C1227     1.0  0.77237  0.47229  0.08824  1.0000
  C   C1228     1.0  0.69303  0.47897  0.24104  1.0000
  C   C1229     1.0  0.60949  0.34800  0.12748  1.0000
  H   H986      1.0  0.60498  0.34492  0.21035  1.0000
  P   P42       1.0  0.53873  0.26704  0.17668  1.0000
  C   C1230     1.0  0.56392  0.16352  0.00826  1.0000
  C   C1231     1.0  0.65285  0.39399  0.21605  1.0000
  H   H987      1.0  0.60677  0.39645  0.18161  1.0000
  Fe  Fe87      1.0  0.86672  0.50129  0.04695  1.0000
  C   C1232     1.0  0.60561  0.43090  0.19213  1.0000
  C   C1233     1.0  0.68277  0.38365  0.19699  1.0000
  C   C1234     1.0  0.61266  0.37319  0.12617  1.0000
  H   H988      1.0  0.65728  0.48888  0.19857  1.0000
  H   H989      1.0  0.77328  0.38124  0.10423  1.0000
  H   H990      1.0  0.69305  0.38403  0.18297  1.0000
  H   H991      1.0  0.54132  0.19123  0.14372  1.0000
  H   H992      1.0  0.63964  0.40229  0.21707  1.0000
  C   C1235     1.0  0.58954  0.46511  0.12929  1.0000
  C   C1236     1.0  0.81092  0.47229  0.16819  1.0000
  C   C1237     1.0  0.61977  0.45688  0.19708  1.0000
  C   C1238     1.0  0.65872  0.45484  0.18686  1.0000
  C   C1239     1.0  0.95897  0.46424  0.00050  1.0000
  C   C1240     1.0  0.80997  0.39456  0.21927  1.0000
  C   C1241     1.0  0.73215  0.33710  0.22687  1.0000
  C   C1242     1.0  0.58561  0.48772  0.15964  1.0000
  H   H993      1.0  0.51967  0.18295  0.20762  1.0000
  H   H994      1.0  0.87763  0.32355  0.00902  1.0000
  C   C1243     1.0  0.52307  0.29233  0.11296  1.0000
  C   C1244     1.0  0.80393  0.38498  0.01148  1.0000
  Fe  Fe88      1.0  0.62399  0.21954  0.24206  1.0000
  H   H995      1.0  0.52672  0.48272  0.99830  1.0000
  H   H996      1.0  0.85205  0.27881  0.99810  1.0000
  C   C1245     1.0  0.93847  0.48663  0.06214  1.0000
  C   C1246     1.0  0.58983  0.00957  0.14704  1.0000
  C   C1247     1.0  0.50436  0.27448  0.22975  1.0000
  C   C1248     1.0  0.83663  0.22808  0.00373  1.0000
  C   C1249     1.0  0.50604  0.43740  0.08543  1.0000
  C   C1250     1.0  0.55817  0.01164  0.17005  1.0000
  H   H997      1.0  0.71228  0.48286  0.10777  1.0000
  H   H998      1.0  0.58613  0.07634  0.99571  1.0000
  C   C1251     1.0  0.52961  0.18408  0.17547  1.0000
  C   C1252     1.0  0.53706  0.19897  0.15765  1.0000
  H   H999      1.0  0.93197  0.48372  0.02942  1.0000
  H   H1000     1.0  0.95000  0.49357  0.09406  1.0000
  C   C1253     1.0  0.56579  0.49092  0.15007  1.0000
  C   C1254     1.0  0.68128  0.49529  0.24108  1.0000
  C   C1255     1.0  0.50867  0.26711  0.11947  1.0000
  C   C1256     1.0  0.74327  0.21700  0.99661  1.0000
  C   C1257     1.0  0.51390  0.25931  0.13855  1.0000
  C   C1258     1.0  0.55607  0.11362  0.99905  1.0000
  H   H1001     1.0  0.65323  0.22019  0.99670  1.0000
  H   H1002     1.0  0.55293  0.09422  0.99564  1.0000
  C   C1259     1.0  0.74849  0.40604  0.99537  1.0000
  C   C1260     1.0  0.54323  0.14759  0.99559  1.0000
  C   C1261     1.0  0.53086  0.50276  0.99925  1.0000
  C   C1262     1.0  0.72041  0.50072  0.11648  1.0000
  H   H1003     1.0  0.55628  0.50050  0.15829  1.0000
  C   C1263     1.0  0.75231  0.49816  0.07540  1.0000
  C   C1264     1.0  0.71558  0.50040  0.13769  1.0000
  H   H1004     1.0  0.64612  0.49836  0.24437  1.0000
  C   C1265     1.0  0.65502  0.48559  0.24469  1.0000
  C   C1266     1.0  0.58670  0.25069  0.33049  1.0000
  S   S175      1.0  0.58374  0.38498  0.28094  1.0000
  H   H1005     1.0  0.84092  0.46416  0.35837  1.0000
  Fe  Fe89      1.0  0.54090  0.36701  0.28096  1.0000
  C   C1267     1.0  0.87014  0.36157  0.46590  1.0000
  P   P43       1.0  0.80893  0.35758  0.27314  1.0000
  S   S176      1.0  0.75304  0.45649  0.27243  1.0000
  C   C1268     1.0  0.66516  0.45129  0.40291  1.0000
  C   C1269     1.0  0.53571  0.17984  0.39549  1.0000
  Fe  Fe90      1.0  0.75114  0.42260  0.25460  1.0000
  Fe  Fe91      1.0  0.79502  0.47398  0.26640  1.0000
  Fe  Fe92      1.0  0.66225  0.20477  0.26378  1.0000
  S   S177      1.0  0.67949  0.20112  0.29476  1.0000
  H   H1006     1.0  0.72717  0.45759  0.38863  1.0000
  S   S178      1.0  0.65900  0.24155  0.26125  1.0000
  Fe  Fe93      1.0  0.64267  0.14639  0.41264  1.0000
  S   S179      1.0  0.66815  0.13094  0.42730  1.0000
  S   S180      1.0  0.62866  0.14544  0.37936  1.0000
  Fe  Fe94      1.0  0.62393  0.15437  0.45461  1.0000
  S   S181      1.0  0.64700  0.13894  0.47225  1.0000
  H   H1007     1.0  0.64354  0.41159  0.28830  1.0000
  Fe  Fe95      1.0  0.67893  0.16351  0.45095  1.0000
  S   S182      1.0  0.71956  0.18661  0.46489  1.0000
  Fe  Fe96      1.0  0.63437  0.10753  0.44769  1.0000
  S   S183      1.0  0.62375  0.06562  0.45723  1.0000
  S   S184      1.0  0.65608  0.18039  0.43442  1.0000
  S   S185      1.0  0.60861  0.12144  0.43212  1.0000
  C   C1270     1.0  0.87226  0.43606  0.49119  1.0000
  C   C1271     1.0  0.53693  0.35866  0.40887  1.0000
  H   H1008     1.0  0.68005  0.32206  0.31626  1.0000
  C   C1272     1.0  0.84368  0.33680  0.27097  1.0000
  H   H1009     1.0  0.73153  0.45274  0.31728  1.0000
  C   C1273     1.0  0.64923  0.28537  0.32424  1.0000
  C   C1274     1.0  0.53706  0.31914  0.48281  1.0000
  C   C1275     1.0  0.71532  0.49037  0.34996  1.0000
  C   C1276     1.0  0.56583  0.24404  0.34388  1.0000
  C   C1277     1.0  0.50256  0.32774  0.33448  1.0000
  C   C1278     1.0  0.60301  0.03335  0.44893  1.0000
  H   H1010     1.0  0.53757  0.33010  0.46922  1.0000
  C   C1279     1.0  0.68879  0.50297  0.31626  1.0000
  H   H1011     1.0  0.60939  0.07881  0.38569  1.0000
  H   H1012     1.0  0.70803  0.22984  0.47602  1.0000
  H   H1013     1.0  0.68594  0.29318  0.25687  1.0000
  C   C1280     1.0  0.59407  0.04218  0.36981  1.0000
  H   H1014     1.0  0.53709  0.27729  0.32149  1.0000
  C   C1281     1.0  0.62347  0.02959  0.39738  1.0000
  C   C1282     1.0  0.81188  0.35417  0.48478  1.0000
  C   C1283     1.0  0.57027  0.23396  0.48911  1.0000
  C   C1284     1.0  0.57089  0.16104  0.31951  1.0000
  H   H1015     1.0  0.52137  0.22871  0.42559  1.0000
  H   H1016     1.0  0.53520  0.07688  0.47956  1.0000
  S   S186      1.0  0.79346  0.43909  0.24993  1.0000
  C   C1285     1.0  0.66472  0.18617  0.31829  1.0000
  C   C1286     1.0  0.68002  0.19039  0.33609  1.0000
  C   C1287     1.0  0.66937  0.17841  0.35498  1.0000
  C   C1288     1.0  0.64325  0.16176  0.35621  1.0000
  C   C1289     1.0  0.62790  0.15777  0.33848  1.0000
  C   C1290     1.0  0.63848  0.17005  0.31968  1.0000
  H   H1017     1.0  0.70034  0.20280  0.33519  1.0000
  H   H1018     1.0  0.68144  0.18166  0.36843  1.0000
  H   H1019     1.0  0.60770  0.14488  0.33925  1.0000
  H   H1020     1.0  0.62648  0.16659  0.30615  1.0000
  S   S187      1.0  0.53940  0.38987  0.25345  1.0000
  C   C1291     1.0  0.72241  0.35771  0.25593  1.0000
  H   H1021     1.0  0.55524  0.17630  0.45221  1.0000
  C   C1292     1.0  0.76086  0.22207  0.48735  1.0000
  C   C1293     1.0  0.70409  0.33375  0.26259  1.0000
  C   C1294     1.0  0.61018  0.24589  0.37705  1.0000
  H   H1022     1.0  0.69290  0.33241  0.27622  1.0000
  C   C1295     1.0  0.71774  0.47033  0.36014  1.0000
  C   C1296     1.0  0.62458  0.22413  0.40192  1.0000
  C   C1297     1.0  0.58382  0.18429  0.28745  1.0000
  C   C1298     1.0  0.74297  0.29023  0.27678  1.0000
  C   C1299     1.0  0.76081  0.31508  0.27156  1.0000
  H   H1023     1.0  0.81051  0.41744  0.46858  1.0000
  C   C1300     1.0  0.89552  0.35085  0.49026  1.0000
  C   C1301     1.0  0.63078  0.21191  0.38576  1.0000
  H   H1024     1.0  0.66082  0.45552  0.30231  1.0000
  H   H1025     1.0  0.58063  0.17153  0.42367  1.0000
  C   C1302     1.0  0.77177  0.28899  0.30311  1.0000
  H   H1026     1.0  0.56193  0.29340  0.25438  1.0000
  S   S188      1.0  0.72709  0.38509  0.27024  1.0000
  H   H1027     1.0  0.50834  0.27583  0.24618  1.0000
  C   C1303     1.0  0.61534  0.23280  0.36078  1.0000
  C   C1304     1.0  0.80683  0.38126  0.29027  1.0000
  C   C1305     1.0  0.82284  0.39041  0.30771  1.0000
  C   C1306     1.0  0.82250  0.41029  0.31986  1.0000
  C   C1307     1.0  0.80591  0.42082  0.31488  1.0000
  C   C1308     1.0  0.78901  0.41086  0.29823  1.0000
  C   C1309     1.0  0.78930  0.39100  0.28608  1.0000
  H   H1028     1.0  0.77412  0.47782  0.35622  1.0000
  H   H1029     1.0  0.63469  0.02522  0.40851  1.0000
  H   H1030     1.0  0.53216  0.24883  0.35120  1.0000
  C   C1310     1.0  0.78476  0.32663  0.28140  1.0000
  C   C1311     1.0  0.78981  0.31375  0.29770  1.0000
  H   H1031     1.0  0.62289  0.01731  0.46744  1.0000
  C   C1312     1.0  0.74852  0.27707  0.29242  1.0000
  C   C1313     1.0  0.67744  0.40727  0.29497  1.0000
  H   H1032     1.0  0.64977  0.22770  0.31575  1.0000
  H   H1033     1.0  0.52529  0.43865  0.41634  1.0000
  H   H1034     1.0  0.83601  0.38267  0.31162  1.0000
  H   H1035     1.0  0.83555  0.41803  0.33281  1.0000
  H   H1036     1.0  0.80623  0.43686  0.32374  1.0000
  H   H1037     1.0  0.77599  0.41887  0.29445  1.0000
  H   H1038     1.0  0.77634  0.38379  0.27301  1.0000
  C   C1314     1.0  0.59391  0.01809  0.36852  1.0000
  C   C1315     1.0  0.87367  0.34337  0.47788  1.0000
  H   H1039     1.0  0.63277  0.50081  0.33388  1.0000
  C   C1316     1.0  0.51008  0.35414  0.33372  1.0000
  H   H1040     1.0  0.73485  0.25756  0.29612  1.0000
  C   C1317     1.0  0.84046  0.35915  0.27359  1.0000
  H   H1041     1.0  0.71412  0.40921  0.30240  1.0000
  C   C1318     1.0  0.72461  0.47280  0.38105  1.0000
  H   H1042     1.0  0.77920  0.47341  0.31837  1.0000
  C   C1319     1.0  0.55076  0.38534  0.40920  1.0000
  C   C1320     1.0  0.73645  0.21612  0.47914  1.0000
  C   C1321     1.0  0.63446  0.36051  0.33257  1.0000
  C   C1322     1.0  0.61584  0.34428  0.31868  1.0000
  C   C1323     1.0  0.59222  0.34481  0.31747  1.0000
  C   C1324     1.0  0.58711  0.36146  0.33020  1.0000
  C   C1325     1.0  0.60553  0.37755  0.34445  1.0000
  C   C1326     1.0  0.62942  0.37721  0.34537  1.0000
  P   P44       1.0  0.59879  0.39977  0.35993  1.0000
  C   C1327     1.0  0.59109  0.41876  0.34187  1.0000
  C   C1328     1.0  0.57335  0.38343  0.37816  1.0000
  C   C1329     1.0  0.56895  0.39772  0.39393  1.0000
  C   C1330     1.0  0.54109  0.34430  0.39324  1.0000
  C   C1331     1.0  0.55916  0.35658  0.37786  1.0000
  C   C1332     1.0  0.60693  0.42920  0.32471  1.0000
  C   C1333     1.0  0.60067  0.44278  0.30986  1.0000
  C   C1334     1.0  0.57839  0.44581  0.31195  1.0000
  C   C1335     1.0  0.56261  0.43565  0.32910  1.0000
  C   C1336     1.0  0.56895  0.42223  0.34408  1.0000
  C   C1337     1.0  0.62592  0.42005  0.37572  1.0000
  C   C1338     1.0  0.63381  0.40909  0.39178  1.0000
  C   C1339     1.0  0.65344  0.42467  0.40526  1.0000
  C   C1340     1.0  0.60696  0.01301  0.45704  1.0000
  C   C1341     1.0  0.63773  0.44682  0.37351  1.0000
  H   H1043     1.0  0.65294  0.36045  0.33305  1.0000
  H   H1044     1.0  0.61990  0.33174  0.30840  1.0000
  H   H1045     1.0  0.57815  0.33290  0.30615  1.0000
  H   H1046     1.0  0.56890  0.36212  0.32864  1.0000
  H   H1047     1.0  0.64435  0.39006  0.35558  1.0000
  H   H1048     1.0  0.57978  0.41841  0.39460  1.0000
  H   H1049     1.0  0.52977  0.32363  0.39283  1.0000
  H   H1050     1.0  0.56187  0.34495  0.36595  1.0000
  H   H1051     1.0  0.62366  0.42609  0.32251  1.0000
  H   H1052     1.0  0.66624  0.48304  0.38542  1.0000
  H   H1053     1.0  0.57297  0.45530  0.29991  1.0000
  C   C1342     1.0  0.69996  0.31147  0.25151  1.0000
  H   H1054     1.0  0.55603  0.41374  0.35681  1.0000
  H   H1055     1.0  0.62430  0.38852  0.39415  1.0000
  H   H1056     1.0  0.65909  0.41614  0.41785  1.0000
  H   H1057     1.0  0.63129  0.45579  0.36182  1.0000
  C   C1343     1.0  0.74831  0.32597  0.41125  1.0000
  C   C1344     1.0  0.75136  0.32763  0.43270  1.0000
  C   C1345     1.0  0.75919  0.35127  0.44276  1.0000
  C   C1346     1.0  0.76373  0.37323  0.43140  1.0000
  C   C1347     1.0  0.76044  0.37174  0.40981  1.0000
  C   C1348     1.0  0.75280  0.34787  0.39983  1.0000
  P   P45       1.0  0.76560  0.40028  0.39547  1.0000
  C   C1349     1.0  0.75184  0.41729  0.41052  1.0000
  C   C1350     1.0  0.79943  0.42066  0.39208  1.0000
  C   C1351     1.0  0.80825  0.43584  0.37433  1.0000
  C   C1352     1.0  0.83429  0.45224  0.37196  1.0000
  C   C1353     1.0  0.85166  0.45409  0.38748  1.0000
  C   C1354     1.0  0.84302  0.43938  0.40531  1.0000
  C   C1355     1.0  0.81702  0.42284  0.40768  1.0000
  C   C1356     1.0  0.76548  0.44384  0.41393  1.0000
  C   C1357     1.0  0.75524  0.45670  0.42637  1.0000
  C   C1358     1.0  0.73131  0.44317  0.43553  1.0000
  C   C1359     1.0  0.71748  0.41673  0.43209  1.0000
  C   C1360     1.0  0.72769  0.40380  0.41964  1.0000
  C   C1361     1.0  0.75061  0.39157  0.37021  1.0000
  C   C1362     1.0  0.72881  0.39483  0.36533  1.0000
  C   C1363     1.0  0.71751  0.38788  0.34572  1.0000
  C   C1364     1.0  0.72780  0.37758  0.33089  1.0000
  C   C1365     1.0  0.74956  0.37447  0.33556  1.0000
  C   C1366     1.0  0.76115  0.38177  0.35500  1.0000
  H   H1058     1.0  0.74227  0.30758  0.40347  1.0000
  H   H1059     1.0  0.74761  0.31056  0.44152  1.0000
  H   H1060     1.0  0.76174  0.35253  0.45941  1.0000
  H   H1061     1.0  0.76970  0.39137  0.43950  1.0000
  H   H1062     1.0  0.74986  0.34577  0.38332  1.0000
  H   H1063     1.0  0.79505  0.43570  0.36252  1.0000
  C   C1367     1.0  0.58236  0.18418  0.33059  1.0000
  H   H1064     1.0  0.87173  0.46741  0.38593  1.0000
  H   H1065     1.0  0.85650  0.44125  0.41750  1.0000
  H   H1066     1.0  0.81081  0.41221  0.42183  1.0000
  H   H1067     1.0  0.78419  0.45471  0.40724  1.0000
  H   H1068     1.0  0.76610  0.47719  0.42901  1.0000
  H   H1069     1.0  0.72364  0.45317  0.44544  1.0000
  H   H1070     1.0  0.69898  0.40621  0.43930  1.0000
  H   H1071     1.0  0.71689  0.38327  0.41728  1.0000
  H   H1072     1.0  0.72058  0.40290  0.37647  1.0000
  H   H1073     1.0  0.70085  0.39064  0.34194  1.0000
  H   H1074     1.0  0.71918  0.37225  0.31563  1.0000
  H   H1075     1.0  0.75762  0.36671  0.32394  1.0000
  H   H1076     1.0  0.77831  0.37966  0.35819  1.0000
  C   C1368     1.0  0.78467  0.27839  0.44922  1.0000
  C   C1369     1.0  0.79770  0.26497  0.44177  1.0000
  C   C1370     1.0  0.82366  0.27822  0.43696  1.0000
  C   C1371     1.0  0.83665  0.30484  0.43986  1.0000
  C   C1372     1.0  0.82387  0.31835  0.44802  1.0000
  C   C1373     1.0  0.79764  0.30496  0.45235  1.0000
  P   P46       1.0  0.84104  0.35278  0.45129  1.0000
  C   C1374     1.0  0.53180  0.05735  0.48262  1.0000
  C   C1375     1.0  0.84649  0.36588  0.42556  1.0000
  C   C1376     1.0  0.87106  0.37712  0.41690  1.0000
  C   C1377     1.0  0.87478  0.38745  0.39703  1.0000
  C   C1378     1.0  0.85397  0.38614  0.38553  1.0000
  C   C1379     1.0  0.82935  0.37423  0.39381  1.0000
  C   C1380     1.0  0.82561  0.36412  0.41374  1.0000
  C   C1381     1.0  0.58858  0.26580  0.31312  1.0000
  H   H1077     1.0  0.60301  0.25973  0.37398  1.0000
  H   H1078     1.0  0.63760  0.29382  0.33064  1.0000
  C   C1382     1.0  0.82338  0.36581  0.46621  1.0000
  H   H1079     1.0  0.58280  0.04717  0.35910  1.0000
  C   C1383     1.0  0.50901  0.43012  0.40595  1.0000
  H   H1080     1.0  0.67994  0.46340  0.41366  1.0000
  C   C1384     1.0  0.81013  0.39929  0.47276  1.0000
  C   C1385     1.0  0.82298  0.38886  0.46053  1.0000
  H   H1081     1.0  0.76456  0.26801  0.45294  1.0000
  H   H1082     1.0  0.78763  0.24427  0.43985  1.0000
  H   H1083     1.0  0.83374  0.26778  0.43113  1.0000
  H   H1084     1.0  0.85677  0.31486  0.43603  1.0000
  H   H1085     1.0  0.78715  0.31477  0.45841  1.0000
  H   H1086     1.0  0.88737  0.37790  0.42535  1.0000
  H   H1087     1.0  0.89385  0.39646  0.39055  1.0000
  H   H1088     1.0  0.85694  0.39430  0.37020  1.0000
  H   H1089     1.0  0.81320  0.37304  0.38485  1.0000
  H   H1090     1.0  0.80647  0.35499  0.42003  1.0000
  C   C1386     1.0  0.62645  0.21642  0.36528  1.0000
  H   H1091     1.0  0.75610  0.32498  0.25950  1.0000
  H   H1092     1.0  0.71495  0.50041  0.47200  1.0000
  C   C1387     1.0  0.54199  0.29785  0.48107  1.0000
  C   C1388     1.0  0.75527  0.41999  0.48293  1.0000
  H   H1093     1.0  0.83349  0.39944  0.44721  1.0000
  H   H1094     1.0  0.53182  0.43971  0.37833  1.0000
  C   C1389     1.0  0.67342  0.30148  0.31639  1.0000
  H   H1095     1.0  0.56296  0.23100  0.35653  1.0000
  C   C1390     1.0  0.52118  0.18259  0.41169  1.0000
  C   C1391     1.0  0.51265  0.43067  0.38458  1.0000
  C   C1392     1.0  0.79580  0.48381  0.32804  1.0000
  Fe  Fe97      1.0  0.57975  0.35327  0.25923  1.0000
  C   C1393     1.0  0.60259  0.30735  0.25793  1.0000
  H   H1096     1.0  0.57258  0.28729  0.29672  1.0000
  H   H1097     1.0  0.50552  0.31802  0.32118  1.0000
  H   H1098     1.0  0.58963  0.24860  0.48669  1.0000
  C   C1394     1.0  0.82008  0.49531  0.31902  1.0000
  C   C1395     1.0  0.57914  0.15417  0.48772  1.0000
  S   S189      1.0  0.86915  0.46359  0.45839  1.0000
  C   C1396     1.0  0.59569  0.20746  0.29844  1.0000
  C   C1397     1.0  0.65739  0.46235  0.38700  1.0000
  S   S190      1.0  0.60683  0.44812  0.25068  1.0000
  C   C1398     1.0  0.65609  0.24827  0.31604  1.0000
  H   H1099     1.0  0.67013  0.38831  0.28792  1.0000
  C   C1399     1.0  0.57091  0.27555  0.31008  1.0000
  C   C1400     1.0  0.60867  0.01158  0.38227  1.0000
  C   C1401     1.0  0.55488  0.22107  0.47214  1.0000
  H   H1100     1.0  0.56291  0.14320  0.28929  1.0000
  C   C1402     1.0  0.64007  0.45937  0.24793  1.0000
  C   C1403     1.0  0.86823  0.33828  0.27044  1.0000
  H   H1101     1.0  0.63506  0.06743  0.41034  1.0000
  H   H1102     1.0  0.57885  0.04242  0.42888  1.0000
  H   H1103     1.0  0.56150  0.14303  0.32764  1.0000
  H   H1104     1.0  0.58109  0.18365  0.34725  1.0000
  C   C1404     1.0  0.65176  0.44295  0.24837  1.0000
  C   C1405     1.0  0.70215  0.41894  0.30323  1.0000
  C   C1406     1.0  0.66798  0.49794  0.32940  1.0000
  H   H1105     1.0  0.66617  0.48789  0.34371  1.0000
  C   C1407     1.0  0.81444  0.50021  0.36226  1.0000
  C   C1408     1.0  0.62372  0.05371  0.39852  1.0000
  C   C1409     1.0  0.61867  0.27589  0.25233  1.0000
  H   H1106     1.0  0.69234  0.25612  0.30248  1.0000
  H   H1107     1.0  0.71505  0.45306  0.35199  1.0000
  S   S191      1.0  0.82480  0.49351  0.29195  1.0000
  H   H1108     1.0  0.88567  0.40183  0.45836  1.0000
  C   C1410     1.0  0.79300  0.48641  0.34950  1.0000
  C   C1411     1.0  0.52853  0.18223  0.43231  1.0000
  C   C1412     1.0  0.50580  0.36636  0.35109  1.0000
  H   H1109     1.0  0.92406  0.41482  0.48045  1.0000
  C   C1413     1.0  0.59528  0.20755  0.32013  1.0000
  C   C1414     1.0  0.64009  0.25857  0.32350  1.0000
  H   H1110     1.0  0.72498  0.28098  0.26838  1.0000
  S   S192      1.0  0.60885  0.33868  0.26523  1.0000
  H   H1111     1.0  0.81324  0.33721  0.48996  1.0000
  H   H1112     1.0  0.61251  0.45010  0.29626  1.0000
  C   C1415     1.0  0.86214  0.38307  0.27461  1.0000
  H   H1113     1.0  0.70757  0.30337  0.30211  1.0000
  H   H1114     1.0  0.53000  0.18012  0.37959  1.0000
  C   C1416     1.0  0.68898  0.29099  0.30848  1.0000
  C   C1417     1.0  0.72670  0.23395  0.48213  1.0000
  C   C1418     1.0  0.91372  0.37655  0.49110  1.0000
  C   C1419     1.0  0.55085  0.26982  0.32400  1.0000
  C   C1420     1.0  0.55731  0.17617  0.39978  1.0000
  H   H1115     1.0  0.88590  0.43276  0.48199  1.0000
  Fe  Fe98      1.0  0.58210  0.40549  0.25256  1.0000
  C   C1421     1.0  0.54865  0.04832  0.47495  1.0000
  C   C1422     1.0  0.52998  0.20158  0.47521  1.0000
  C   C1423     1.0  0.88667  0.38450  0.27407  1.0000
  S   S193      1.0  0.53961  0.38081  0.46666  1.0000
  H   H1116     1.0  0.77595  0.27876  0.31530  1.0000
  C   C1424     1.0  0.56424  0.17499  0.42027  1.0000
  H   H1117     1.0  0.63892  0.19883  0.38906  1.0000
  C   C1425     1.0  0.60907  0.06004  0.38475  1.0000
  H   H1118     1.0  0.54482  0.43712  0.33028  1.0000
  H   H1119     1.0  0.54578  0.29197  0.46605  1.0000
  H   H1120     1.0  0.82029  0.40527  0.25089  1.0000
  Fe  Fe99      1.0  0.85987  0.49598  0.45018  1.0000
  H   H1121     1.0  0.76872  0.20856  0.48520  1.0000
  C   C1426     1.0  0.68044  0.26443  0.30861  1.0000
  H   H1122     1.0  0.90333  0.40303  0.27484  1.0000
  C   C1427     1.0  0.86213  0.45213  0.48376  1.0000
  C   C1428     1.0  0.67241  0.44539  0.30330  1.0000
  H   H1123     1.0  0.64023  0.42271  0.25104  1.0000
  H   H1124     1.0  0.83721  0.46953  0.49036  1.0000
  S   S194      1.0  0.60061  0.17256  0.46863  1.0000
  H   H1125     1.0  0.61006  0.25104  0.41012  1.0000
  H   H1126     1.0  0.58393  0.18434  0.27072  1.0000
  H   H1127     1.0  0.78240  0.45665  0.47136  1.0000
  C   C1429     1.0  0.57170  0.16109  0.29794  1.0000
  S   S195      1.0  0.53681  0.33326  0.26109  1.0000
  H   H1128     1.0  0.60494  0.22524  0.28995  1.0000
  H   H1129     1.0  0.75097  0.41090  0.46781  1.0000
  H   H1130     1.0  0.58737  0.42139  0.48001  1.0000
  H   H1131     1.0  0.85925  0.32359  0.47838  1.0000
  H   H1132     1.0  0.56246  0.22617  0.45669  1.0000
  C   C1430     1.0  0.62300  0.30098  0.25724  1.0000
  H   H1133     1.0  0.59017  0.12350  0.48651  1.0000
  C   C1431     1.0  0.57775  0.28854  0.25374  1.0000
  C   C1432     1.0  0.58230  0.02719  0.43537  1.0000
  H   H1134     1.0  0.54746  0.39632  0.42147  1.0000
  C   C1433     1.0  0.79847  0.38734  0.49114  1.0000
  H   H1135     1.0  0.56531  0.06090  0.46613  1.0000
  H   H1136     1.0  0.62777  0.22035  0.41779  1.0000
  H   H1137     1.0  0.80788  0.32257  0.30591  1.0000
  P   P47       1.0  0.60928  0.23766  0.33415  1.0000
  C   C1434     1.0  0.91019  0.39482  0.47943  1.0000
  C   C1435     1.0  0.71202  0.44373  0.31160  1.0000
  H   H1138     1.0  0.82730  0.31826  0.26892  1.0000
  C   C1436     1.0  0.54983  0.17783  0.43645  1.0000
  C   C1437     1.0  0.61448  0.24129  0.39757  1.0000
  C   C1438     1.0  0.88972  0.36210  0.27210  1.0000
  C   C1439     1.0  0.88846  0.38738  0.46693  1.0000
  H   H1139     1.0  0.64229  0.31551  0.26031  1.0000
  H   H1140     1.0  0.52283  0.34912  0.42067  1.0000
  S   S196      1.0  0.52379  0.37273  0.31133  1.0000
  H   H1141     1.0  0.56848  0.17377  0.38731  1.0000
  C   C1440     1.0  0.54817  0.25387  0.34079  1.0000
  S   S197      1.0  0.82065  0.49212  0.44398  1.0000
  C   C1441     1.0  0.77302  0.44574  0.48491  1.0000
  C   C1442     1.0  0.54746  0.40192  0.48807  1.0000
  C   C1443     1.0  0.54396  0.02296  0.47848  1.0000
  H   H1142     1.0  0.63161  0.20691  0.35294  1.0000
  H   H1143     1.0  0.60339  0.26975  0.30167  1.0000
  H   H1144     1.0  0.90874  0.36324  0.27148  1.0000
  C   C1444     1.0  0.69717  0.45711  0.31190  1.0000
  C   C1445     1.0  0.66253  0.42045  0.29512  1.0000
  S   S198      1.0  0.62507  0.18179  0.24671  1.0000
  H   H1145     1.0  0.51126  0.38667  0.35057  1.0000
  H   H1146     1.0  0.55689  0.01605  0.47215  1.0000
  P   P48       1.0  0.71054  0.48949  0.32225  1.0000
  H   H1147     1.0  0.87059  0.32096  0.26840  1.0000
  H   H1148     1.0  0.63463  0.27141  0.25136  1.0000
  H   H1149     1.0  0.51621  0.14652  0.47765  1.0000
  C   C1446     1.0  0.52226  0.00634  0.48950  1.0000
  H   H1150     1.0  0.50409  0.18465  0.40812  1.0000
  H   H1151     1.0  0.63141  0.01723  0.34388  1.0000
  H   H1152     1.0  0.66239  0.02121  0.31681  1.0000
  H   H1153     1.0  0.64789  0.38313  0.24805  1.0000
  H   H1154     1.0  0.86012  0.40068  0.27549  1.0000
  C   C1447     1.0  0.65737  0.00632  0.32831  1.0000
  P   P49       1.0  0.50977  0.18515  0.45346  1.0000
  C   C1448     1.0  0.57334  0.26317  0.24942  1.0000
  C   C1449     1.0  0.74139  0.25744  0.49269  1.0000
  C   C1450     1.0  0.57294  0.42026  0.49098  1.0000
  H   H1155     1.0  0.67741  0.36328  0.24672  1.0000
  C   C1451     1.0  0.63972  0.00396  0.34375  1.0000
  H   H1156     1.0  0.68737  0.44009  0.24513  1.0000
  H   H1157     1.0  0.55408  0.24841  0.24671  1.0000
  C   C1452     1.0  0.59382  0.25681  0.24874  1.0000
  C   C1453     1.0  0.80457  0.36404  0.24652  1.0000
  H   H1158     1.0  0.56444  0.18162  0.49274  1.0000
  H   H1159     1.0  0.72768  0.49551  0.27935  1.0000
  C   C1454     1.0  0.72884  0.49511  0.39203  1.0000
  C   C1455     1.0  0.50378  0.22470  0.43365  1.0000
  H   H1160     1.0  0.73459  0.49717  0.40813  1.0000
  C   C1456     1.0  0.67835  0.45278  0.24506  1.0000
  H   H1161     1.0  0.58259  0.00469  0.35657  1.0000
  H   H1162     1.0  0.73387  0.27125  0.49440  1.0000
  H   H1163     1.0  0.65745  0.25542  0.48823  1.0000
  C   C1457     1.0  0.57760  0.13048  0.49346  1.0000
  C   C1458     1.0  0.51067  0.04125  0.49430  1.0000
  Fe  Fe100     1.0  0.63481  0.47358  0.73014  1.0000
  C   C1459     1.0  0.78872  0.45187  0.71662  1.0000
  H   H1164     1.0  0.52695  0.31950  0.59001  1.0000
  P   P50       1.0  0.58558  0.11150  0.57589  1.0000
  S   S199      1.0  0.57323  0.21722  0.72541  1.0000
  H   H1165     1.0  0.79245  0.47766  0.50535  1.0000
  H   H1166     1.0  0.76383  0.38387  0.60750  1.0000
  C   C1460     1.0  0.79358  0.43684  0.65314  1.0000
  Fe  Fe101     1.0  0.53234  0.19586  0.73522  1.0000
  Fe  Fe102     1.0  0.78436  0.34374  0.72583  1.0000
  S   S200      1.0  0.80863  0.36466  0.69780  1.0000
  H   H1167     1.0  0.68022  0.48103  0.64697  1.0000
  S   S201      1.0  0.74256  0.31660  0.72280  1.0000
  Fe  Fe103     1.0  0.81892  0.31952  0.53377  1.0000
  S   S202      1.0  0.80607  0.33966  0.55759  1.0000
  S   S203      1.0  0.78375  0.29405  0.51324  1.0000
  Fe  Fe104     1.0  0.87610  0.35057  0.54929  1.0000
  S   S204      1.0  0.86536  0.37123  0.57420  1.0000
  S   S205      1.0  0.91755  0.35593  0.54413  1.0000
  Fe  Fe105     1.0  0.83147  0.33327  0.58030  1.0000
  S   S206      1.0  0.81284  0.31398  0.61058  1.0000
  Fe  Fe106     1.0  0.84066  0.37575  0.54945  1.0000
  H   H1168     1.0  0.78603  0.38612  0.57430  1.0000
  S   S207      1.0  0.84343  0.31156  0.55699  1.0000
  S   S208      1.0  0.85244  0.35676  0.52414  1.0000
  S   S209      1.0  0.56949  0.45612  0.54410  1.0000
  H   H1169     1.0  0.75314  0.35104  0.68391  1.0000
  C   C1461     1.0  0.56133  0.43581  0.52223  1.0000
  H   H1170     1.0  0.54089  0.22877  0.66523  1.0000
  H   H1171     1.0  0.52793  0.20444  0.52777  1.0000
  C   C1462     1.0  0.99540  0.45441  0.60986  1.0000
  C   C1463     1.0  0.51671  0.05357  0.61307  1.0000
  C   C1464     1.0  0.94976  0.38053  0.54834  1.0000
  C   C1465     1.0  0.97036  0.37444  0.54544  1.0000
  C   C1466     1.0  0.95549  0.40582  0.55405  1.0000
  H   H1172     1.0  0.96640  0.35507  0.54101  1.0000
  H   H1173     1.0  0.94006  0.41102  0.55617  1.0000
  C   C1467     1.0  0.63871  0.14477  0.62182  1.0000
  C   C1468     1.0  0.58378  0.39410  0.55097  1.0000
  C   C1469     1.0  0.99611  0.39308  0.54822  1.0000
  H   H1174     1.0  0.60569  0.14781  0.61057  1.0000
  C   C1470     1.0  0.50836  0.10686  0.64708  1.0000
  C   C1471     1.0  0.77536  0.24539  0.49818  1.0000
  H   H1175     1.0  0.71998  0.41345  0.70224  1.0000
  C   C1472     1.0  0.54230  0.12384  0.51644  1.0000
  C   C1473     1.0  0.54440  0.14792  0.51127  1.0000
  C   C1474     1.0  0.56996  0.07294  0.54536  1.0000
  H   H1176     1.0  0.53147  0.15459  0.51799  1.0000
  H   H1177     1.0  0.52670  0.14143  0.71371  1.0000
  C   C1475     1.0  0.53685  0.29169  0.51807  1.0000
  H   H1178     1.0  0.67923  0.16370  0.57425  1.0000
  H   H1179     1.0  0.93021  0.38232  0.50123  1.0000
  C   C1476     1.0  0.62978  0.10911  0.58989  1.0000
  C   C1477     1.0  0.53587  0.41737  0.51943  1.0000
  C   C1478     1.0  0.80891  0.35029  0.67345  1.0000
  C   C1479     1.0  0.82222  0.36604  0.65679  1.0000
  C   C1480     1.0  0.82330  0.35529  0.63737  1.0000
  C   C1481     1.0  0.81131  0.32865  0.63445  1.0000
  C   C1482     1.0  0.79791  0.31297  0.65105  1.0000
  C   C1483     1.0  0.79658  0.32368  0.67040  1.0000
  H   H1180     1.0  0.83178  0.38664  0.65899  1.0000
  H   H1181     1.0  0.83352  0.36747  0.62467  1.0000
  H   H1182     1.0  0.78859  0.29234  0.64900  1.0000
  H   H1183     1.0  0.78634  0.31132  0.68304  1.0000
  H   H1184     1.0  0.92905  0.48330  0.50949  1.0000
  C   C1484     1.0  0.77005  0.43512  0.56663  1.0000
  C   C1485     1.0  0.98127  0.42453  0.55670  1.0000
  C   C1486     1.0  0.81281  0.44212  0.63844  1.0000
  C   C1487     1.0  0.87782  0.31696  0.60900  1.0000
  H   H1185     1.0  0.62613  0.09454  0.57813  1.0000
  C   C1488     1.0  0.56257  0.39679  0.60317  1.0000
  H   H1186     1.0  0.86711  0.49605  0.55963  1.0000
  C   C1489     1.0  0.61823  0.13887  0.60818  1.0000
  C   C1490     1.0  0.53569  0.20902  0.51228  1.0000
  C   C1491     1.0  0.60008  0.39023  0.56476  1.0000
  C   C1492     1.0  0.56276  0.14394  0.72367  1.0000
  C   C1493     1.0  0.59365  0.36559  0.57208  1.0000
  C   C1494     1.0  0.52526  0.17624  0.67691  1.0000
  H   H1187     1.0  0.87231  0.41142  0.51583  1.0000
  C   C1495     1.0  0.79271  0.43398  0.72861  1.0000
  C   C1496     1.0  0.51657  0.47835  0.52297  1.0000
  H   H1188     1.0  0.90292  0.44573  0.56853  1.0000
  H   H1189     1.0  0.51263  0.45938  0.52839  1.0000
  C   C1497     1.0  0.55865  0.08869  0.59046  1.0000
  C   C1498     1.0  0.72959  0.46585  0.54102  1.0000
  H   H1190     1.0  0.71850  0.48386  0.70854  1.0000
  S   S210      1.0  0.83544  0.41175  0.54566  1.0000
  C   C1499     1.0  0.58214  0.31852  0.63932  1.0000
  C   C1500     1.0  0.58717  0.34440  0.63910  1.0000
  C   C1501     1.0  0.58584  0.35679  0.65745  1.0000
  P   P51       1.0  0.59511  0.39081  0.65789  1.0000
  C   C1502     1.0  0.57737  0.39766  0.67775  1.0000
  C   C1503     1.0  0.62890  0.40530  0.66367  1.0000
  C   C1504     1.0  0.63713  0.40288  0.68357  1.0000
  C   C1505     1.0  0.66320  0.41214  0.68792  1.0000
  C   C1506     1.0  0.68119  0.42371  0.67239  1.0000
  C   C1507     1.0  0.67321  0.42612  0.65253  1.0000
  C   C1508     1.0  0.64714  0.41669  0.64808  1.0000
  C   C1509     1.0  0.58902  0.42001  0.68989  1.0000
  C   C1510     1.0  0.57503  0.42511  0.70524  1.0000
  C   C1511     1.0  0.54932  0.40825  0.70834  1.0000
  C   C1512     1.0  0.53737  0.38637  0.69584  1.0000
  C   C1513     1.0  0.55132  0.38108  0.68057  1.0000
  C   C1514     1.0  0.56808  0.38691  0.62114  1.0000
  C   C1515     1.0  0.52033  0.30949  0.71838  1.0000
  H   H1191     1.0  0.59265  0.35484  0.62474  1.0000
  H   H1192     1.0  0.62340  0.39368  0.69572  1.0000
  H   H1193     1.0  0.66945  0.41037  0.70338  1.0000
  H   H1194     1.0  0.70131  0.43073  0.67575  1.0000
  H   H1195     1.0  0.68723  0.43530  0.64055  1.0000
  H   H1196     1.0  0.64142  0.41818  0.63245  1.0000
  H   H1197     1.0  0.60883  0.43362  0.68754  1.0000
  H   H1198     1.0  0.53734  0.28107  0.53157  1.0000
  C   C1516     1.0  0.75753  0.49086  0.56892  1.0000
  C   C1517     1.0  0.74223  0.48319  0.66062  1.0000
  H   H1199     1.0  0.54182  0.36404  0.67102  1.0000
  H   H1200     1.0  0.55668  0.36687  0.62472  1.0000
  H   H1201     1.0  0.52391  0.12108  0.63823  1.0000
  H   H1202     1.0  0.85638  0.31388  0.63676  1.0000
  H   H1203     1.0  0.58149  0.35288  0.69075  1.0000
  H   H1204     1.0  0.57254  0.23783  0.52235  1.0000
  C   C1518     1.0  0.76201  0.39104  0.68633  1.0000
  S   S211      1.0  0.51814  0.10327  0.53283  1.0000
  P   P52       1.0  0.77355  0.45891  0.54741  1.0000
  C   C1519     1.0  0.60383  0.36164  0.73826  1.0000
  C   C1520     1.0  0.55367  0.34882  0.55271  1.0000
  C   C1521     1.0  0.57669  0.30515  0.65796  1.0000
  C   C1522     1.0  0.75528  0.41532  0.60013  1.0000
  H   H1205     1.0  0.78199  0.39713  0.68271  1.0000
  C   C1523     1.0  0.72019  0.35618  0.69293  1.0000
  C   C1524     1.0  0.56084  0.37346  0.54475  1.0000
  H   H1206     1.0  0.53042  0.30331  0.70745  1.0000
  S   S212      1.0  0.63948  0.43739  0.72874  1.0000
  H   H1207     1.0  0.72502  0.45246  0.52822  1.0000
  C   C1525     1.0  0.72878  0.48851  0.67631  1.0000
  H   H1208     1.0  0.50993  0.28300  0.61412  1.0000
  C   C1526     1.0  0.65498  0.13323  0.61931  1.0000
  C   C1527     1.0  0.86454  0.42397  0.51035  1.0000
  H   H1209     1.0  0.53104  0.06965  0.72000  1.0000
  H   H1210     1.0  0.61647  0.38041  0.73248  1.0000
  C   C1528     1.0  0.75196  0.47280  0.55280  1.0000
  H   H1211     1.0  0.54522  0.17951  0.64820  1.0000
  C   C1529     1.0  0.00189  0.41840  0.55382  1.0000
  C   C1530     1.0  0.95609  0.41660  0.61815  1.0000
  C   C1531     1.0  0.80592  0.48440  0.54790  1.0000
  P   P53       1.0  0.92314  0.40261  0.62639  1.0000
  C   C1532     1.0  0.90517  0.41682  0.61364  1.0000
  C   C1533     1.0  0.90605  0.36893  0.61989  1.0000
  C   C1534     1.0  0.91124  0.35937  0.60140  1.0000
  C   C1535     1.0  0.89736  0.33340  0.59614  1.0000
  C   C1536     1.0  0.87216  0.32646  0.62717  1.0000
  C   C1537     1.0  0.88597  0.35238  0.63250  1.0000
  C   C1538     1.0  0.91275  0.42851  0.59428  1.0000
  C   C1539     1.0  0.89743  0.43746  0.58375  1.0000
  H   H1212     1.0  0.55220  0.17453  0.59056  1.0000
  C   C1540     1.0  0.69234  0.15476  0.51669  1.0000
  C   C1541     1.0  0.88185  0.41375  0.62207  1.0000
  C   C1542     1.0  0.92379  0.40715  0.65403  1.0000
  C   C1543     1.0  0.92109  0.42800  0.66268  1.0000
  C   C1544     1.0  0.92104  0.43099  0.68417  1.0000
  C   C1545     1.0  0.92409  0.41344  0.69711  1.0000
  C   C1546     1.0  0.92755  0.39308  0.68858  1.0000
  C   C1547     1.0  0.92761  0.39005  0.66712  1.0000
  C   C1548     1.0  0.51135  0.29593  0.56262  1.0000
  C   C1549     1.0  0.53129  0.32633  0.50204  1.0000
  C   C1550     1.0  0.55932  0.11549  0.50794  1.0000
  C   C1551     1.0  0.85146  0.49957  0.55412  1.0000
  H   H1213     1.0  0.59641  0.14098  0.73375  1.0000
  H   H1214     1.0  0.92565  0.37197  0.59082  1.0000
  H   H1215     1.0  0.90140  0.32616  0.58181  1.0000
  H   H1216     1.0  0.88049  0.35947  0.64622  1.0000
  C   C1552     1.0  0.77872  0.45763  0.50437  1.0000
  H   H1217     1.0  0.77484  0.49677  0.57802  1.0000
  C   C1553     1.0  0.52913  0.48819  0.59616  1.0000
  H   H1218     1.0  0.72915  0.38612  0.49896  1.0000
  H   H1219     1.0  0.87513  0.40377  0.63654  1.0000
  H   H1220     1.0  0.91889  0.44187  0.65290  1.0000
  C   C1554     1.0  0.65584  0.48405  0.67087  1.0000
  C   C1555     1.0  0.76584  0.26343  0.50082  1.0000
  H   H1221     1.0  0.93000  0.37953  0.69862  1.0000
  H   H1222     1.0  0.93035  0.37419  0.66074  1.0000
  C   C1556     1.0  0.66976  0.20760  0.61348  1.0000
  C   C1557     1.0  0.64548  0.20661  0.61215  1.0000
  C   C1558     1.0  0.63467  0.20619  0.59281  1.0000
  C   C1559     1.0  0.64836  0.20739  0.57477  1.0000
  C   C1560     1.0  0.67302  0.20898  0.57598  1.0000
  C   C1561     1.0  0.68330  0.20830  0.59549  1.0000
  P   P54       1.0  0.69178  0.21246  0.55291  1.0000
  C   C1562     1.0  0.68887  0.18171  0.54422  1.0000
  C   C1563     1.0  0.68093  0.22635  0.53257  1.0000
  C   C1564     1.0  0.61367  0.12109  0.59203  1.0000
  H   H1223     1.0  0.73865  0.40693  0.53334  1.0000
  H   H1224     1.0  0.54563  0.26759  0.49736  1.0000
  H   H1225     1.0  0.58133  0.07770  0.61106  1.0000
  C   C1565     1.0  0.69406  0.25266  0.52819  1.0000
  C   C1566     1.0  0.68272  0.16142  0.55813  1.0000
  C   C1567     1.0  0.68145  0.13799  0.55128  1.0000
  C   C1568     1.0  0.68622  0.13466  0.53058  1.0000
  C   C1569     1.0  0.56296  0.16314  0.49697  1.0000
  C   C1570     1.0  0.69368  0.17818  0.52345  1.0000
  C   C1571     1.0  0.72486  0.23370  0.55880  1.0000
  C   C1572     1.0  0.73098  0.25401  0.57305  1.0000
  C   C1573     1.0  0.75642  0.26955  0.57859  1.0000
  C   C1574     1.0  0.77594  0.26529  0.56970  1.0000
  C   C1575     1.0  0.77016  0.24589  0.55488  1.0000
  C   C1576     1.0  0.74470  0.23011  0.54940  1.0000
  H   H1226     1.0  0.67821  0.20800  0.62849  1.0000
  H   H1227     1.0  0.63504  0.20618  0.62613  1.0000
  H   H1228     1.0  0.61580  0.20534  0.59181  1.0000
  H   H1229     1.0  0.63979  0.20757  0.56002  1.0000
  H   H1230     1.0  0.70211  0.20905  0.59684  1.0000
  H   H1231     1.0  0.56126  0.25462  0.69657  1.0000
  H   H1232     1.0  0.51510  0.36463  0.56242  1.0000
  H   H1233     1.0  0.64878  0.19035  0.52384  1.0000
  C   C1577     1.0  0.77996  0.41753  0.56270  1.0000
  H   H1234     1.0  0.71118  0.26512  0.53666  1.0000
  H   H1235     1.0  0.98528  0.44394  0.56103  1.0000
  H   H1236     1.0  0.62033  0.34205  0.71962  1.0000
  H   H1237     1.0  0.51409  0.46998  0.60111  1.0000
  H   H1238     1.0  0.69643  0.15237  0.50066  1.0000
  H   H1239     1.0  0.69893  0.19364  0.51246  1.0000
  H   H1240     1.0  0.71615  0.25777  0.58004  1.0000
  H   H1241     1.0  0.76118  0.28494  0.58986  1.0000
  H   H1242     1.0  0.79555  0.27720  0.57428  1.0000
  H   H1243     1.0  0.78547  0.24324  0.54751  1.0000
  H   H1244     1.0  0.74074  0.21533  0.53779  1.0000
  C   C1578     1.0  0.82629  0.48037  0.55569  1.0000
  C   C1579     1.0  0.79620  0.47675  0.72457  1.0000
  H   H1245     1.0  0.74180  0.48974  0.64506  1.0000
  C   C1580     1.0  0.52669  0.17281  0.65543  1.0000
  H   H1246     1.0  0.67705  0.12247  0.56205  1.0000
  C   C1581     1.0  0.84365  0.47335  0.66175  1.0000
  H   H1247     1.0  0.80835  0.43194  0.62376  1.0000
  H   H1248     1.0  0.60660  0.36255  0.58242  1.0000
  H   H1249     1.0  0.55212  0.06350  0.55365  1.0000
  P   P55       1.0  0.77434  0.44298  0.69122  1.0000
  H   H1250     1.0  0.68544  0.11661  0.52526  1.0000
  H   H1251     1.0  0.58317  0.30899  0.62515  1.0000
  H   H1252     1.0  0.54982  0.34861  0.71822  1.0000
  H   H1253     1.0  0.82330  0.44793  0.52411  1.0000
  H   H1254     1.0  0.74554  0.41430  0.61460  1.0000
  H   H1255     1.0  0.74948  0.44684  0.58895  1.0000
  H   H1256     1.0  0.55797  0.04348  0.52183  1.0000
  C   C1582     1.0  0.65048  0.11536  0.60338  1.0000
  H   H1257     1.0  0.92377  0.41559  0.71375  1.0000
  C   C1583     1.0  0.61195  0.10848  0.54069  1.0000
  C   C1584     1.0  0.58939  0.09653  0.55232  1.0000
  C   C1585     1.0  0.83733  0.44496  0.51517  1.0000
  H   H1258     1.0  0.91849  0.44682  0.69082  1.0000
  C   C1586     1.0  0.53958  0.09036  0.72090  1.0000
  C   C1587     1.0  0.58067  0.13944  0.57028  1.0000
  C   C1588     1.0  0.56722  0.14749  0.58426  1.0000
  C   C1589     1.0  0.56315  0.16886  0.57994  1.0000
  C   C1590     1.0  0.57259  0.18254  0.56174  1.0000
  C   C1591     1.0  0.58642  0.17505  0.54795  1.0000
  C   C1592     1.0  0.59035  0.15354  0.55211  1.0000
  H   H1259     1.0  0.53872  0.41229  0.72040  1.0000
  H   H1260     1.0  0.66281  0.10603  0.60172  1.0000
  H   H1261     1.0  0.92991  0.42983  0.58692  1.0000
  C   C1593     1.0  0.51893  0.34427  0.73829  1.0000
  P   P56       1.0  0.52391  0.32226  0.54461  1.0000
  H   H1262     1.0  0.85276  0.46441  0.63140  1.0000
  C   C1594     1.0  0.65066  0.22130  0.50509  1.0000
  H   H1263     1.0  0.69601  0.28334  0.50883  1.0000
  H   H1264     1.0  0.62714  0.12674  0.54564  1.0000
  C   C1595     1.0  0.71289  0.47648  0.54556  1.0000
  H   H1265     1.0  0.55947  0.13711  0.59841  1.0000
  C   C1596     1.0  0.74856  0.41792  0.51995  1.0000
  H   H1266     1.0  0.56880  0.19867  0.55821  1.0000
  H   H1267     1.0  0.59343  0.18540  0.53367  1.0000
  H   H1268     1.0  0.56477  0.00458  0.51047  1.0000
  H   H1269     1.0  0.55475  0.48694  0.51315  1.0000
  H   H1270     1.0  0.86203  0.44048  0.58374  1.0000
  H   H1271     1.0  0.78959  0.41809  0.54828  1.0000
  H   H1272     1.0  0.52784  0.11983  0.67596  1.0000
  H   H1273     1.0  0.52803  0.36422  0.74327  1.0000
  C   C1597     1.0  0.84671  0.42804  0.52224  1.0000
  C   C1598     1.0  0.53870  0.49068  0.57607  1.0000
  C   C1599     1.0  0.75619  0.46952  0.66503  1.0000
  C   C1600     1.0  0.53126  0.33541  0.72413  1.0000
  C   C1601     1.0  0.52991  0.23483  0.67547  1.0000
  H   H1274     1.0  0.53140  0.47438  0.56555  1.0000
  C   C1602     1.0  0.65914  0.21074  0.52088  1.0000
  C   C1603     1.0  0.63647  0.49114  0.67563  1.0000
  C   C1604     1.0  0.52892  0.40051  0.50235  1.0000
  C   C1605     1.0  0.75284  0.40903  0.69114  1.0000
  H   H1275     1.0  0.82943  0.47837  0.69110  1.0000
  H   H1276     1.0  0.69589  0.47153  0.53621  1.0000
  C   C1606     1.0  0.54198  0.28418  0.49871  1.0000
  C   C1607     1.0  0.99476  0.41259  0.61002  1.0000
  C   C1608     1.0  0.82447  0.46812  0.67648  1.0000
  H   H1277     1.0  0.69149  0.36714  0.70333  1.0000
  H   H1278     1.0  0.82308  0.46224  0.56240  1.0000
  C   C1609     1.0  0.56513  0.10375  0.72723  1.0000
  C   C1610     1.0  0.71096  0.37390  0.69789  1.0000
  S   S213      1.0  0.62484  0.49001  0.70126  1.0000
  C   C1611     1.0  0.54035  0.49387  0.51430  1.0000
  S   S214      1.0  0.59312  0.28879  0.72889  1.0000
  Fe  Fe107     1.0  0.61014  0.48746  0.54723  1.0000
  C   C1612     1.0  0.75690  0.46118  0.68525  1.0000
  C   C1613     1.0  0.76548  0.39811  0.59613  1.0000
  C   C1614     1.0  0.58788  0.40300  0.63443  1.0000
  H   H1279     1.0  0.57327  0.30762  0.69099  1.0000
  C   C1615     1.0  0.87431  0.43445  0.59232  1.0000
  H   H1280     1.0  0.50928  0.38636  0.50034  1.0000
  C   C1616     1.0  0.57318  0.06146  0.52722  1.0000
  H   H1281     1.0  0.54750  0.38435  0.59281  1.0000
  S   S215      1.0  0.64495  0.48142  0.55269  1.0000
  H   H1282     1.0  0.76643  0.46565  0.65266  1.0000
  C   C1617     1.0  0.74303  0.46634  0.70079  1.0000
  C   C1618     1.0  0.58093  0.34333  0.67617  1.0000
  C   C1619     1.0  0.57632  0.31763  0.67639  1.0000
  H   H1283     1.0  0.61776  0.40636  0.56962  1.0000
  C   C1620     1.0  0.60098  0.42932  0.63009  1.0000
  C   C1621     1.0  0.56237  0.07501  0.60686  1.0000
  H   H1284     1.0  0.55791  0.09706  0.51218  1.0000
  H   H1285     1.0  0.79128  0.35597  0.51181  1.0000
  C   C1622     1.0  0.54148  0.05764  0.61817  1.0000
  C   C1623     1.0  0.57648  0.42283  0.59853  1.0000
  H   H1286     1.0  0.61537  0.44238  0.64068  1.0000
  C   C1624     1.0  0.52541  0.10375  0.71601  1.0000
  H   H1287     1.0  0.66395  0.47722  0.68299  1.0000
  C   C1625     1.0  0.96907  0.40143  0.61593  1.0000
  C   C1626     1.0  0.61495  0.09710  0.52242  1.0000
  H   H1288     1.0  0.53029  0.09458  0.57281  1.0000
  C   C1627     1.0  0.59559  0.43909  0.61205  1.0000
  H   H1289     1.0  0.57232  0.43052  0.58457  1.0000
  H   H1290     1.0  0.86658  0.29701  0.60464  1.0000
  H   H1291     1.0  0.52726  0.34277  0.50298  1.0000
  C   C1628     1.0  0.76668  0.44374  0.52211  1.0000
  C   C1629     1.0  0.63514  0.50178  0.63913  1.0000
  H   H1292     1.0  0.57178  0.16469  0.72491  1.0000
  H   H1293     1.0  0.60621  0.45937  0.60861  1.0000
  C   C1630     1.0  0.75758  0.43380  0.58548  1.0000
  C   C1631     1.0  0.68550  0.26313  0.51233  1.0000
  H   H1294     1.0  0.52149  0.41606  0.53051  1.0000
  C   C1632     1.0  0.52707  0.25658  0.70670  1.0000
  C   C1633     1.0  0.58992  0.31548  0.73866  1.0000
  C   C1634     1.0  0.72724  0.40022  0.69719  1.0000
  C   C1635     1.0  0.60596  0.33990  0.73101  1.0000
  H   H1295     1.0  0.74288  0.45972  0.71639  1.0000
  H   H1296     1.0  0.53618  0.26740  0.72056  1.0000
  C   C1636     1.0  0.53722  0.13067  0.71742  1.0000
  Fe  Fe108     1.0  0.57366  0.25003  0.74429  1.0000
  C   C1637     1.0  0.57986  0.43728  0.50795  1.0000
  C   C1638     1.0  0.83784  0.46037  0.64275  1.0000
  C   C1639     1.0  0.51598  0.30026  0.58395  1.0000
  H   H1297     1.0  0.84812  0.41922  0.61773  1.0000
  C   C1640     1.0  0.77786  0.39928  0.57743  1.0000
  C   C1641     1.0  0.74300  0.40608  0.50045  1.0000
  C   C1642     1.0  0.66386  0.24744  0.50074  1.0000
  H   H1298     1.0  0.79377  0.49107  0.71552  1.0000
  H   H1299     1.0  0.70782  0.33581  0.69444  1.0000
  H   H1300     1.0  0.58415  0.44229  0.71470  1.0000
  C   C1643     1.0  0.57669  0.13052  0.72864  1.0000
  C   C1644     1.0  0.72915  0.48002  0.69637  1.0000
  H   H1301     1.0  0.95945  0.38098  0.61865  1.0000
  C   C1645     1.0  0.51282  0.06679  0.59662  1.0000
  C   C1646     1.0  0.53366  0.08433  0.58539  1.0000
  C   C1647     1.0  0.74569  0.36476  0.68710  1.0000
  H   H1302     1.0  0.54258  0.18559  0.68601  1.0000
  C   C1648     1.0  0.79929  0.44975  0.67232  1.0000
  H   H1303     1.0  0.56641  0.32583  0.57121  1.0000
  H   H1304     1.0  0.78752  0.41479  0.72281  1.0000
  C   C1649     1.0  0.96966  0.44329  0.61565  1.0000
  H   H1305     1.0  0.51735  0.37344  0.69815  1.0000
  C   C1650     1.0  0.66507  0.48627  0.65043  1.0000
  C   C1651     1.0  0.54137  0.24937  0.69313  1.0000
  H   H1306     1.0  0.57346  0.28532  0.65826  1.0000
  H   H1307     1.0  0.60035  0.14778  0.54077  1.0000
  H   H1308     1.0  0.59954  0.45142  0.51005  1.0000
  C   C1652     1.0  0.57068  0.34488  0.56589  1.0000
  H   H1309     1.0  0.86308  0.48742  0.66513  1.0000
  H   H1310     1.0  0.63217  0.10661  0.51329  1.0000
  H   H1311     1.0  0.96032  0.45549  0.61809  1.0000
  C   C1653     1.0  0.59561  0.07357  0.51570  1.0000
  H   H1312     1.0  0.58894  0.41317  0.54506  1.0000
  H   H1313     1.0  0.77428  0.42259  0.64961  1.0000
  H   H1314     1.0  0.64183  0.15813  0.63451  1.0000
  H   H1315     1.0  0.67084  0.13786  0.62992  1.0000
  C   C1654     1.0  0.86650  0.42254  0.61145  1.0000
  H   H1316     1.0  0.57598  0.09342  0.73120  1.0000
  H   H1317     1.0  0.79413  0.24959  0.50415  1.0000
  C   C1655     1.0  0.53081  0.31244  0.51979  1.0000
  H   H1318     1.0  0.54876  0.37681  0.53368  1.0000
  S   S216      1.0  0.50788  0.15710  0.61621  1.0000
  H   H1319     1.0  0.89794  0.33693  0.49991  1.0000
  H   H1320     1.0  0.71795  0.49908  0.67296  1.0000
  C   C1656     1.0  0.65492  0.49532  0.63446  1.0000
  C   C1657     1.0  0.56070  0.22788  0.50919  1.0000
  C   C1658     1.0  0.94080  0.50180  0.50265  1.0000
  C   C1659     1.0  0.50612  0.27967  0.59770  1.0000
  S   S217      1.0  0.66745  0.49804  0.60900  1.0000
  H   H1321     1.0  0.70533  0.50227  0.56535  1.0000
  H   H1322     1.0  0.97597  0.50239  0.51257  1.0000
  C   C1660     1.0  0.74067  0.50130  0.57350  1.0000
  C   C1661     1.0  0.84511  0.45712  0.49600  1.0000
  C   C1662     1.0  0.50570  0.01570  0.49754  1.0000
  C   C1663     1.0  0.51046  0.10610  0.66856  1.0000
  C   C1664     1.0  0.50400  0.22711  0.67152  1.0000
  C   C1665     1.0  0.62605  0.49976  0.65957  1.0000
  H   H1323     1.0  0.54448  0.04733  0.63092  1.0000
  C   C1666     1.0  0.71832  0.49404  0.56188  1.0000
  H   H1324     1.0  0.78981  0.39619  0.50122  1.0000
  C   C1667     1.0  0.79940  0.36480  0.49717  1.0000
  C   C1668     1.0  0.50442  0.16078  0.64324  1.0000
  H   H1325     1.0  0.59794  0.06495  0.50139  1.0000
  C   C1669     1.0  0.52041  0.19592  0.49536  1.0000
  C   C1670     1.0  0.80668  0.48329  0.74445  1.0000
  H   H1326     1.0  0.63402  0.20912  0.49601  1.0000
  Fe  Fe109     1.0  0.73675  0.34012  0.74798  1.0000
  S   S218      1.0  0.64673  0.44207  0.77980  1.0000
  H   H1327     1.0  0.57630  0.20492  0.84631  1.0000
  C   C1671     1.0  0.93624  0.46946  0.96394  1.0000
  Fe  Fe110     1.0  0.64159  0.47792  0.77831  1.0000
  P   P57       1.0  0.77810  0.46104  0.95069  1.0000
  Fe  Fe111     1.0  0.54462  0.21494  0.78076  1.0000
  C   C1672     1.0  0.65691  0.39206  0.80120  1.0000
  S   S219      1.0  0.58642  0.23886  0.77361  1.0000
  H   H1328     1.0  0.71275  0.12399  0.91049  1.0000
  C   C1673     1.0  0.59280  0.07876  0.97985  1.0000
  S   S220      1.0  0.74022  0.31672  0.77384  1.0000
  C   C1674     1.0  0.94363  0.39057  0.89529  1.0000
  Fe  Fe112     1.0  0.78221  0.34364  0.77405  1.0000
  S   S221      1.0  0.80083  0.36330  0.80475  1.0000
  S   S222      1.0  0.66848  0.49455  0.75138  1.0000
  H   H1329     1.0  0.57927  0.44982  0.97182  1.0000
  Fe  Fe113     1.0  0.85115  0.37793  0.94698  1.0000
  S   S223      1.0  0.86718  0.36192  0.97105  1.0000
  S   S224      1.0  0.84194  0.41126  0.95340  1.0000
  Fe  Fe114     1.0  0.85180  0.34037  0.91441  1.0000
  S   S225      1.0  0.86903  0.32250  0.93688  1.0000
  S   S226      1.0  0.84224  0.32373  0.88161  1.0000
  Fe  Fe115     1.0  0.83916  0.32274  0.95927  1.0000
  C   C1675     1.0  0.67333  0.20336  0.97910  1.0000
  Fe  Fe116     1.0  0.89548  0.36332  0.94678  1.0000
  S   S227      1.0  0.93794  0.38804  0.95601  1.0000
  S   S228      1.0  0.82138  0.33901  0.93644  1.0000
  S   S229      1.0  0.87995  0.38076  0.92292  1.0000
  C   C1676     1.0  0.75072  0.22567  0.97627  1.0000
  H   H1330     1.0  0.59676  0.49001  0.89601  1.0000
  C   C1677     1.0  0.97852  0.37733  0.94419  1.0000
  C   C1678     1.0  0.00132  0.46505  0.92028  1.0000
  C   C1679     1.0  0.73314  0.44851  0.80719  1.0000
  S   S230      1.0  0.58153  0.38588  0.76162  1.0000
  C   C1680     1.0  0.78875  0.42237  0.93443  1.0000
  C   C1681     1.0  0.97091  0.39495  0.95285  1.0000
  H   H1331     1.0  0.51200  0.22487  0.98088  1.0000
  H   H1332     1.0  0.98464  0.43284  0.96625  1.0000
  H   H1333     1.0  0.68871  0.44833  0.85655  1.0000
  H   H1334     1.0  0.67205  0.40125  0.79005  1.0000
  H   H1335     1.0  0.62761  0.37876  0.77793  1.0000
  C   C1682     1.0  0.64913  0.48958  0.87646  1.0000
  H   H1336     1.0  0.68969  0.26820  0.74750  1.0000
  C   C1683     1.0  0.71182  0.39033  0.82402  1.0000
  C   C1684     1.0  0.77202  0.44453  0.97516  1.0000
  H   H1337     1.0  0.69540  0.48896  0.80431  1.0000
  H   H1338     1.0  0.78325  0.36308  0.96275  1.0000
  H   H1339     1.0  0.57530  0.25345  0.90934  1.0000
  S   S231      1.0  0.73091  0.25229  0.75002  1.0000
  H   H1340     1.0  0.55918  0.29404  0.75953  1.0000
  H   H1341     1.0  0.79698  0.42220  0.94939  1.0000
  Fe  Fe117     1.0  0.58273  0.20450  0.75548  1.0000
  C   C1685     1.0  0.63168  0.37920  0.79427  1.0000
  H   H1342     1.0  0.63075  0.31785  0.76384  1.0000
  C   C1686     1.0  0.81153  0.35143  0.82608  1.0000
  C   C1687     1.0  0.81509  0.32926  0.82462  1.0000
  C   C1688     1.0  0.82426  0.32098  0.84180  1.0000
  C   C1689     1.0  0.83002  0.33471  0.86065  1.0000
  C   C1690     1.0  0.82627  0.35679  0.86217  1.0000
  C   C1691     1.0  0.81716  0.36510  0.84496  1.0000
  H   H1343     1.0  0.81130  0.31880  0.81012  1.0000
  H   H1344     1.0  0.82723  0.30398  0.84038  1.0000
  H   H1345     1.0  0.83072  0.36764  0.87650  1.0000
  H   H1346     1.0  0.81470  0.38239  0.84623  1.0000
  C   C1692     1.0  0.69737  0.23582  0.75298  1.0000
  C   C1693     1.0  0.98137  0.42576  0.88098  1.0000
  C   C1694     1.0  0.86894  0.42331  0.99027  1.0000
  H   H1347     1.0  0.91585  0.18815  0.95956  1.0000
  C   C1695     1.0  0.90115  0.23617  0.97455  1.0000
  H   H1348     1.0  0.59012  0.04380  0.93680  1.0000
  P   P58       1.0  0.69550  0.40952  0.83061  1.0000
  C   C1696     1.0  0.83114  0.48734  0.94502  1.0000
  S   S232      1.0  0.70137  0.34614  0.74744  1.0000
  C   C1697     1.0  0.56923  0.33458  0.76061  1.0000
  C   C1698     1.0  0.80329  0.44063  0.74845  1.0000
  H   H1349     1.0  0.55484  0.33246  0.77195  1.0000
  C   C1699     1.0  0.71107  0.46795  0.94978  1.0000
  C   C1700     1.0  0.90529  0.19939  0.96074  1.0000
  C   C1701     1.0  0.65150  0.20492  0.98619  1.0000
  C   C1702     1.0  0.85276  0.42821  0.97704  1.0000
  C   C1703     1.0  0.78015  0.40662  0.89912  1.0000
  C   C1704     1.0  0.71780  0.12841  0.94350  1.0000
  H   H1350     1.0  0.53002  0.21616  0.91796  1.0000
  H   H1351     1.0  0.98020  0.40813  0.91046  1.0000
  H   H1352     1.0  0.78590  0.32472  0.97669  1.0000
  C   C1705     1.0  0.74919  0.38239  0.82702  1.0000
  C   C1706     1.0  0.93249  0.44519  0.97030  1.0000
  Fe  Fe118     1.0  0.61445  0.42536  0.75683  1.0000
  H   H1353     1.0  0.83010  0.47001  0.93794  1.0000
  C   C1707     1.0  0.69277  0.43575  0.86643  1.0000
  C   C1708     1.0  0.53921  0.12252  0.99109  1.0000
  H   H1354     1.0  0.74807  0.44002  0.75242  1.0000
  Fe  Fe119     1.0  0.67116  0.45734  0.75170  1.0000
  S   S233      1.0  0.65040  0.48356  0.90335  1.0000
  H   H1355     1.0  0.64281  0.45149  0.86735  1.0000
  C   C1709     1.0  0.70618  0.47790  0.80542  1.0000
  H   H1356     1.0  0.53921  0.40876  0.97174  1.0000
  C   C1710     1.0  0.61906  0.10652  0.95257  1.0000
  C   C1711     1.0  0.61203  0.08489  0.93966  1.0000
  P   P59       1.0  0.64324  0.13729  0.94401  1.0000
  C   C1712     1.0  0.64666  0.16363  0.96077  1.0000
  C   C1713     1.0  0.67252  0.13403  0.94351  1.0000
  H   H1357     1.0  0.81810  0.47018  0.77186  1.0000
  H   H1358     1.0  0.74121  0.40954  0.96327  1.0000
  C   C1714     1.0  0.77785  0.43910  0.93061  1.0000
  C   C1715     1.0  0.90304  0.29416  0.96610  1.0000
  H   H1359     1.0  0.67732  0.13696  0.97682  1.0000
  C   C1716     1.0  0.67097  0.18308  0.96614  1.0000
  H   H1360     1.0  0.93071  0.40610  0.84762  1.0000
  S   S234      1.0  0.60730  0.46025  0.75704  1.0000
  C   C1717     1.0  0.56809  0.49779  0.91125  1.0000
  C   C1718     1.0  0.62489  0.16570  0.96759  1.0000
  C   C1719     1.0  0.63490  0.14532  0.91914  1.0000
  C   C1720     1.0  0.60943  0.13372  0.91218  1.0000
  C   C1721     1.0  0.60277  0.14133  0.89359  1.0000
  C   C1722     1.0  0.62149  0.16058  0.88180  1.0000
  C   C1723     1.0  0.64689  0.17231  0.88867  1.0000
  C   C1724     1.0  0.65355  0.16484  0.90734  1.0000
  C   C1725     1.0  0.92961  0.39002  0.87764  1.0000
  H   H1361     1.0  0.61458  0.11926  0.98318  1.0000
  C   C1726     1.0  0.64387  0.20724  0.75722  1.0000
  H   H1362     1.0  0.71738  0.13295  0.97665  1.0000
  H   H1363     1.0  0.61997  0.08686  0.92428  1.0000
  C   C1727     1.0  0.78876  0.36287  0.97871  1.0000
  C   C1728     1.0  0.65461  0.23361  0.75305  1.0000
  H   H1364     1.0  0.65187  0.17515  0.76277  1.0000
  H   H1365     1.0  0.72558  0.44567  0.96649  1.0000
  C   C1729     1.0  0.51293  0.20019  0.85299  1.0000
  H   H1366     1.0  0.68824  0.18249  0.96081  1.0000
  H   H1367     1.0  0.75995  0.45229  0.90720  1.0000
  H   H1368     1.0  0.69213  0.21749  0.98407  1.0000
  H   H1369     1.0  0.64040  0.45844  0.82963  1.0000
  S   S235      1.0  0.53096  0.21732  0.81374  1.0000
  H   H1370     1.0  0.59458  0.11903  0.92121  1.0000
  H   H1371     1.0  0.58300  0.13241  0.88843  1.0000
  H   H1372     1.0  0.61626  0.16646  0.86742  1.0000
  C   C1730     1.0  0.51148  0.16744  0.82915  1.0000
  H   H1373     1.0  0.67320  0.17446  0.91272  1.0000
  C   C1731     1.0  0.94156  0.40688  0.86143  1.0000
  H   H1374     1.0  0.96422  0.35898  0.93859  1.0000
  H   H1375     1.0  0.76118  0.47800  0.78833  1.0000
  H   H1376     1.0  0.92708  0.47131  0.94992  1.0000
  C   C1732     1.0  0.74332  0.47179  0.79658  1.0000
  C   C1733     1.0  0.54380  0.21607  0.97663  1.0000
  H   H1377     1.0  0.74518  0.39612  0.75193  1.0000
  C   C1734     1.0  0.51765  0.19322  0.83309  1.0000
  S   S236      1.0  0.51375  0.10181  0.97526  1.0000
  H   H1378     1.0  0.80597  0.21095  0.95716  1.0000
  C   C1735     1.0  0.69338  0.43991  0.88778  1.0000
  C   C1736     1.0  0.64390  0.47385  0.84052  1.0000
  H   H1379     1.0  0.87599  0.40982  0.98579  1.0000
  H   H1380     1.0  0.74574  0.41380  0.84189  1.0000
  C   C1737     1.0  0.91759  0.31964  0.97247  1.0000
  C   C1738     1.0  0.96270  0.48874  0.99429  1.0000
  C   C1739     1.0  0.62734  0.18641  0.98004  1.0000
  C   C1740     1.0  0.72802  0.39869  0.75096  1.0000
  H   H1381     1.0  0.78147  0.39438  0.88691  1.0000
  H   H1382     1.0  0.67694  0.44775  0.82245  1.0000
  H   H1383     1.0  0.93449  0.37745  0.90787  1.0000
  C   C1741     1.0  0.79042  0.34139  0.98650  1.0000
  H   H1384     1.0  0.64230  0.24288  0.75121  1.0000
  C   C1742     1.0  0.95145  0.49121  0.97577  1.0000
  C   C1743     1.0  0.87808  0.22863  0.96367  1.0000
  H   H1385     1.0  0.92061  0.42833  0.96115  1.0000
  H   H1386     1.0  0.67262  0.12829  0.91037  1.0000
  H   H1387     1.0  0.56039  0.48010  0.91992  1.0000
  H   H1388     1.0  0.74024  0.21355  0.96341  1.0000
  C   C1744     1.0  0.68497  0.13442  0.96217  1.0000
  C   C1745     1.0  0.79538  0.38456  0.99124  1.0000
  C   C1746     1.0  0.58574  0.05739  0.96687  1.0000
  H   H1389     1.0  0.87459  0.17410  0.94090  1.0000
  C   C1747     1.0  0.66259  0.39317  0.82234  1.0000
  C   C1748     1.0  0.57664  0.23955  0.85838  1.0000
  H   H1390     1.0  0.76197  0.42372  0.87986  1.0000
  C   C1749     1.0  0.73637  0.39702  0.83204  1.0000
  H   H1391     1.0  0.67407  0.27871  0.78250  1.0000
  C   C1750     1.0  0.69697  0.41549  0.85826  1.0000
  C   C1751     1.0  0.64520  0.46995  0.86195  1.0000
  H   H1392     1.0  0.74357  0.43718  0.80700  1.0000
  H   H1393     1.0  0.90952  0.37639  0.87649  1.0000
  H   H1394     1.0  0.51494  0.16170  0.81398  1.0000
  H   H1395     1.0  0.64651  0.38176  0.85291  1.0000
  C   C1752     1.0  0.53235  0.12863  0.90887  1.0000
  C   C1753     1.0  0.53973  0.11682  0.92441  1.0000
  C   C1754     1.0  0.55770  0.13178  0.93920  1.0000
  C   C1755     1.0  0.56831  0.15852  0.93847  1.0000
  C   C1756     1.0  0.56162  0.17059  0.92255  1.0000
  C   C1757     1.0  0.54283  0.15542  0.90816  1.0000
  P   P60       1.0  0.57434  0.20510  0.92279  1.0000
  C   C1758     1.0  0.55497  0.21221  0.94100  1.0000
  C   C1759     1.0  0.60722  0.21973  0.93134  1.0000
  C   C1760     1.0  0.62340  0.20865  0.92605  1.0000
  C   C1761     1.0  0.64906  0.22038  0.93226  1.0000
  C   C1762     1.0  0.65877  0.24330  0.94363  1.0000
  C   C1763     1.0  0.64286  0.25464  0.94870  1.0000
  C   C1764     1.0  0.61721  0.24302  0.94246  1.0000
  S   S237      1.0  0.77786  0.36890  0.74957  1.0000
  C   C1765     1.0  0.72993  0.48654  0.79580  1.0000
  C   C1766     1.0  0.70768  0.13199  0.96213  1.0000
  C   C1767     1.0  0.75279  0.41917  0.97664  1.0000
  C   C1768     1.0  0.55907  0.21124  0.96232  1.0000
  C   C1769     1.0  0.57510  0.21843  0.89753  1.0000
  C   C1770     1.0  0.57666  0.20547  0.87958  1.0000
  C   C1771     1.0  0.70417  0.37730  0.74919  1.0000
  C   C1772     1.0  0.99012  0.41893  0.95962  1.0000
  C   C1773     1.0  0.53469  0.21700  0.93423  1.0000
  C   C1774     1.0  0.57562  0.24268  0.89571  1.0000
  C   C1775     1.0  0.65997  0.19545  0.75952  1.0000
  C   C1776     1.0  0.51951  0.22191  0.94862  1.0000
  H   H1396     1.0  0.56247  0.12249  0.95178  1.0000
  H   H1397     1.0  0.58104  0.16979  0.95071  1.0000
  H   H1398     1.0  0.53560  0.16408  0.89677  1.0000
  H   H1399     1.0  0.61617  0.19091  0.91725  1.0000
  H   H1400     1.0  0.66141  0.21157  0.92852  1.0000
  H   H1401     1.0  0.67858  0.25214  0.94866  1.0000
  H   H1402     1.0  0.65038  0.27239  0.95756  1.0000
  H   H1403     1.0  0.60522  0.25221  0.94634  1.0000
  C   C1777     1.0  0.70737  0.42680  0.74966  1.0000
  C   C1778     1.0  0.58531  0.35903  0.75294  1.0000
  S   S238      1.0  0.70962  0.45778  0.74895  1.0000
  S   S239      1.0  0.61058  0.18780  0.75934  1.0000
  H   H1404     1.0  0.57378  0.20634  0.96794  1.0000
  H   H1405     1.0  0.57730  0.18723  0.88047  1.0000
  H   H1406     1.0  0.94114  0.42368  0.99319  1.0000
  H   H1407     1.0  0.66345  0.36412  0.74669  1.0000
  C   C1779     1.0  0.59524  0.06046  0.94672  1.0000
  S   S240      1.0  0.81537  0.29438  0.98488  1.0000
  C   C1780     1.0  0.94396  0.44258  0.98850  1.0000
  H   H1408     1.0  0.57606  0.27156  0.87480  1.0000
  H   H1409     1.0  0.68977  0.45544  0.89389  1.0000
  H   H1410     1.0  0.77724  0.25574  0.95660  1.0000
  C   C1781     1.0  0.77197  0.24959  0.97233  1.0000
  C   C1782     1.0  0.80908  0.21208  0.97369  1.0000
  C   C1783     1.0  0.76815  0.43942  0.91078  1.0000
  C   C1784     1.0  0.76923  0.42317  0.89515  1.0000
  H   H1411     1.0  0.73536  0.12641  0.94354  1.0000
  C   C1785     1.0  0.69583  0.45453  0.81582  1.0000
  H   H1412     1.0  0.79510  0.40157  0.98489  1.0000
  H   H1413     1.0  0.90860  0.25310  0.98439  1.0000
  H   H1414     1.0  0.93265  0.22764  0.98129  1.0000
  C   C1786     1.0  0.68242  0.12979  0.92487  1.0000
  C   C1787     1.0  0.57162  0.31283  0.75358  1.0000
  H   H1415     1.0  0.66139  0.18733  0.87959  1.0000
  H   H1416     1.0  0.51770  0.11697  0.89786  1.0000
  C   C1788     1.0  0.57683  0.21576  0.86012  1.0000
  C   C1789     1.0  0.84953  0.25171  0.94072  1.0000
  C   C1790     1.0  0.86266  0.25100  0.92272  1.0000
  C   C1791     1.0  0.85540  0.25661  0.90353  1.0000
  C   C1792     1.0  0.83521  0.26322  0.90220  1.0000
  C   C1793     1.0  0.82227  0.26426  0.92007  1.0000
  C   C1794     1.0  0.82956  0.25875  0.93927  1.0000
  S   S241      1.0  0.54154  0.17973  0.76399  1.0000
  H   H1417     1.0  0.83191  0.45042  0.97292  1.0000
  C   C1795     1.0  0.70508  0.12714  0.92489  1.0000
  Fe  Fe120     1.0  0.63175  0.50090  0.97678  1.0000
  H   H1418     1.0  0.53069  0.09608  0.92558  1.0000
  H   H1419     1.0  0.79898  0.39390  0.92177  1.0000
  H   H1420     1.0  0.90990  0.28658  0.95350  1.0000
  C   C1796     1.0  0.72986  0.46022  0.95488  1.0000
  C   C1797     1.0  0.86842  0.20599  0.95175  1.0000
  C   C1798     1.0  0.78990  0.40625  0.91875  1.0000
  H   H1421     1.0  0.87891  0.24682  0.92349  1.0000
  H   H1422     1.0  0.86581  0.25653  0.88970  1.0000
  H   H1423     1.0  0.83010  0.26836  0.88742  1.0000
  H   H1424     1.0  0.80729  0.27037  0.91911  1.0000
  H   H1425     1.0  0.82023  0.26080  0.95309  1.0000
  C   C1799     1.0  0.61181  0.36764  0.80839  1.0000
  C   C1800     1.0  0.61729  0.36853  0.82952  1.0000
  C   C1801     1.0  0.64265  0.38113  0.83651  1.0000
  C   C1802     1.0  0.69824  0.42396  0.90122  1.0000
  C   C1803     1.0  0.70217  0.40359  0.89332  1.0000
  C   C1804     1.0  0.70130  0.39920  0.87196  1.0000
  H   H1426     1.0  0.98150  0.45285  0.91647  1.0000
  C   C1805     1.0  0.73765  0.36107  0.81392  1.0000
  C   C1806     1.0  0.71339  0.35440  0.80570  1.0000
  C   C1807     1.0  0.70047  0.36888  0.81072  1.0000
  H   H1427     1.0  0.59219  0.35832  0.80289  1.0000
  H   H1428     1.0  0.60182  0.35976  0.84046  1.0000
  H   H1429     1.0  0.76834  0.38775  0.83283  1.0000
  H   H1430     1.0  0.69867  0.42728  0.91775  1.0000
  H   H1431     1.0  0.70579  0.39115  0.90379  1.0000
  H   H1432     1.0  0.70388  0.38301  0.86622  1.0000
  H   H1433     1.0  0.74778  0.35003  0.80980  1.0000
  H   H1434     1.0  0.70486  0.33838  0.79493  1.0000
  H   H1435     1.0  0.68188  0.36331  0.80382  1.0000
  C   C1808     1.0  0.60245  0.20083  0.81214  1.0000
  C   C1809     1.0  0.61196  0.18333  0.81678  1.0000
  C   C1810     1.0  0.63623  0.19195  0.82568  1.0000
  C   C1811     1.0  0.65124  0.21818  0.82945  1.0000
  C   C1812     1.0  0.64228  0.23600  0.82381  1.0000
  C   C1813     1.0  0.61742  0.22703  0.81590  1.0000
  P   P61       1.0  0.66240  0.27010  0.82672  1.0000
  C   C1814     1.0  0.65839  0.28091  0.85210  1.0000
  C   C1815     1.0  0.69539  0.27657  0.82252  1.0000
  C   C1816     1.0  0.70128  0.26186  0.80805  1.0000
  C   C1817     1.0  0.72648  0.26571  0.80556  1.0000
  C   C1818     1.0  0.74616  0.28475  0.81701  1.0000
  C   C1819     1.0  0.74067  0.29995  0.83103  1.0000
  C   C1820     1.0  0.71538  0.29584  0.83387  1.0000
  C   C1821     1.0  0.64671  0.26321  0.86797  1.0000
  C   C1822     1.0  0.64333  0.27169  0.88749  1.0000
  C   C1823     1.0  0.65143  0.29784  0.89130  1.0000
  C   C1824     1.0  0.66309  0.31559  0.87559  1.0000
  C   C1825     1.0  0.66666  0.30720  0.85608  1.0000
  C   C1826     1.0  0.65300  0.28617  0.80707  1.0000
  C   C1827     1.0  0.63587  0.29646  0.81163  1.0000
  C   C1828     1.0  0.62812  0.30817  0.79615  1.0000
  C   C1829     1.0  0.63676  0.30895  0.77593  1.0000
  C   C1830     1.0  0.65293  0.29789  0.77115  1.0000
  C   C1831     1.0  0.66132  0.28686  0.78665  1.0000
  H   H1436     1.0  0.58370  0.19419  0.80508  1.0000
  H   H1437     1.0  0.60065  0.16317  0.81307  1.0000
  H   H1438     1.0  0.64372  0.17839  0.82901  1.0000
  H   H1439     1.0  0.67015  0.22458  0.83606  1.0000
  H   H1440     1.0  0.60973  0.24030  0.81223  1.0000
  H   H1441     1.0  0.68646  0.24736  0.79858  1.0000
  H   H1442     1.0  0.73088  0.25435  0.79433  1.0000
  H   H1443     1.0  0.76574  0.28806  0.81464  1.0000
  H   H1444     1.0  0.75617  0.31509  0.83951  1.0000
  H   H1445     1.0  0.71171  0.30785  0.84483  1.0000
  H   H1446     1.0  0.64004  0.24284  0.86533  1.0000
  H   H1447     1.0  0.63426  0.25793  0.89961  1.0000
  H   H1448     1.0  0.64862  0.30433  0.90640  1.0000
  H   H1449     1.0  0.66930  0.33586  0.87850  1.0000
  H   H1450     1.0  0.67572  0.32116  0.84401  1.0000
  H   H1451     1.0  0.62809  0.29514  0.82698  1.0000
  H   H1452     1.0  0.61506  0.31624  0.79964  1.0000
  P   P62       1.0  0.86000  0.24678  0.96582  1.0000
  C   C1832     1.0  0.96743  0.42458  0.86298  1.0000
  C   C1833     1.0  0.78859  0.19723  0.98651  1.0000
  C   C1834     1.0  0.57630  0.25314  0.87618  1.0000
  C   C1835     1.0  0.68193  0.38068  0.74800  1.0000
  C   C1836     1.0  0.70941  0.43984  0.81717  1.0000
  C   C1837     1.0  0.54961  0.41620  0.98603  1.0000
  H   H1453     1.0  0.85033  0.19955  0.94367  1.0000
  H   H1454     1.0  0.57617  0.24713  0.84320  1.0000
  C   C1838     1.0  0.60924  0.10322  0.97271  1.0000
  C   C1839     1.0  0.96947  0.40810  0.89681  1.0000
  H   H1455     1.0  0.60603  0.15095  0.96374  1.0000
  H   H1456     1.0  0.93556  0.33152  0.96499  1.0000
  C   C1840     1.0  0.52419  0.22163  0.96978  1.0000
  C   C1841     1.0  0.88207  0.19150  0.95021  1.0000
  C   C1842     1.0  0.84443  0.44649  0.98297  1.0000
  C   C1843     1.0  0.83311  0.22826  0.98226  1.0000
  H   H1457     1.0  0.69864  0.20013  0.75894  1.0000
  C   C1844     1.0  0.87949  0.27889  0.97554  1.0000
  C   C1845     1.0  0.68141  0.24794  0.75096  1.0000
  S   S242      1.0  0.53233  0.22949  0.75267  1.0000
  C   C1846     1.0  0.91477  0.22166  0.97296  1.0000
  H   H1458     1.0  0.61048  0.18771  0.98554  1.0000
  H   H1459     1.0  0.76985  0.18541  0.97993  1.0000
  C   C1847     1.0  0.57226  0.43940  0.98604  1.0000
  C   C1848     1.0  0.78671  0.26503  0.98872  1.0000
  C   C1849     1.0  0.64664  0.49754  0.83327  1.0000
  H   H1460     1.0  0.57335  0.03844  0.97264  1.0000
  Fe  Fe121     1.0  0.74942  0.29547  0.74892  1.0000
  H   H1461     1.0  0.50343  0.22496  0.94352  1.0000
  C   C1850     1.0  0.75385  0.47150  0.94518  1.0000
  H   H1462     1.0  0.69264  0.45945  0.95740  1.0000
  C   C1851     1.0  0.72962  0.42346  0.75116  1.0000
  C   C1852     1.0  0.68648  0.20960  0.75735  1.0000
  S   S243      1.0  0.79215  0.32068  0.75049  1.0000
  H   H1463     1.0  0.51763  0.22005  0.85627  1.0000
  H   H1464     1.0  0.99140  0.47938  0.94795  1.0000
  H   H1465     1.0  0.97640  0.43707  0.85009  1.0000
  H   H1466     1.0  0.53030  0.15457  0.98944  1.0000
  H   H1467     1.0  0.65910  0.29798  0.75533  1.0000
  H   H1468     1.0  0.91964  0.35017  0.99249  1.0000
  C   C1853     1.0  0.87057  0.28968  0.99116  1.0000
  C   C1854     1.0  0.75882  0.49091  0.93060  1.0000
  H   H1469     1.0  0.66629  0.40785  0.74719  1.0000
  C   C1855     1.0  0.68352  0.40540  0.74821  1.0000
  C   C1856     1.0  0.90859  0.33019  0.98806  1.0000
  C   C1857     1.0  0.78699  0.45642  0.99268  1.0000
  H   H1470     1.0  0.54676  0.21496  0.99305  1.0000
  S   S244      1.0  0.66605  0.50065  0.96141  1.0000
  C   C1858     1.0  0.81012  0.46520  0.75641  1.0000
  H   H1471     1.0  0.80601  0.42659  0.75771  1.0000
  C   C1859     1.0  0.71606  0.48695  0.93501  1.0000
  C   C1860     1.0  0.80899  0.48877  0.95189  1.0000
  H   H1472     1.0  0.50958  0.02090  0.95359  1.0000
  H   H1473     1.0  0.80210  0.47586  0.99213  1.0000
  H   H1474     1.0  0.70148  0.49292  0.93101  1.0000
  H   H1475     1.0  0.75257  0.49634  0.99132  1.0000
  H   H1476     1.0  0.99462  0.48227  0.86794  1.0000
  H   H1477     1.0  0.77725  0.50012  0.92308  1.0000
  C   C1861     1.0  0.73997  0.49853  0.92553  1.0000
  H   H1478     1.0  0.81196  0.50236  0.75063  1.0000
  H   H1479     1.0  0.55708  0.87299  0.14628  1.0000
  H   H1480     1.0  0.75026  0.56399  0.14853  1.0000
  H   H1481     1.0  0.82842  0.61993  0.06258  1.0000
  Fe  Fe122     1.0  0.84884  0.52634  0.08071  1.0000
  S   S245      1.0  0.85480  0.55928  0.05964  1.0000
  Fe  Fe123     1.0  0.51699  0.85619  0.07911  1.0000
  C   C1862     1.0  0.50873  0.95137  0.05074  1.0000
  S   S246      1.0  0.87293  0.53168  0.02365  1.0000
  Fe  Fe124     1.0  0.89216  0.55884  0.05039  1.0000
  S   S247      1.0  0.93033  0.59573  0.04789  1.0000
  Fe  Fe125     1.0  0.83518  0.52931  0.03491  1.0000
  H   H1482     1.0  0.60426  0.99789  0.08035  1.0000
  S   S248      1.0  0.88734  0.52820  0.07326  1.0000
  C   C1863     1.0  0.51390  0.51056  0.00891  1.0000
  Fe  Fe126     1.0  0.52450  0.85296  0.03234  1.0000
  H   H1483     1.0  0.53481  0.89661  0.16044  1.0000
  S   S249      1.0  0.53255  0.83026  0.00618  1.0000
  Fe  Fe127     1.0  0.54271  0.90707  0.05364  1.0000
  H   H1484     1.0  0.00109  0.57073  0.04726  1.0000
  S   S250      1.0  0.57067  0.95010  0.06025  1.0000
  C   C1864     1.0  0.57628  0.50571  0.07998  1.0000
  C   C1865     1.0  0.54132  0.98623  0.16497  1.0000
  C   C1866     1.0  0.95015  0.54143  0.00861  1.0000
  S   S251      1.0  0.55191  0.87341  0.05865  1.0000
  H   H1485     1.0  0.52249  0.97757  0.17187  1.0000
  C   C1867     1.0  0.52413  0.79695  0.00140  1.0000
  C   C1868     1.0  0.54280  0.92208  0.13415  1.0000
  C   C1869     1.0  0.73598  0.52391  0.10663  1.0000
  C   C1870     1.0  0.54407  0.90226  0.14562  1.0000
  H   H1486     1.0  0.51956  0.91637  0.21785  1.0000
  C   C1871     1.0  0.96312  0.60127  0.04726  1.0000
  C   C1872     1.0  0.97021  0.58132  0.04855  1.0000
  H   H1487     1.0  0.58904  0.59806  0.07739  1.0000
  H   H1488     1.0  0.95562  0.56182  0.05051  1.0000
  C   C1873     1.0  0.57857  0.60466  0.06717  1.0000
  C   C1874     1.0  0.99317  0.55774  0.12668  1.0000
  C   C1875     1.0  0.57309  0.98412  0.14199  1.0000
  C   C1876     1.0  0.77865  0.53192  0.00587  1.0000
  H   H1489     1.0  0.78569  0.61029  0.04811  1.0000
  C   C1877     1.0  0.76711  0.57274  0.06167  1.0000
  C   C1878     1.0  0.56716  0.91443  0.10680  1.0000
  C   C1879     1.0  0.58394  0.98298  0.05171  1.0000
  H   H1490     1.0  0.92673  0.56140  0.00880  1.0000
  H   H1491     1.0  0.56641  0.97519  0.02159  1.0000
  C   C1880     1.0  0.54246  0.55488  0.00057  1.0000
  C   C1881     1.0  0.81367  0.51083  0.15158  1.0000
  H   H1492     1.0  0.54692  0.57504  0.00076  1.0000
  H   H1493     1.0  0.58441  0.65903  0.04375  1.0000
  H   H1494     1.0  0.58010  0.63658  0.00064  1.0000
  H   H1495     1.0  0.93641  0.52567  0.01752  1.0000
  C   C1882     1.0  0.51270  0.50843  0.05829  1.0000
  H   H1496     1.0  0.77080  0.58662  0.00496  1.0000
  C   C1883     1.0  0.69170  0.51261  0.07298  1.0000
  H   H1497     1.0  0.54058  0.68363  0.00860  1.0000
  C   C1884     1.0  0.50995  0.77753  0.01538  1.0000
  C   C1885     1.0  0.50874  0.92381  0.16705  1.0000
  S   S252      1.0  0.83084  0.52649  0.11217  1.0000
  C   C1886     1.0  0.69681  0.51870  0.03015  1.0000
  C   C1887     1.0  0.55818  0.65766  0.00678  1.0000
  C   C1888     1.0  0.74171  0.54635  0.13954  1.0000
  C   C1889     1.0  0.95098  0.54446  0.11186  1.0000
  H   H1498     1.0  0.60798  0.64377  0.06708  1.0000
  C   C1890     1.0  0.54389  0.77985  0.06036  1.0000
  H   H1499     1.0  0.55274  0.94236  0.10502  1.0000
  H   H1500     1.0  0.57942  0.97407  0.13105  1.0000
  H   H1501     1.0  0.51505  0.67323  0.08348  1.0000
  H   H1502     1.0  0.74865  0.56939  0.05558  1.0000
  H   H1503     1.0  0.73612  0.52717  0.03476  1.0000
  C   C1891     1.0  0.71557  0.51891  0.06380  1.0000
  H   H1504     1.0  0.81119  0.52815  0.15239  1.0000
  C   C1892     1.0  0.98162  0.51407  0.07363  1.0000
  H   H1505     1.0  0.65238  0.50486  0.06784  1.0000
  H   H1506     1.0  0.97758  0.64221  0.04415  1.0000
  C   C1893     1.0  0.51698  0.99571  0.04740  1.0000
  C   C1894     1.0  0.58313  0.52410  0.06436  1.0000
  C   C1895     1.0  0.57821  0.51637  0.04364  1.0000
  P   P63       1.0  0.53489  0.63288  0.02274  1.0000
  S   S253      1.0  0.51781  0.88795  0.02580  1.0000
  H   H1507     1.0  0.94714  0.57140  0.09118  1.0000
  H   H1508     1.0  0.83377  0.58790  0.08449  1.0000
  C   C1896     1.0  0.51583  0.50981  0.07980  1.0000
  C   C1897     1.0  0.52336  0.65499  0.05738  1.0000
  C   C1898     1.0  0.50492  0.75175  0.01131  1.0000
  C   C1899     1.0  0.79445  0.55977  0.08153  1.0000
  H   H1509     1.0  0.53385  0.52317  0.08662  1.0000
  H   H1510     1.0  0.99530  0.52290  0.08605  1.0000
  C   C1900     1.0  0.98267  0.62653  0.04506  1.0000
  C   C1901     1.0  0.98536  0.58604  0.10357  1.0000
  H   H1511     1.0  0.54610  0.56752  0.06427  1.0000
  C   C1902     1.0  0.77020  0.55406  0.07338  1.0000
  H   H1512     1.0  0.80025  0.56983  0.01857  1.0000
  C   C1903     1.0  0.57583  0.63899  0.04811  1.0000
  C   C1904     1.0  0.95991  0.56765  0.10130  1.0000
  H   H1513     1.0  0.96073  0.52134  0.13250  1.0000
  H   H1514     1.0  0.53912  0.74102  0.05985  1.0000
  H   H1515     1.0  0.77101  0.50329  0.10530  1.0000
  C   C1905     1.0  0.52232  0.97707  0.05670  1.0000
  H   H1516     1.0  0.58434  0.53051  0.03144  1.0000
  C   C1906     1.0  0.54097  0.59597  0.04647  1.0000
  C   C1907     1.0  0.50640  0.74343  0.07321  1.0000
  H   H1517     1.0  0.79743  0.54599  0.09086  1.0000
  C   C1908     1.0  0.97366  0.54223  0.00277  1.0000
  C   C1909     1.0  0.74639  0.54680  0.11830  1.0000
  C   C1910     1.0  0.78346  0.55736  0.00978  1.0000
  C   C1911     1.0  0.55612  0.68033  0.00255  1.0000
  C   C1912     1.0  0.71788  0.52188  0.04224  1.0000
  C   C1913     1.0  0.67067  0.50943  0.06079  1.0000
  C   C1914     1.0  0.54866  0.97220  0.15093  1.0000
  C   C1915     1.0  0.55166  0.62178  0.04042  1.0000
  H   H1518     1.0  0.99185  0.60352  0.09471  1.0000
  C   C1916     1.0  0.00206  0.58150  0.11673  1.0000
  H   H1519     1.0  0.59304  0.54435  0.06821  1.0000
  C   C1917     1.0  0.78809  0.59628  0.05762  1.0000
  C   C1918     1.0  0.53067  0.75355  0.06419  1.0000
  C   C1919     1.0  0.58923  0.63042  0.06139  1.0000
  H   H1520     1.0  0.56246  0.78771  0.05298  1.0000
  C   C1920     1.0  0.51973  0.53673  0.00928  1.0000
  H   H1521     1.0  0.93118  0.53035  0.11008  1.0000
  C   C1921     1.0  0.81214  0.60172  0.06574  1.0000
  S   S254      1.0  0.51693  0.83602  0.10942  1.0000
  H   H1522     1.0  0.75844  0.56498  0.11116  1.0000
  C   C1922     1.0  0.81520  0.58361  0.07795  1.0000
  C   C1923     1.0  0.52185  0.92762  0.18595  1.0000
  C   C1924     1.0  0.98944  0.51944  0.05307  1.0000
  C   C1925     1.0  0.96763  0.53944  0.12447  1.0000
  C   C1926     1.0  0.51692  0.64621  0.03692  1.0000
  H   H1523     1.0  0.57778  0.88399  0.11200  1.0000
  C   C1927     1.0  0.50987  0.66628  0.06776  1.0000
  C   C1928     1.0  0.76670  0.56685  0.00200  1.0000
  C   C1929     1.0  0.97175  0.50871  0.03683  1.0000
  H   H1524     1.0  0.54314  0.81644  0.06271  1.0000
  S   S255      1.0  0.50982  0.89059  0.07603  1.0000
  C   C1930     1.0  0.55688  0.88881  0.13772  1.0000
  C   C1931     1.0  0.56847  0.89492  0.11834  1.0000
  H   H1525     1.0  0.72317  0.52281  0.16578  1.0000
  C   C1932     1.0  0.55407  0.92772  0.11450  1.0000
  C   C1933     1.0  0.50923  0.91379  0.20344  1.0000
  S   S256      1.0  0.79954  0.51886  0.01432  1.0000
  P   P64       1.0  0.74320  0.52380  0.07942  1.0000
  C   C1934     1.0  0.55442  0.58747  0.05976  1.0000
  H   H1526     1.0  0.54205  0.94070  0.18702  1.0000
  H   H1527     1.0  0.50303  0.78242  0.02939  1.0000
  C   C1935     1.0  0.53297  0.79604  0.06575  1.0000
  H   H1528     1.0  0.53734  0.98254  0.06825  1.0000
  C   C1936     1.0  0.57881  0.98997  0.03219  1.0000
  C   C1937     1.0  0.82336  0.50509  0.13337  1.0000
  C   C1938     1.0  0.50363  0.96301  0.11896  1.0000
  C   C1939     1.0  0.57840  0.65411  0.99806  1.0000
  H   H1529     1.0  0.53893  0.65345  0.06526  1.0000
  P   P65       1.0  0.52619  0.93961  0.14411  1.0000
  C   C1940     1.0  0.50489  0.94018  0.12405  1.0000
  C   C1941     1.0  0.72642  0.52316  0.14925  1.0000
  C   C1942     1.0  0.60006  0.00281  0.06521  1.0000
  H   H1530     1.0  0.51326  0.81095  0.14809  1.0000
  C   C1943     1.0  0.51262  0.60631  0.00724  1.0000
  H   H1531     1.0  0.51548  0.98087  0.12683  1.0000
  H   H1532     1.0  0.52861  0.52064  0.04875  1.0000
  C   C1944     1.0  0.50856  0.78588  0.07445  1.0000
  C   C1945     1.0  0.94434  0.56152  0.00345  1.0000
  P   P66       1.0  0.98144  0.51660  0.01020  1.0000
  H   H1533     1.0  0.69253  0.51552  0.23804  1.0000
  H   H1534     1.0  0.69874  0.52135  0.01355  1.0000
  H   H1535     1.0  0.58126  0.51207  0.09581  1.0000
  C   C1946     1.0  0.67325  0.51249  0.03940  1.0000
  C   C1947     1.0  0.99616  0.58645  0.04676  1.0000
  H   H1536     1.0  0.57591  0.91892  0.09167  1.0000
  H   H1537     1.0  0.52235  0.58231  0.04094  1.0000
  H   H1538     1.0  0.51328  0.93710  0.05774  1.0000
  H   H1539     1.0  0.50494  0.75510  0.11835  1.0000
  H   H1540     1.0  0.68924  0.51049  0.08951  1.0000
  H   H1541     1.0  0.50666  0.54306  0.01628  1.0000
  H   H1542     1.0  0.65707  0.51028  0.02994  1.0000
  H   H1543     1.0  0.50729  0.75773  0.15637  1.0000
  H   H1544     1.0  0.58093  0.80349  0.39716  1.0000
  H   H1545     1.0  0.75762  0.57352  0.45294  1.0000
  H   H1546     1.0  0.51610  0.82472  0.33005  1.0000
  H   H1547     1.0  0.72954  0.53235  0.39063  1.0000
  S   S257      1.0  0.84947  0.55395  0.43437  1.0000
  S   S258      1.0  0.87688  0.51757  0.42102  1.0000
  C   C1948     1.0  0.50613  0.66571  0.38701  1.0000
  S   S259      1.0  0.87125  0.53058  0.47059  1.0000
  Fe  Fe128     1.0  0.83277  0.52868  0.46216  1.0000
  C   C1949     1.0  0.50736  0.67829  0.40580  1.0000
  Fe  Fe129     1.0  0.88718  0.55259  0.44128  1.0000
  S   S260      1.0  0.92694  0.58817  0.44252  1.0000
  C   C1950     1.0  0.78759  0.53412  0.31326  1.0000
  C   C1951     1.0  0.62131  0.97249  0.40226  1.0000
  H   H1548     1.0  0.63968  0.95299  0.36939  1.0000
  H   H1549     1.0  0.54966  0.99683  0.42020  1.0000
  H   H1550     1.0  0.55754  0.82433  0.37932  1.0000
  Fe  Fe130     1.0  0.53112  0.90362  0.43432  1.0000
  H   H1551     1.0  0.55087  0.89795  0.34747  1.0000
  S   S261      1.0  0.54707  0.94811  0.43307  1.0000
  H   H1552     1.0  0.51756  0.73919  0.26876  1.0000
  C   C1952     1.0  0.79216  0.55423  0.39768  1.0000
  H   H1553     1.0  0.80466  0.54384  0.32267  1.0000
  H   H1554     1.0  0.52515  0.72975  0.37534  1.0000
  S   S262      1.0  0.54841  0.87798  0.42280  1.0000
  C   C1953     1.0  0.50518  0.75879  0.29112  1.0000
  H   H1555     1.0  0.59429  0.97198  0.45815  1.0000
  C   C1954     1.0  0.51273  0.74021  0.28482  1.0000
  C   C1955     1.0  0.96143  0.60165  0.44285  1.0000
  C   C1956     1.0  0.97531  0.62822  0.44619  1.0000
  C   C1957     1.0  0.97542  0.58741  0.43999  1.0000
  H   H1556     1.0  0.96509  0.63962  0.44838  1.0000
  H   H1557     1.0  0.96523  0.56694  0.43726  1.0000
  C   C1958     1.0  0.76798  0.52023  0.27967  1.0000
  C   C1959     1.0  0.55448  0.76524  0.38723  1.0000
  H   H1558     1.0  0.51854  0.79827  0.35937  1.0000
  C   C1960     1.0  0.55054  0.80365  0.37845  1.0000
  H   H1559     1.0  0.59337  0.93430  0.35331  1.0000
  C   C1961     1.0  0.56943  0.98083  0.43892  1.0000
  H   H1560     1.0  0.51245  0.89820  0.36309  1.0000
  C   C1962     1.0  0.84148  0.50889  0.33183  1.0000
  H   H1561     1.0  0.52763  0.93117  0.47923  1.0000
  C   C1963     1.0  0.59058  0.98712  0.45191  1.0000
  H   H1562     1.0  0.90335  0.60364  0.47908  1.0000
  S   S263      1.0  0.80769  0.53344  0.48804  1.0000
  C   C1964     1.0  0.61350  0.94417  0.43162  1.0000
  Fe  Fe131     1.0  0.52683  0.85015  0.44840  1.0000
  C   C1965     1.0  0.55079  0.79084  0.48873  1.0000
  C   C1966     1.0  0.80234  0.66942  0.43102  1.0000
  H   H1563     1.0  0.99090  0.53190  0.45422  1.0000
  H   H1564     1.0  0.54794  0.77267  0.43332  1.0000
  H   H1565     1.0  0.51661  0.69902  0.40623  1.0000
  H   H1566     1.0  0.55869  0.97167  0.39099  1.0000
  C   C1967     1.0  0.65568  0.97901  0.42637  1.0000
  H   H1567     1.0  0.98215  0.56808  0.47810  1.0000
  C   C1968     1.0  0.80301  0.58795  0.43159  1.0000
  C   C1969     1.0  0.78803  0.59982  0.47294  1.0000
  H   H1568     1.0  0.85539  0.52207  0.36286  1.0000
  P   P67       1.0  0.81283  0.60945  0.45363  1.0000
  H   H1569     1.0  0.81531  0.61784  0.40848  1.0000
  H   H1570     1.0  0.66023  0.00221  0.39961  1.0000
  H   H1571     1.0  0.56566  0.92438  0.48502  1.0000
  C   C1970     1.0  0.55098  0.66256  0.47520  1.0000
  H   H1572     1.0  0.51434  0.67673  0.37321  1.0000
  H   H1573     1.0  0.70537  0.51882  0.28651  1.0000
  H   H1574     1.0  0.56483  0.75620  0.39483  1.0000
  C   C1971     1.0  0.77513  0.52709  0.49288  1.0000
  C   C1972     1.0  0.53195  0.66234  0.46193  1.0000
  P   P68       1.0  0.61044  0.98147  0.37888  1.0000
  C   C1973     1.0  0.74410  0.50685  0.28898  1.0000
  H   H1575     1.0  0.82581  0.58873  0.49103  1.0000
  H   H1576     1.0  0.54226  0.72841  0.43846  1.0000
  C   C1974     1.0  0.72595  0.51491  0.38216  1.0000
  C   C1975     1.0  0.55722  0.95616  0.38087  1.0000
  C   C1976     1.0  0.63893  0.95809  0.43795  1.0000
  C   C1977     1.0  0.84090  0.66296  0.45202  1.0000
  C   C1978     1.0  0.78847  0.54472  0.41779  1.0000
  C   C1979     1.0  0.97079  0.54951  0.48497  1.0000
  H   H1577     1.0  0.85581  0.66099  0.46060  1.0000
  C   C1980     1.0  0.52824  0.78880  0.36727  1.0000
  C   C1981     1.0  0.53331  0.79914  0.48073  1.0000
  C   C1982     1.0  0.55271  0.91448  0.35650  1.0000
  C   C1983     1.0  0.52391  0.68172  0.46336  1.0000
  H   H1578     1.0  0.78870  0.54125  0.38463  1.0000
  C   C1984     1.0  0.83872  0.51132  0.35331  1.0000
  H   H1579     1.0  0.58491  0.94018  0.40938  1.0000
  H   H1580     1.0  0.52939  0.71632  0.47977  1.0000
  C   C1985     1.0  0.64698  0.98607  0.40851  1.0000
  C   C1986     1.0  0.57679  0.93516  0.35990  1.0000
  H   H1581     1.0  0.55683  0.64733  0.47440  1.0000
  C   C1987     1.0  0.53193  0.75031  0.37628  1.0000
  H   H1582     1.0  0.68221  0.99141  0.31570  1.0000
  C   C1988     1.0  0.86362  0.61879  0.44996  1.0000
  H   H1583     1.0  0.67541  0.98980  0.43125  1.0000
  C   C1989     1.0  0.75529  0.51429  0.47865  1.0000
  H   H1584     1.0  0.82791  0.70991  0.43225  1.0000
  H   H1585     1.0  0.71809  0.52854  0.35357  1.0000
  H   H1586     1.0  0.63555  0.52242  0.30045  1.0000
  C   C1990     1.0  0.71927  0.51260  0.36121  1.0000
  C   C1991     1.0  0.60472  0.95129  0.41385  1.0000
  S   S264      1.0  0.54535  0.82901  0.46703  1.0000
  H   H1587     1.0  0.80501  0.58796  0.37886  1.0000
  C   C1992     1.0  0.79397  0.56151  0.43469  1.0000
  H   H1588     1.0  0.78251  0.52450  0.42028  1.0000
  H   H1589     1.0  0.51648  0.93525  0.38483  1.0000
  C   C1993     1.0  0.84192  0.60917  0.46269  1.0000
  C   C1994     1.0  0.98276  0.53628  0.49477  1.0000
  H   H1590     1.0  0.78730  0.67196  0.42310  1.0000
  C   C1995     1.0  0.84441  0.68757  0.44676  1.0000
  H   H1591     1.0  0.51082  0.78217  0.43472  1.0000
  H   H1592     1.0  0.86324  0.62703  0.43510  1.0000
  H   H1593     1.0  0.90846  0.50606  0.49066  1.0000
  C   C1996     1.0  0.50714  0.78353  0.48383  1.0000
  C   C1997     1.0  0.78977  0.53357  0.29180  1.0000
  Fe  Fe132     1.0  0.51242  0.85705  0.40379  1.0000
  C   C1998     1.0  0.53321  0.93547  0.37745  1.0000
  H   H1594     1.0  0.52347  0.64690  0.45080  1.0000
  C   C1999     1.0  0.74340  0.57632  0.48281  1.0000
  C   C2000     1.0  0.53096  0.91459  0.36532  1.0000
  H   H1595     1.0  0.50436  0.77218  0.27992  1.0000
  C   C2001     1.0  0.51842  0.76201  0.36655  1.0000
  C   C2002     1.0  0.80709  0.59743  0.41133  1.0000
  C   C2003     1.0  0.69013  0.51521  0.29735  1.0000
  C   C2004     1.0  0.76364  0.52128  0.32261  1.0000
  C   C2005     1.0  0.88581  0.61718  0.45607  1.0000
  H   H1596     1.0  0.76286  0.52163  0.33928  1.0000
  C   C2006     1.0  0.52900  0.75719  0.43580  1.0000
  H   H1597     1.0  0.76967  0.51966  0.26302  1.0000
  C   C2007     1.0  0.53545  0.70138  0.47813  1.0000
  C   C2008     1.0  0.81820  0.64134  0.44647  1.0000
  H   H1598     1.0  0.78085  0.62838  0.43237  1.0000
  C   C2009     1.0  0.65050  0.51727  0.30500  1.0000
  C   C2010     1.0  0.82519  0.69080  0.43622  1.0000
  C   C2011     1.0  0.56364  0.79189  0.38849  1.0000
  C   C2012     1.0  0.80142  0.58056  0.39445  1.0000
  H   H1599     1.0  0.79209  0.55402  0.45022  1.0000
  C   C2013     1.0  0.79359  0.61153  0.49258  1.0000
  C   C2014     1.0  0.79878  0.64478  0.43623  1.0000
  H   H1600     1.0  0.90238  0.62411  0.44604  1.0000
  C   C2015     1.0  0.72998  0.50999  0.48326  1.0000
  H   H1601     1.0  0.51468  0.99060  0.44867  1.0000
  C   C2016     1.0  0.67111  0.52238  0.29183  1.0000
  H   H1602     1.0  0.60040  0.92797  0.44056  1.0000
  H   H1603     1.0  0.80842  0.54291  0.28459  1.0000
  C   C2017     1.0  0.51410  0.72309  0.29920  1.0000
  H   H1604     1.0  0.72392  0.56250  0.47919  1.0000
  H   H1605     1.0  0.86200  0.70418  0.45103  1.0000
  C   C2018     1.0  0.64898  0.50512  0.32383  1.0000
  C   C2019     1.0  0.64451  0.96800  0.35804  1.0000
  C   C2020     1.0  0.76269  0.58238  0.46807  1.0000
  P   P69       1.0  0.51464  0.97276  0.49134  1.0000
  C   C2021     1.0  0.52571  0.73216  0.43896  1.0000
  C   C2022     1.0  0.55438  0.70152  0.49141  1.0000
  H   H1606     1.0  0.75946  0.50784  0.46405  1.0000
  C   C2023     1.0  0.57923  0.95616  0.37219  1.0000
  C   C2024     1.0  0.74158  0.50755  0.31050  1.0000
  H   H1607     1.0  0.67210  0.53140  0.27704  1.0000
  C   C2025     1.0  0.63313  0.98476  0.35875  1.0000
  H   H1608     1.0  0.50880  0.71097  0.33079  1.0000
  C   C2026     1.0  0.00227  0.64040  0.44682  1.0000
  C   C2027     1.0  0.50802  0.76258  0.43663  1.0000
  S   S265      1.0  0.51255  0.87761  0.46152  1.0000
  S   S266      1.0  0.51629  0.84497  0.37073  1.0000
  C   C2028     1.0  0.54327  0.96846  0.49431  1.0000
  Fe  Fe133     1.0  0.83834  0.51702  0.41625  1.0000
  H   H1609     1.0  0.86035  0.51786  0.32504  1.0000
  C   C2029     1.0  0.66212  0.97039  0.34255  1.0000
  C   C2030     1.0  0.50728  0.72413  0.31980  1.0000
  C   C2031     1.0  0.86475  0.59567  0.48737  1.0000
  H   H1610     1.0  0.67078  0.95737  0.34206  1.0000
  H   H1611     1.0  0.52036  0.70899  0.29429  1.0000
  C   C2032     1.0  0.88636  0.60557  0.47474  1.0000
  C   C2033     1.0  0.84259  0.59745  0.48139  1.0000
  H   H1612     1.0  0.64563  0.95265  0.45181  1.0000
  C   C2034     1.0  0.94413  0.53868  0.48350  1.0000
  H   H1613     1.0  0.57106  0.80267  0.48657  1.0000
  C   C2035     1.0  0.92913  0.51468  0.49214  1.0000
  C   C2036     1.0  0.66856  0.98955  0.32770  1.0000
  C   C2037     1.0  0.54371  0.94572  0.48747  1.0000
  C   C2038     1.0  0.56566  0.00118  0.43050  1.0000
  H   H1614     1.0  0.93514  0.54881  0.47542  1.0000
  C   C2039     1.0  0.50777  0.59457  0.49355  1.0000
  C   C2040     1.0  0.56528  0.94170  0.49088  1.0000
  C   C2041     1.0  0.56204  0.68201  0.49005  1.0000
  S   S267      1.0  0.80969  0.50341  0.38912  1.0000
  C   C2042     1.0  0.52712  0.52734  0.50890  1.0000
  H   H1615     1.0  0.66034  0.63173  0.61300  1.0000
  H   H1616     1.0  0.56257  0.71639  0.50317  1.0000
  S   S268      1.0  0.67590  0.54395  0.56024  1.0000
  C   C2043     1.0  0.55520  0.58606  0.59718  1.0000
  H   H1617     1.0  0.54146  0.60750  0.57813  1.0000
  H   H1618     1.0  0.52597  0.96391  0.53413  1.0000
  Fe  Fe134     1.0  0.66616  0.51644  0.53304  1.0000
  H   H1619     1.0  0.56427  0.53056  0.50091  1.0000
  Fe  Fe135     1.0  0.63804  0.54531  0.55416  1.0000
  S   S269      1.0  0.63245  0.58200  0.55900  1.0000
  C   C2044     1.0  0.62291  0.60028  0.61722  1.0000
  H   H1620     1.0  0.68168  0.60364  0.60786  1.0000
  C   C2045     1.0  0.55821  0.51407  0.56970  1.0000
  S   S270      1.0  0.54469  0.69346  0.55395  1.0000
  H   H1621     1.0  0.61397  0.61289  0.61920  1.0000
  C   C2046     1.0  0.54592  0.62025  0.60990  1.0000
  H   H1622     1.0  0.52120  0.61401  0.49774  1.0000
  Fe  Fe136     1.0  0.53562  0.65265  0.54375  1.0000
  S   S271      1.0  0.55901  0.63235  0.53078  1.0000
  C   C2047     1.0  0.55941  0.53242  0.60382  1.0000
  C   C2048     1.0  0.54240  0.76737  0.49945  1.0000
  H   H1623     1.0  0.51416  0.57894  0.52160  1.0000
  H   H1624     1.0  0.59183  0.52766  0.68815  1.0000
  C   C2049     1.0  0.55357  0.61720  0.62972  1.0000
  H   H1625     1.0  0.51643  0.81506  0.69960  1.0000
  C   C2050     1.0  0.58656  0.96032  0.50121  1.0000
  P   P70       1.0  0.57426  0.55906  0.62177  1.0000
  C   C2051     1.0  0.96752  0.51262  0.50413  1.0000
  H   H1626     1.0  0.77869  0.61397  0.52260  1.0000
  C   C2052     1.0  0.83636  0.52720  0.53731  1.0000
  C   C2053     1.0  0.60992  0.59393  0.55199  1.0000
  C   C2054     1.0  0.59293  0.58406  0.53527  1.0000
  C   C2055     1.0  0.57708  0.59559  0.52940  1.0000
  C   C2056     1.0  0.57720  0.61662  0.54050  1.0000
  C   C2057     1.0  0.59351  0.62587  0.55766  1.0000
  C   C2058     1.0  0.60984  0.61479  0.56319  1.0000
  H   H1627     1.0  0.59276  0.56820  0.52636  1.0000
  H   H1628     1.0  0.56501  0.58850  0.51588  1.0000
  H   H1629     1.0  0.59431  0.64225  0.56624  1.0000
  H   H1630     1.0  0.62290  0.62280  0.57606  1.0000
  C   C2059     1.0  0.76906  0.53523  0.51180  1.0000
  C   C2060     1.0  0.74372  0.53063  0.51653  1.0000
  C   C2061     1.0  0.60838  0.57350  0.61762  1.0000
  H   H1631     1.0  0.51946  0.52989  0.68380  1.0000
  H   H1632     1.0  0.78412  0.54547  0.52290  1.0000
  H   H1633     1.0  0.73963  0.53732  0.53106  1.0000
  C   C2062     1.0  0.56471  0.98704  0.50478  1.0000
  H   H1634     1.0  0.81286  0.62555  0.49648  1.0000
  H   H1635     1.0  0.55621  0.76145  0.50540  1.0000
  C   C2063     1.0  0.58439  0.54167  0.65940  1.0000
  S   S272      1.0  0.61647  0.51222  0.57548  1.0000
  C   C2064     1.0  0.56857  0.53479  0.58352  1.0000
  S   S273      1.0  0.50439  0.72134  0.51543  1.0000
  H   H1636     1.0  0.53474  0.89312  0.51240  1.0000
  H   H1637     1.0  0.79591  0.51143  0.53239  1.0000
  Fe  Fe137     1.0  0.51409  0.67427  0.57821  1.0000
  H   H1638     1.0  0.65633  0.55634  0.60901  1.0000
  C   C2065     1.0  0.64929  0.61109  0.61378  1.0000
  H   H1639     1.0  0.56595  0.51598  0.55423  1.0000
  C   C2066     1.0  0.64704  0.56862  0.61144  1.0000
  H   H1640     1.0  0.56848  0.59695  0.64869  1.0000
  C   C2067     1.0  0.72391  0.51810  0.50223  1.0000
  C   C2068     1.0  0.56202  0.59856  0.63333  1.0000
  C   C2069     1.0  0.50309  0.51183  0.51750  1.0000
  C   C2070     1.0  0.53940  0.50897  0.61001  1.0000
  H   H1641     1.0  0.52820  0.78262  0.71456  1.0000
  H   H1642     1.0  0.60974  0.53710  0.61479  1.0000
  H   H1643     1.0  0.60340  0.95735  0.50354  1.0000
  C   C2071     1.0  0.62064  0.55778  0.61466  1.0000
  C   C2072     1.0  0.74919  0.58758  0.50247  1.0000
  H   H1644     1.0  0.86486  0.58587  0.50149  1.0000
  H   H1645     1.0  0.52792  0.84966  0.50131  1.0000
  S   S274      1.0  0.50562  0.65189  0.52108  1.0000
  C   C2073     1.0  0.54684  0.60476  0.59363  1.0000
  H   H1646     1.0  0.55319  0.62953  0.64223  1.0000
  H   H1647     1.0  0.50445  0.53522  0.59421  1.0000
  C   C2074     1.0  0.50359  0.57457  0.50714  1.0000
  C   C2075     1.0  0.57834  0.53195  0.67942  1.0000
  H   H1648     1.0  0.84018  0.54506  0.52969  1.0000
  H   H1649     1.0  0.87605  0.53761  0.54326  1.0000
  C   C2076     1.0  0.81120  0.50807  0.53889  1.0000
  C   C2077     1.0  0.54567  0.51840  0.50738  1.0000
  H   H1650     1.0  0.60265  0.54478  0.65308  1.0000
  C   C2078     1.0  0.77427  0.60521  0.50735  1.0000
  H   H1651     1.0  0.50665  0.77048  0.55904  1.0000
  H   H1652     1.0  0.52967  0.54655  0.64828  1.0000
  S   S275      1.0  0.62995  0.52043  0.52554  1.0000
  H   H1653     1.0  0.53965  0.63492  0.60711  1.0000
  C   C2079     1.0  0.56701  0.54716  0.64793  1.0000
  H   H1654     1.0  0.58414  0.55256  0.57848  1.0000
  C   C2080     1.0  0.51789  0.87642  0.51740  1.0000
  C   C2081     1.0  0.66134  0.59527  0.61088  1.0000
  C   C2082     1.0  0.56238  0.58244  0.61716  1.0000
  H   H1655     1.0  0.55632  0.57483  0.58417  1.0000
  C   C2083     1.0  0.50550  0.95659  0.53242  1.0000
  S   S276      1.0  0.51852  0.69202  0.61048  1.0000
  H   H1656     1.0  0.51543  0.71243  0.65045  1.0000
  C   C2084     1.0  0.55498  0.52774  0.68820  1.0000
  C   C2085     1.0  0.53756  0.53313  0.67694  1.0000
  H   H1657     1.0  0.53199  0.50641  0.62557  1.0000
  H   H1658     1.0  0.73420  0.58238  0.51395  1.0000
  C   C2086     1.0  0.54348  0.54270  0.65686  1.0000
  Fe  Fe138     1.0  0.65291  0.50889  0.57953  1.0000
  H   H1659     1.0  0.61091  0.50502  0.66301  1.0000
  C   C2087     1.0  0.51088  0.77659  0.70548  1.0000
  H   H1660     1.0  0.57615  0.68164  0.50078  1.0000
  Fe  Fe139     1.0  0.51228  0.69101  0.53334  1.0000
  S   S277      1.0  0.69167  0.51326  0.50661  1.0000
  C   C2088     1.0  0.58630  0.98302  0.50810  1.0000
  C   C2089     1.0  0.51626  0.75167  0.50244  1.0000
  H   H1661     1.0  0.50263  0.89831  0.53455  1.0000
  H   H1662     1.0  0.55043  0.52030  0.70376  1.0000
  H   H1663     1.0  0.60294  0.99762  0.51584  1.0000
  C   C2090     1.0  0.51403  0.85194  0.51114  1.0000
  H   H1664     1.0  0.62697  0.50849  0.62703  1.0000
  H   H1665     1.0  0.74489  0.51513  0.58600  1.0000
  S   S278      1.0  0.50740  0.63428  0.56937  1.0000
  H   H1666     1.0  0.53173  0.54642  0.50349  1.0000
  C   C2091     1.0  0.85651  0.52294  0.54486  1.0000
  C   C2092     1.0  0.50412  0.79481  0.69716  1.0000
  H   H1667     1.0  0.87598  0.54652  0.96039  1.0000
  H   H1668     1.0  0.63723  0.55231  0.79857  1.0000
  H   H1669     1.0  0.66458  0.66265  0.89357  1.0000
  C   C2093     1.0  0.59754  0.83475  0.79636  1.0000
  C   C2094     1.0  0.57497  0.60012  0.88812  1.0000
  S   S279      1.0  0.67025  0.55096  0.93500  1.0000
  C   C2095     1.0  0.60043  0.82406  0.81485  1.0000
  H   H1670     1.0  0.83691  0.54931  0.97237  1.0000
  S   S280      1.0  0.65049  0.54332  0.98278  1.0000
  C   C2096     1.0  0.57877  0.58567  0.87218  1.0000
  Fe  Fe140     1.0  0.63447  0.54692  0.95194  1.0000
  S   S281      1.0  0.60587  0.56434  0.94847  1.0000
  Fe  Fe141     1.0  0.68426  0.54324  0.96587  1.0000
  H   H1671     1.0  0.57194  0.83183  0.77138  1.0000
  H   H1672     1.0  0.68858  0.64923  0.91842  1.0000
  C   C2097     1.0  0.61275  0.56796  0.85024  1.0000
  S   S282      1.0  0.72433  0.56412  0.98071  1.0000
  S   S283      1.0  0.53472  0.69779  0.93319  1.0000
  H   H1673     1.0  0.66234  0.59410  0.81630  1.0000
  C   C2098     1.0  0.55812  0.51542  0.91400  1.0000
  H   H1674     1.0  0.52137  0.71055  0.83516  1.0000
  C   C2099     1.0  0.81130  0.51148  0.96138  1.0000
  H   H1675     1.0  0.50372  0.77142  0.85818  1.0000
  Fe  Fe142     1.0  0.53526  0.65929  0.93795  1.0000
  S   S284      1.0  0.57302  0.65551  0.93689  1.0000
  H   H1676     1.0  0.56071  0.55204  0.90575  1.0000
  C   C2100     1.0  0.58883  0.54413  0.88944  1.0000
  C   C2101     1.0  0.63762  0.62392  0.88555  1.0000
  H   H1677     1.0  0.58061  0.53038  0.84618  1.0000
  H   H1678     1.0  0.50415  0.58058  0.95865  1.0000
  H   H1679     1.0  0.54279  0.51146  0.92490  1.0000
  C   C2102     1.0  0.63012  0.55701  0.81268  1.0000
  C   C2103     1.0  0.58154  0.62983  0.94082  1.0000
  C   C2104     1.0  0.56333  0.60415  0.94247  1.0000
  C   C2105     1.0  0.57108  0.58449  0.94485  1.0000
  C   C2106     1.0  0.59719  0.59010  0.94569  1.0000
  C   C2107     1.0  0.61538  0.61581  0.94428  1.0000
  C   C2108     1.0  0.60761  0.63542  0.94171  1.0000
  H   H1680     1.0  0.54329  0.59940  0.94130  1.0000
  H   H1681     1.0  0.55673  0.56474  0.94583  1.0000
  H   H1682     1.0  0.63548  0.62060  0.94504  1.0000
  H   H1683     1.0  0.62198  0.65511  0.94029  1.0000
  H   H1684     1.0  0.95399  0.50980  0.97054  1.0000
  H   H1685     1.0  0.61857  0.83259  0.82300  1.0000
  C   C2109     1.0  0.73979  0.52549  0.98676  1.0000
  C   C2110     1.0  0.63574  0.58594  0.84149  1.0000
  C   C2111     1.0  0.55265  0.74906  0.87881  1.0000
  H   H1686     1.0  0.53304  0.71516  0.75918  1.0000
  C   C2112     1.0  0.56841  0.53850  0.90312  1.0000
  H   H1687     1.0  0.59657  0.52070  0.81353  1.0000
  C   C2113     1.0  0.67230  0.63491  0.91010  1.0000
  H   H1688     1.0  0.64736  0.60398  0.84920  1.0000
  H   H1689     1.0  0.61503  0.53062  0.87691  1.0000
  H   H1690     1.0  0.52518  0.67529  0.77789  1.0000
  C   C2114     1.0  0.65219  0.51334  0.86920  1.0000
  C   C2115     1.0  0.66462  0.60886  0.91357  1.0000
  C   C2116     1.0  0.52689  0.69212  0.78637  1.0000
  H   H1691     1.0  0.56578  0.74215  0.88472  1.0000
  C   C2117     1.0  0.64338  0.59027  0.90312  1.0000
  C   C2118     1.0  0.59896  0.52647  0.88703  1.0000
  C   C2119     1.0  0.53304  0.75993  0.84971  1.0000
  C   C2120     1.0  0.64434  0.58045  0.82277  1.0000
  C   C2121     1.0  0.65878  0.64245  0.89612  1.0000
  H   H1692     1.0  0.51975  0.67345  0.81586  1.0000
  H   H1693     1.0  0.72306  0.51304  0.97792  1.0000
  C   C2122     1.0  0.85732  0.53058  0.95770  1.0000
  Fe  Fe143     1.0  0.50797  0.68803  0.96046  1.0000
  C   C2123     1.0  0.59832  0.54465  0.83973  1.0000
  C   C2124     1.0  0.51324  0.74470  0.99291  1.0000
  H   H1694     1.0  0.62743  0.63010  0.87470  1.0000
  C   C2125     1.0  0.52945  0.73509  0.80830  1.0000
  C   C2126     1.0  0.62967  0.59767  0.88905  1.0000
  H   H1695     1.0  0.53345  0.75909  0.96448  1.0000
  C   C2127     1.0  0.56333  0.57974  0.85439  1.0000
  C   C2128     1.0  0.51754  0.76530  0.86361  1.0000
  C   C2129     1.0  0.57382  0.69893  0.98966  1.0000
  C   C2130     1.0  0.57420  0.82368  0.78579  1.0000
  H   H1696     1.0  0.67487  0.60303  0.92465  1.0000
  H   H1697     1.0  0.53581  0.79354  0.78515  1.0000
  C   C2131     1.0  0.74477  0.55105  0.99036  1.0000
  H   H1698     1.0  0.56554  0.56831  0.84201  1.0000
  H   H1699     1.0  0.53633  0.61538  0.97976  1.0000
  H   H1700     1.0  0.58278  0.79439  0.83708  1.0000
  H   H1701     1.0  0.53469  0.75255  0.77807  1.0000
  H   H1702     1.0  0.63756  0.57022  0.90632  1.0000
  H   H1703     1.0  0.53784  0.75107  0.90890  1.0000
  C   C2132     1.0  0.51839  0.60254  0.98680  1.0000
  H   H1704     1.0  0.55387  0.62039  0.89846  1.0000
  S   S285      1.0  0.51089  0.65114  0.96646  1.0000
  C   C2133     1.0  0.57998  0.80229  0.82281  1.0000
  C   C2134     1.0  0.54142  0.60334  0.86828  1.0000
  C   C2135     1.0  0.65087  0.51723  0.84779  1.0000
  C   C2136     1.0  0.54480  0.58865  0.85244  1.0000
  H   H1705     1.0  0.54321  0.80456  0.97194  1.0000
  H   H1706     1.0  0.57154  0.71592  0.98591  1.0000
  H   H1707     1.0  0.60706  0.70922  0.97051  1.0000
  C   C2137     1.0  0.58856  0.50336  0.89780  1.0000
  P   P71       1.0  0.60238  0.57383  0.87525  1.0000
  H   H1708     1.0  0.61132  0.66974  0.97816  1.0000
  C   C2138     1.0  0.55372  0.80194  0.79369  1.0000
  C   C2139     1.0  0.55649  0.60904  0.88612  1.0000
  S   S286      1.0  0.50710  0.71184  0.98909  1.0000
  H   H1709     1.0  0.58632  0.60452  0.90213  1.0000
  H   H1710     1.0  0.73744  0.50416  0.78705  1.0000
  H   H1711     1.0  0.99834  0.59923  0.97718  1.0000
  C   C2140     1.0  0.96182  0.58247  0.99237  1.0000
  C   C2141     1.0  0.52488  0.71236  0.81871  1.0000
  C   C2142     1.0  0.51949  0.76236  0.88489  1.0000
  C   C2143     1.0  0.52677  0.76399  0.97865  1.0000
  H   H1712     1.0  0.65577  0.52878  0.88008  1.0000
  C   C2144     1.0  0.55637  0.79112  0.81236  1.0000
  C   C2145     1.0  0.83536  0.53223  0.96435  1.0000
  H   H1713     1.0  0.52707  0.61026  0.86679  1.0000
  H   H1714     1.0  0.65327  0.53571  0.84245  1.0000
  C   C2146     1.0  0.52383  0.69109  0.80779  1.0000
  C   C2147     1.0  0.53125  0.71453  0.77586  1.0000
  H   H1715     1.0  0.87225  0.50674  0.94308  1.0000
  C   C2148     1.0  0.55084  0.75207  0.85754  1.0000
  C   C2149     1.0  0.55945  0.54702  0.99138  1.0000
  H   H1716     1.0  0.79460  0.51287  0.96724  1.0000
  H   H1717     1.0  0.51666  0.80530  0.82577  1.0000
  H   H1718     1.0  0.56294  0.74770  0.84718  1.0000
  S   S287      1.0  0.64469  0.50350  0.80643  1.0000
  H   H1719     1.0  0.61343  0.85156  0.79018  1.0000
  C   C2150     1.0  0.53232  0.78986  0.98296  1.0000
  C   C2151     1.0  0.60712  0.53915  0.82113  1.0000
  C   C2152     1.0  0.53693  0.75412  0.89247  1.0000
  C   C2153     1.0  0.53234  0.73585  0.78672  1.0000
  P   P72       1.0  0.52990  0.76252  0.82205  1.0000
  Fe  Fe144     1.0  0.65017  0.50784  0.93154  1.0000
  H   H1720     1.0  0.74390  0.51357  0.91433  1.0000
  H   H1721     1.0  0.50537  0.80052  0.74931  1.0000
  C   C2154     1.0  0.59386  0.69522  0.98107  1.0000
  C   C2155     1.0  0.98478  0.58295  0.98577  1.0000
  H   H1722     1.0  0.53300  0.58415  0.83866  1.0000
  H   H1723     1.0  0.56667  0.51503  0.98298  1.0000
  C   C2156     1.0  0.85520  0.50819  0.94796  1.0000
  C   C2157     1.0  0.59626  0.67293  0.98541  1.0000
  H   H1724     1.0  0.51180  0.91297  0.97319  1.0000
  H   H1725     1.0  0.95766  0.59846  0.98917  1.0000
  S   S288      1.0  0.61397  0.50394  0.94693  1.0000
  C   C2158     1.0  0.99052  0.56273  0.99063  1.0000
  H   H1726     1.0  0.57710  0.56110  0.98468  1.0000
  H   H1727     1.0  0.50707  0.76587  0.89554  1.0000
  C   C2159     1.0  0.55356  0.52100  0.99053  1.0000
  C   C2160     1.0  0.75660  0.51606  0.99442  1.0000
  H   H1728     1.0  0.50668  0.94613  0.99379  1.0000
