data_image0
_chemical_formula_structural       CSCH2C3H4CH2CFeHC2HC2HSCSPFeSFeSCH2CHC4H3CH2C3HC2H3CHCHCHC2HCPCHC3HC2H2C2H4CHC2FeSCS2FeSHFeSFeC2HCHCSFeCSC2HFeS2FeSCFeSFeS3H5C6H4CHCHCHC2H2C3HC7H6CH2C6HC7PC15HC2HC2H4CH3PCH2SHC2HCH2C2SH7CH2SCHC2H2C2H2FeHC3PCHCHFeH2CHSC6H2C2H6SC2H6CH3C2HC10PC8HC2H2C2H2SHSH2SH4CHCH2CH3CH3CHC2HC2HC2HCHSHCHCHC6HCSHCHCSHFeSCHFeSCSHFeS2FeSHFeSFeS3C2H4CH3PHCH2C3H2C3HCHC6H4CH4C2H5CSC3HCHC6HC2HC3H2CHCHCHCHCH2CHC3PC2HC2HC12H5S2PC2H6SH2C2PFeC6H2CHC3H5CH2C2HC3HCHCH3CHCHCH3C10HFeC6SC2HC4HCHC2HC3H2CH2C4H2CH4CH6C3H5CHC2H2CHCHC4HCHCH3C2H2CHC4SC2FeSCSCFeSPCH3C2H2CHC3H2C3H3C2HC3H2CHC4SC2HC6PC3HCH2C10H6C2H2CH5CHPC6PHCHC2H5C2H2CHSH3CH2CH2CHC4HC2SC2HC2H3SH2C2HFePCHC5H3C2HC5H3CHFeHC4H2C4H2CH2C6HC3HC2H6CSC2HCHFeSCHSCFeS2FeSCFeSFeCS2HC2H2CHC2HC2H3C6H6CH2CHC3HCHPHC7HPHC3SC3FeHC4H3C8H2CH2SCHCHCH5CHC5H5CH3C2H5CSC2PC3H2CH2SC2H2C2HC2SC3H2CH2CH3CHC2H2C2SCSFeSCFeS2FeSFeS3C3H2C3H3C3HC6H4C5HC2H9CH2CHC2H2PCSFeH2C8H4CHC5HCHSC2HC6HPCPC3HCHC2SHC3H4C2H2C2HC2HCHFeC5HCSHC2HCHCHC2PC3H4CSC5H2CH4C3SFeS3H2CH2C3H5CHC7H2C2HCHCHC2HCHFeH2C3HPC6H3C4PCH5C2H2C2H2CHSCFeH2CPC3HC12HCH2CHCH4CHC2H2C7H2CHCSCH3C2HFeC2H2CH4C4H3CHC3HCHCFeHC2HSHC2HC2H2CH2CH2CHCHCSC3H2CHCH2CHC2HC2HC2HSC2FeSFeSFeS2HFeS2FeS2FeSFeS4C3HCHSCHCHC3HCHPCHCHC7H2C6H5C3H6CH2CH2CHC3HC2HC3PH7CHC2H2CSH4C2HC3HC3H2CHC3H3FeCHC2SCHC4PC18H7CH13CHC11PHC10HC4H5CH4CH4C2SCHCHCHC2HCFeHCHSHC3HCHCH3C5H2CH2C3SFeS2HS2CFeSFe3SHFeSCSFeSCFeS2FeSFeS4FeH2CSCHCH2C6HCH2C3HC2HC2HC2H2CSHCPC6H4CH2CHC6H2CHCHSC6HCH5C5HPC2HCPC2HCHCH2CH2CSHSH3CH5FeHCFeH4CHCHC4PC19SH17C4HC2HCH2CH2CHC4PC18H4FeH7C4HCHCS2C3H2C4HC2H2CH2CH2C2H5C4HCH4CHCH7C4H3C2HCHFeHC4HFeSHFeSFeSFeS2CHC4H2CSCH3CH3CH3C3H4CHC2HC4H2C2HC3HCH3CHSHC2HCHCHSHFeSHC3HC4H2CPC2H2C2HC2H3C4SC2H5CHCHC2HCHSH3C5HPH2CH2C
_chemical_formula_sum              "C1080 S144 H864 Fe72 P36"
_cell_length_a       59.401
_cell_length_b       59.2963
_cell_length_c       29.4139
_cell_angle_alpha    89.8605
_cell_angle_beta     90.1909
_cell_angle_gamma    120.133

_space_group_name_H-M_alt    "P 1"
_space_group_IT_number       1

loop_
  _space_group_symop_operation_xyz
  'x, y, z'

loop_
  _atom_site_type_symbol
  _atom_site_label
  _atom_site_symmetry_multiplicity
  _atom_site_fract_x
  _atom_site_fract_y
  _atom_site_fract_z
  _atom_site_occupancy
  C   C1        1.0  0.45601  0.23394  0.45854  1.0000
  S   S1        1.0  0.45745  0.27858  0.42549  1.0000
  C   C2        1.0  0.40866  0.00414  0.45861  1.0000
  H   H1        1.0  0.42887  0.06798  0.48154  1.0000
  H   H2        1.0  0.38393  0.31067  0.49926  1.0000
  C   C3        1.0  0.46462  0.26052  0.46644  1.0000
  C   C4        1.0  0.45558  0.02927  0.46971  1.0000
  C   C5        1.0  0.45410  0.05180  0.47677  1.0000
  H   H3        1.0  0.39981  0.01219  0.36790  1.0000
  H   H4        1.0  0.44591  0.22505  0.42717  1.0000
  H   H5        1.0  0.38900  0.02650  0.46362  1.0000
  H   H6        1.0  0.45270  0.19810  0.48461  1.0000
  C   C6        1.0  0.43002  0.05058  0.47506  1.0000
  H   H7        1.0  0.49012  0.27618  0.34379  1.0000
  H   H8        1.0  0.37830  0.02257  0.30615  1.0000
  C   C7        1.0  0.40743  0.02694  0.46559  1.0000
  Fe  Fe1       1.0  0.47536  0.32305  0.41799  1.0000
  H   H9        1.0  0.47420  0.03014  0.47168  1.0000
  C   C8        1.0  0.43294  0.00548  0.46092  1.0000
  C   C9        1.0  0.45994  0.21856  0.49110  1.0000
  H   H10       1.0  0.47147  0.07017  0.48456  1.0000
  C   C10       1.0  0.37876  0.00151  0.36565  1.0000
  C   C11       1.0  0.36664  0.00737  0.33043  1.0000
  H   H11       1.0  0.40980  0.31703  0.28593  1.0000
  S   S2        1.0  0.46421  0.13808  0.53698  1.0000
  C   C12       1.0  0.39278  0.33004  0.51391  1.0000
  S   S3        1.0  0.47191  0.14994  0.64597  1.0000
  P   P1        1.0  0.48985  0.06069  0.74089  1.0000
  Fe  Fe2       1.0  0.46084  0.11472  0.60035  1.0000
  S   S4        1.0  0.42609  0.07328  0.61500  1.0000
  Fe  Fe3       1.0  0.47902  0.17380  0.58145  1.0000
  S   S5        1.0  0.47413  0.21010  0.57812  1.0000
  C   C13       1.0  0.44418  0.10295  0.77084  1.0000
  H   H12       1.0  0.44733  0.00665  0.56118  1.0000
  H   H13       1.0  0.47819  0.04268  0.64613  1.0000
  C   C14       1.0  0.43940  0.01743  0.73496  1.0000
  H   H14       1.0  0.45071  0.09844  0.84153  1.0000
  C   C15       1.0  0.43349  0.01003  0.57926  1.0000
  C   C16       1.0  0.43890  0.03596  0.58590  1.0000
  C   C17       1.0  0.42108  0.04089  0.60833  1.0000
  C   C18       1.0  0.39817  0.01936  0.62542  1.0000
  H   H15       1.0  0.45671  0.05218  0.57302  1.0000
  H   H16       1.0  0.38426  0.02274  0.64330  1.0000
  H   H17       1.0  0.43374  0.25537  0.59291  1.0000
  C   C19       1.0  0.41719  0.15874  0.75751  1.0000
  H   H18       1.0  0.40257  0.13867  0.76450  1.0000
  H   H19       1.0  0.47489  0.07569  0.82602  1.0000
  C   C20       1.0  0.44892  0.19118  0.70651  1.0000
  C   C21       1.0  0.43806  0.25953  0.62884  1.0000
  C   C22       1.0  0.47296  0.07824  0.75257  1.0000
  H   H20       1.0  0.43984  0.10351  0.69829  1.0000
  C   C23       1.0  0.45497  0.21072  0.73904  1.0000
  C   C24       1.0  0.42268  0.17817  0.78968  1.0000
  H   H21       1.0  0.46581  0.08260  0.68183  1.0000
  H   H22       1.0  0.45837  0.19594  0.67358  1.0000
  H   H23       1.0  0.44473  0.21902  0.80505  1.0000
  C   C25       1.0  0.44128  0.20413  0.78030  1.0000
  H   H24       1.0  0.42552  0.15036  0.69040  1.0000
  C   C26       1.0  0.45408  0.09502  0.80669  1.0000
  H   H25       1.0  0.41226  0.17314  0.82166  1.0000
  C   C27       1.0  0.47457  0.00941  0.71703  1.0000
  H   H26       1.0  0.43223  0.03018  0.74528  1.0000
  C   C28       1.0  0.47211  0.22938  0.53270  1.0000
  C   C29       1.0  0.46808  0.08236  0.79767  1.0000
  H   H27       1.0  0.43305  0.11246  0.77771  1.0000
  C   C30       1.0  0.43423  0.27856  0.69901  1.0000
  P   P2        1.0  0.47813  0.24430  0.72578  1.0000
  C   C31       1.0  0.43019  0.16529  0.71585  1.0000
  H   H28       1.0  0.49041  0.26484  0.57198  1.0000
  C   C32       1.0  0.44833  0.09824  0.72603  1.0000
  C   C33       1.0  0.46292  0.08622  0.71681  1.0000
  C   C34       1.0  0.46624  0.02652  0.73211  1.0000
  H   H29       1.0  0.49513  0.01618  0.71335  1.0000
  C   C35       1.0  0.48097  0.25605  0.54028  1.0000
  C   C36       1.0  0.42894  0.27372  0.65254  1.0000
  H   H30       1.0  0.45906  0.23895  0.63284  1.0000
  H   H31       1.0  0.49295  0.23070  0.81254  1.0000
  C   C37       1.0  0.44904  0.26960  0.72160  1.0000
  C   C38       1.0  0.45271  0.25047  0.65142  1.0000
  H   H32       1.0  0.48426  0.29187  0.51426  1.0000
  H   H33       1.0  0.45246  0.27303  0.75775  1.0000
  H   H34       1.0  0.37465  0.31657  0.57923  1.0000
  H   H35       1.0  0.42672  0.28913  0.71756  1.0000
  C   C39       1.0  0.45902  0.25611  0.69755  1.0000
  H   H36       1.0  0.41754  0.28068  0.63493  1.0000
  C   C40       1.0  0.47752  0.27154  0.50741  1.0000
  C   C41       1.0  0.49465  0.26318  0.77557  1.0000
  Fe  Fe4       1.0  0.17929  0.60937  0.04434  1.0000
  S   S6        1.0  0.15076  0.61023  0.09501  1.0000
  C   C42       1.0  0.26234  0.48354  0.46090  1.0000
  S   S7        1.0  0.25236  0.59148  0.06818  1.0000
  S   S8        1.0  0.22268  0.63458  0.04857  1.0000
  Fe  Fe5       1.0  0.22356  0.59841  0.02976  1.0000
  S   S9        1.0  0.37216  0.58801  0.05796  1.0000
  H   H37       1.0  0.21821  0.65738  0.38023  1.0000
  Fe  Fe6       1.0  0.40474  0.58011  0.04615  1.0000
  S   S10       1.0  0.40496  0.54853  0.09047  1.0000
  Fe  Fe7       1.0  0.40215  0.62996  0.04786  1.0000
  C   C43       1.0  0.01344  0.42166  0.48614  1.0000
  C   C44       1.0  0.40971  0.60286  0.49226  1.0000
  H   H38       1.0  0.20026  0.63592  0.14426  1.0000
  C   C45       1.0  0.22037  0.66382  0.41529  1.0000
  H   H39       1.0  0.23305  0.51988  0.32666  1.0000
  C   C46       1.0  0.13236  0.59205  0.45296  1.0000
  S   S11       1.0  0.12017  0.63560  0.37429  1.0000
  Fe  Fe8       1.0  0.46946  0.37193  0.40116  1.0000
  C   C47       1.0  0.19523  0.53142  0.11317  1.0000
  S   S12       1.0  0.45402  0.40082  0.39833  1.0000
  C   C48       1.0  0.45083  0.43241  0.07878  1.0000
  C   C49       1.0  0.20520  0.65572  0.49317  1.0000
  H   H40       1.0  0.22754  0.55613  0.15588  1.0000
  Fe  Fe9       1.0  0.37286  0.51458  0.35589  1.0000
  S   S13       1.0  0.33636  0.47585  0.34618  1.0000
  S   S14       1.0  0.39299  0.54866  0.30629  1.0000
  Fe  Fe10      1.0  0.37469  0.50362  0.45678  1.0000
  S   S15       1.0  0.33834  0.46451  0.45439  1.0000
  C   C50       1.0  0.43263  0.62690  0.49572  1.0000
  Fe  Fe11      1.0  0.35660  0.45967  0.39042  1.0000
  S   S16       1.0  0.35864  0.42246  0.37723  1.0000
  Fe  Fe12      1.0  0.32187  0.48461  0.41166  1.0000
  S   S17       1.0  0.28353  0.48586  0.41541  1.0000
  S   S18       1.0  0.39374  0.49802  0.39570  1.0000
  S   S19       1.0  0.35764  0.52411  0.41867  1.0000
  H   H41       1.0  0.45892  0.50676  0.44891  1.0000
  H   H42       1.0  0.38799  0.34248  0.30235  1.0000
  H   H43       1.0  0.00689  0.46382  0.49542  1.0000
  H   H44       1.0  0.34589  0.65130  0.04706  1.0000
  H   H45       1.0  0.06680  0.42082  0.44668  1.0000
  C   C51       1.0  0.42675  0.40583  0.39459  1.0000
  C   C52       1.0  0.40180  0.38602  0.38238  1.0000
  C   C53       1.0  0.38128  0.39144  0.37736  1.0000
  C   C54       1.0  0.38517  0.41657  0.38556  1.0000
  C   C55       1.0  0.40985  0.43607  0.39998  1.0000
  C   C56       1.0  0.43048  0.43076  0.40409  1.0000
  H   H46       1.0  0.14485  0.49472  0.40186  1.0000
  H   H47       1.0  0.36224  0.37606  0.36686  1.0000
  H   H48       1.0  0.41316  0.45538  0.40720  1.0000
  H   H49       1.0  0.44949  0.44612  0.41458  1.0000
  C   C57       1.0  0.45438  0.45234  0.10838  1.0000
  H   H50       1.0  0.39783  0.40663  0.49545  1.0000
  C   C58       1.0  0.24196  0.51820  0.29577  1.0000
  H   H51       1.0  0.20477  0.54214  0.08253  1.0000
  C   C59       1.0  0.24922  0.52373  0.21447  1.0000
  H   H52       1.0  0.44958  0.43471  0.04245  1.0000
  C   C60       1.0  0.42993  0.56006  0.46988  1.0000
  C   C61       1.0  0.45200  0.58470  0.46338  1.0000
  H   H53       1.0  0.41672  0.55048  0.44189  1.0000
  H   H54       1.0  0.45574  0.59397  0.43037  1.0000
  C   C62       1.0  0.00972  0.61641  0.33660  1.0000
  C   C63       1.0  0.03098  0.62849  0.36690  1.0000
  C   C64       1.0  0.02581  0.62575  0.41360  1.0000
  H   H55       1.0  0.01334  0.61835  0.30038  1.0000
  C   C65       1.0  0.23062  0.61188  0.23460  1.0000
  C   C66       1.0  0.40223  0.54865  0.15062  1.0000
  C   C67       1.0  0.41059  0.57185  0.17458  1.0000
  C   C68       1.0  0.40805  0.57143  0.22225  1.0000
  C   C69       1.0  0.39662  0.54780  0.24650  1.0000
  C   C70       1.0  0.38840  0.52454  0.22265  1.0000
  C   C71       1.0  0.39154  0.52504  0.17500  1.0000
  H   H56       1.0  0.41927  0.59012  0.15629  1.0000
  H   H57       1.0  0.41479  0.58949  0.24046  1.0000
  H   H58       1.0  0.37973  0.50622  0.24087  1.0000
  H   H59       1.0  0.38521  0.50700  0.15681  1.0000
  H   H60       1.0  0.33692  0.60228  0.02862  1.0000
  H   H61       1.0  0.07521  0.48587  0.50242  1.0000
  C   C72       1.0  0.16386  0.48644  0.34730  1.0000
  H   H62       1.0  0.43359  0.39329  0.48558  1.0000
  H   H63       1.0  0.28464  0.49908  0.26244  1.0000
  C   C73       1.0  0.15996  0.62491  0.14961  1.0000
  C   C74       1.0  0.17005  0.50998  0.11081  1.0000
  C   C75       1.0  0.24355  0.49102  0.45291  1.0000
  C   C76       1.0  0.17327  0.64815  0.23702  1.0000
  C   C77       1.0  0.19219  0.64783  0.20885  1.0000
  C   C78       1.0  0.18559  0.63622  0.16544  1.0000
  H   H64       1.0  0.49326  0.53678  0.27611  1.0000
  C   C79       1.0  0.13735  0.55662  0.48286  1.0000
  C   C80       1.0  0.28731  0.61426  0.17503  1.0000
  C   C81       1.0  0.30350  0.63851  0.15501  1.0000
  C   C82       1.0  0.40653  0.35163  0.28489  1.0000
  C   C83       1.0  0.34111  0.63463  0.17381  1.0000
  C   C84       1.0  0.32503  0.61024  0.19419  1.0000
  C   C85       1.0  0.29800  0.60028  0.19497  1.0000
  P   P3        1.0  0.33825  0.58979  0.21104  1.0000
  C   C86       1.0  0.32616  0.57423  0.26571  1.0000
  C   C87       1.0  0.33039  0.56558  0.16681  1.0000
  C   C88       1.0  0.34289  0.55083  0.16571  1.0000
  C   C89       1.0  0.33706  0.53228  0.13159  1.0000
  C   C90       1.0  0.31901  0.52853  0.09772  1.0000
  C   C91       1.0  0.30666  0.54327  0.09801  1.0000
  C   C92       1.0  0.31228  0.56168  0.13226  1.0000
  C   C93       1.0  0.31281  0.58234  0.29472  1.0000
  C   C94       1.0  0.30516  0.57143  0.33817  1.0000
  C   C95       1.0  0.31119  0.55272  0.35335  1.0000
  C   C96       1.0  0.32497  0.54502  0.32520  1.0000
  C   C97       1.0  0.33255  0.55579  0.28178  1.0000
  C   C98       1.0  0.37323  0.60990  0.21686  1.0000
  C   C99       1.0  0.38480  0.61908  0.25971  1.0000
  C   C100      1.0  0.06722  0.49722  0.48792  1.0000
  H   H65       1.0  0.45735  0.48750  0.34172  1.0000
  C   C101      1.0  0.44280  0.34915  0.25347  1.0000
  C   C102      1.0  0.38903  0.61776  0.17811  1.0000
  H   H66       1.0  0.26639  0.60577  0.17295  1.0000
  C   C103      1.0  0.06973  0.61555  0.49671  1.0000
  C   C104      1.0  0.27361  0.58700  0.03274  1.0000
  H   H67       1.0  0.36180  0.64239  0.17035  1.0000
  H   H68       1.0  0.28509  0.58097  0.20834  1.0000
  H   H69       1.0  0.35768  0.55406  0.19035  1.0000
  H   H70       1.0  0.34720  0.52137  0.13048  1.0000
  C   C105      1.0  0.02118  0.57067  0.48533  1.0000
  H   H71       1.0  0.29329  0.54101  0.07083  1.0000
  H   H72       1.0  0.30275  0.57304  0.13042  1.0000
  H   H73       1.0  0.30879  0.59745  0.28440  1.0000
  P   P4        1.0  0.21261  0.53594  0.24911  1.0000
  C   C106      1.0  0.23636  0.52532  0.25336  1.0000
  H   H74       1.0  0.32991  0.53070  0.33706  1.0000
  H   H75       1.0  0.34398  0.55001  0.26165  1.0000
  S   S20       1.0  0.43557  0.62264  0.04177  1.0000
  H   H76       1.0  0.30520  0.54405  0.38687  1.0000
  C   C107      1.0  0.49255  0.43780  0.24624  1.0000
  C   C108      1.0  0.18246  0.53809  0.32033  1.0000
  H   H77       1.0  0.38051  0.61126  0.14479  1.0000
  C   C109      1.0  0.45460  0.37538  0.24081  1.0000
  H   H78       1.0  0.44991  0.38903  0.15519  1.0000
  H   H79       1.0  0.37321  0.61322  0.29036  1.0000
  C   C110      1.0  0.41587  0.63469  0.18185  1.0000
  C   C111      1.0  0.26253  0.61169  0.28569  1.0000
  S   S21       1.0  0.13767  0.52760  0.47368  1.0000
  H   H80       1.0  0.16062  0.49299  0.22232  1.0000
  H   H81       1.0  0.42777  0.64069  0.15144  1.0000
  H   H82       1.0  0.08060  0.54238  0.37686  1.0000
  H   H83       1.0  0.21182  0.49498  0.48044  1.0000
  H   H84       1.0  0.26275  0.50233  0.33144  1.0000
  H   H85       1.0  0.18539  0.48398  0.29092  1.0000
  H   H86       1.0  0.04181  0.63497  0.43738  1.0000
  C   C112      1.0  0.21875  0.58485  0.22992  1.0000
  H   H87       1.0  0.38867  0.44462  0.26071  1.0000
  H   H88       1.0  0.44681  0.39435  0.07301  1.0000
  S   S22       1.0  0.47102  0.34234  0.35382  1.0000
  C   C113      1.0  0.03488  0.41656  0.40505  1.0000
  H   H89       1.0  0.13820  0.47961  0.14844  1.0000
  C   C114      1.0  0.47028  0.54793  0.31652  1.0000
  C   C115      1.0  0.18983  0.52248  0.29588  1.0000
  H   H90       1.0  0.10621  0.56065  0.30760  1.0000
  H   H91       1.0  0.27924  0.62206  0.30783  1.0000
  C   C116      1.0  0.41173  0.63577  0.26345  1.0000
  C   C117      1.0  0.00505  0.53141  0.40230  1.0000
  H   H92       1.0  0.15689  0.46653  0.35818  1.0000
  H   H93       1.0  0.45953  0.46539  0.17753  1.0000
  Fe  Fe13      1.0  0.10499  0.66360  0.37319  1.0000
  H   H94       1.0  0.44814  0.65632  0.22731  1.0000
  C   C118      1.0  0.15705  0.50225  0.37189  1.0000
  C   C119      1.0  0.45424  0.42652  0.17292  1.0000
  C   C120      1.0  0.29967  0.59758  0.04560  1.0000
  P   P5        1.0  0.45836  0.42393  0.23329  1.0000
  C   C121      1.0  0.44246  0.38999  0.24998  1.0000
  H   H95       1.0  0.45919  0.54880  0.28783  1.0000
  C   C122      1.0  0.42089  0.37668  0.50639  1.0000
  H   H96       1.0  0.29506  0.64871  0.13778  1.0000
  Fe  Fe14      1.0  0.13800  0.65406  0.44109  1.0000
  H   H97       1.0  0.45086  0.55945  0.36499  1.0000
  H   H98       1.0  0.18942  0.55816  0.31080  1.0000
  C   C123      1.0  0.41836  0.37793  0.27244  1.0000
  H   H99       1.0  0.48764  0.49004  0.40038  1.0000
  S   S23       1.0  0.40040  0.66099  0.08876  1.0000
  C   C124      1.0  0.44410  0.44066  0.26213  1.0000
  C   C125      1.0  0.41917  0.43560  0.24932  1.0000
  C   C126      1.0  0.40817  0.44904  0.26983  1.0000
  C   C127      1.0  0.42213  0.46796  0.30267  1.0000
  C   C128      1.0  0.44696  0.47322  0.31551  1.0000
  C   C129      1.0  0.45796  0.45959  0.29550  1.0000
  H   H100      1.0  0.22258  0.62231  0.21695  1.0000
  H   H101      1.0  0.14155  0.66555  0.11960  1.0000
  C   C130      1.0  0.04826  0.42025  0.44605  1.0000
  C   C131      1.0  0.20810  0.53925  0.15499  1.0000
  H   H102      1.0  0.25830  0.57419  0.29992  1.0000
  H   H103      1.0  0.24246  0.49829  0.41971  1.0000
  H   H104      1.0  0.40872  0.38868  0.28113  1.0000
  H   H105      1.0  0.18833  0.62752  0.43920  1.0000
  H   H106      1.0  0.00223  0.55342  0.48148  1.0000
  H   H107      1.0  0.13316  0.63786  0.24198  1.0000
  S   S24       1.0  0.47055  0.35069  0.46463  1.0000
  C   C132      1.0  0.17061  0.50389  0.19225  1.0000
  C   C133      1.0  0.45629  0.44952  0.15521  1.0000
  H   H108      1.0  0.47713  0.46388  0.30620  1.0000
  H   H109      1.0  0.37077  0.42593  0.47641  1.0000
  H   H110      1.0  0.41334  0.34928  0.45253  1.0000
  H   H111      1.0  0.26140  0.64626  0.26638  1.0000
  H   H112      1.0  0.00606  0.56446  0.36814  1.0000
  H   H113      1.0  0.45247  0.33813  0.24663  1.0000
  C   C134      1.0  0.19592  0.52551  0.19497  1.0000
  H   H114      1.0  0.27647  0.51316  0.18775  1.0000
  H   H115      1.0  0.39839  0.36661  0.37606  1.0000
  H   H116      1.0  0.47322  0.38425  0.22367  1.0000
  C   C135      1.0  0.14775  0.63727  0.22094  1.0000
  C   C136      1.0  0.26668  0.51446  0.21783  1.0000
  H   H117      1.0  0.16090  0.54018  0.37763  1.0000
  C   C137      1.0  0.33043  0.64882  0.15499  1.0000
  C   C138      1.0  0.25250  0.62533  0.26243  1.0000
  C   C139      1.0  0.03744  0.42260  0.48657  1.0000
  C   C140      1.0  0.42726  0.64364  0.22449  1.0000
  C   C141      1.0  0.18006  0.49643  0.30930  1.0000
  C   C142      1.0  0.44918  0.40965  0.09601  1.0000
  C   C143      1.0  0.05375  0.48981  0.44665  1.0000
  C   C144      1.0  0.04428  0.50499  0.42722  1.0000
  C   C145      1.0  0.04840  0.52789  0.44876  1.0000
  C   C146      1.0  0.06677  0.59663  0.46521  1.0000
  P   P6        1.0  0.03893  0.54902  0.42027  1.0000
  C   C147      1.0  0.04243  0.57410  0.45914  1.0000
  C   C148      1.0  0.05990  0.56390  0.37138  1.0000
  C   C149      1.0  0.05858  0.58343  0.34651  1.0000
  C   C150      1.0  0.07301  0.59346  0.30665  1.0000
  C   C151      1.0  0.08979  0.58487  0.29218  1.0000
  C   C152      1.0  0.09244  0.56655  0.31797  1.0000
  C   C153      1.0  0.07764  0.55612  0.35740  1.0000
  C   C154      1.0  0.16619  0.52798  0.35823  1.0000
  H   H118      1.0  0.40195  0.59467  0.45907  1.0000
  C   C155      1.0  0.14109  0.62550  0.17761  1.0000
  C   C156      1.0  0.45094  0.40670  0.14286  1.0000
  H   H119      1.0  0.45586  0.47009  0.09501  1.0000
  H   H120      1.0  0.24581  0.52940  0.18139  1.0000
  C   C157      1.0  0.06227  0.53537  0.49003  1.0000
  C   C158      1.0  0.22907  0.57106  0.25230  1.0000
  H   H121      1.0  0.41341  0.47813  0.31883  1.0000
  H   H122      1.0  0.29471  0.57754  0.36036  1.0000
  S   S25       1.0  0.49506  0.62934  0.49164  1.0000
  H   H123      1.0  0.48575  0.42315  0.31531  1.0000
  S   S26       1.0  0.18014  0.57245  0.03085  1.0000
  H   H124      1.0  0.05128  0.47265  0.42924  1.0000
  H   H125      1.0  0.03470  0.49955  0.39443  1.0000
  S   S27       1.0  0.06334  0.64720  0.34450  1.0000
  H   H126      1.0  0.04706  0.59162  0.35834  1.0000
  H   H127      1.0  0.07184  0.60866  0.28798  1.0000
  H   H128      1.0  0.10130  0.59298  0.26172  1.0000
  H   H129      1.0  0.31522  0.51479  0.07049  1.0000
  C   C159      1.0  0.25075  0.58460  0.28090  1.0000
  H   H130      1.0  0.12918  0.56026  0.41271  1.0000
  C   C160      1.0  0.25897  0.50840  0.29878  1.0000
  H   H131      1.0  0.06689  0.55348  0.50653  1.0000
  H   H132      1.0  0.08355  0.59950  0.44607  1.0000
  C   C161      1.0  0.46712  0.51356  0.48244  1.0000
  H   H133      1.0  0.12893  0.60135  0.42447  1.0000
  H   H134      1.0  0.04299  0.41405  0.37381  1.0000
  H   H135      1.0  0.16009  0.50417  0.07832  1.0000
  C   C162      1.0  0.13258  0.56877  0.44629  1.0000
  H   H136      1.0  0.40813  0.42112  0.22360  1.0000
  H   H137      1.0  0.30677  0.60924  0.07608  1.0000
  H   H138      1.0  0.20135  0.57479  0.20917  1.0000
  C   C163      1.0  0.27130  0.50651  0.25985  1.0000
  H   H139      1.0  0.12125  0.61700  0.16556  1.0000
  C   C164      1.0  0.15776  0.49621  0.15032  1.0000
  C   C165      1.0  0.46874  0.59772  0.49984  1.0000
  H   H140      1.0  0.47605  0.55785  0.43066  1.0000
  C   C166      1.0  0.46555  0.55392  0.36007  1.0000
  C   C167      1.0  0.13675  0.60318  0.49625  1.0000
  H   H141      1.0  0.44277  0.63738  0.46531  1.0000
  C   C168      1.0  0.01086  0.41563  0.40450  1.0000
  C   C169      1.0  0.31674  0.59337  0.01893  1.0000
  H   H142      1.0  0.00149  0.45470  0.37484  1.0000
  C   C170      1.0  0.22604  0.48910  0.48737  1.0000
  H   H143      1.0  0.25713  0.66216  0.13771  1.0000
  S   S28       1.0  0.13712  0.63262  0.50518  1.0000
  H   H144      1.0  0.08858  0.63294  0.50114  1.0000
  C   C171      1.0  0.47971  0.55279  0.39723  1.0000
  H   H145      1.0  0.42065  0.64219  0.29661  1.0000
  C   C172      1.0  0.20347  0.64702  0.44846  1.0000
  H   H146      1.0  0.14811  0.65722  0.03972  1.0000
  C   C173      1.0  0.41878  0.33728  0.27558  1.0000
  C   C174      1.0  0.40934  0.35171  0.48759  1.0000
  C   C175      1.0  0.49396  0.53023  0.48853  1.0000
  C   C176      1.0  0.26319  0.47394  0.50406  1.0000
  C   C177      1.0  0.34487  0.66461  0.02294  1.0000
  C   C178      1.0  0.48941  0.54109  0.31003  1.0000
  H   H147      1.0  0.21207  0.65666  0.22076  1.0000
  C   C179      1.0  0.99983  0.61198  0.42950  1.0000
  S   S29       1.0  0.18247  0.66182  0.29223  1.0000
  H   H148      1.0  0.02571  0.49841  0.02587  1.0000
  C   C180      1.0  0.00034  0.41900  0.44490  1.0000
  H   H149      1.0  0.00037  0.41187  0.37268  1.0000
  C   C181      1.0  0.01260  0.44732  0.95667  1.0000
  S   S30       1.0  0.22539  0.60520  0.95464  1.0000
  H   H150      1.0  0.20428  0.49727  0.70740  1.0000
  Fe  Fe15      1.0  0.18174  0.58237  0.95622  1.0000
  S   S31       1.0  0.15676  0.54999  0.90580  1.0000
  C   C182      1.0  0.19902  0.45882  0.70952  1.0000
  H   H151      1.0  0.36352  0.53048  0.57999  1.0000
  Fe  Fe16      1.0  0.42696  0.61910  0.96612  1.0000
  S   S32       1.0  0.46003  0.64485  0.91692  1.0000
  C   C183      1.0  0.00977  0.48235  0.75916  1.0000
  S   S33       1.0  0.39558  0.62945  0.97331  1.0000
  H   H152      1.0  0.23679  0.44077  0.76849  1.0000
  Fe  Fe17      1.0  0.15631  0.51875  0.63953  1.0000
  S   S34       1.0  0.14896  0.47777  0.64623  1.0000
  S   S35       1.0  0.17370  0.55218  0.69120  1.0000
  Fe  Fe18      1.0  0.14301  0.51091  0.53855  1.0000
  S   S36       1.0  0.13506  0.46976  0.53808  1.0000
  H   H153      1.0  0.24565  0.54220  0.59548  1.0000
  Fe  Fe19      1.0  0.11295  0.46605  0.60262  1.0000
  S   S37       1.0  0.07178  0.43054  0.61210  1.0000
  Fe  Fe20      1.0  0.17167  0.48543  0.58042  1.0000
  S   S38       1.0  0.20524  0.47645  0.57573  1.0000
  S   S39       1.0  0.11920  0.50655  0.60028  1.0000
  S   S40       1.0  0.18070  0.52696  0.57642  1.0000
  C   C184      1.0  0.22678  0.47932  0.53044  1.0000
  C   C185      1.0  0.40636  0.62249  0.74478  1.0000
  H   H154      1.0  0.18105  0.51151  0.87072  1.0000
  H   H155      1.0  0.38749  0.62836  0.62077  1.0000
  H   H156      1.0  0.46160  0.65484  0.54079  1.0000
  H   H157      1.0  0.23670  0.57858  0.60420  1.0000
  C   C186      1.0  0.14139  0.59094  0.53295  1.0000
  H   H158      1.0  0.25558  0.63942  0.87920  1.0000
  H   H159      1.0  0.14516  0.59969  0.56638  1.0000
  H   H160      1.0  0.14582  0.55860  0.55452  1.0000
  P   P7        1.0  0.25142  0.53066  0.76068  1.0000
  H   H161      1.0  0.00767  0.58727  0.53605  1.0000
  C   C187      1.0  0.44202  0.56085  0.54863  1.0000
  H   H162      1.0  0.47662  0.59554  0.57071  1.0000
  H   H163      1.0  0.43833  0.55131  0.58122  1.0000
  C   C188      1.0  0.01805  0.40180  0.61417  1.0000
  C   C189      1.0  0.04003  0.42704  0.61212  1.0000
  C   C190      1.0  0.03602  0.44838  0.60982  1.0000
  H   H164      1.0  0.02083  0.38512  0.61583  1.0000
  H   H165      1.0  0.05260  0.46794  0.60816  1.0000
  C   C191      1.0  0.46695  0.63966  0.86026  1.0000
  C   C192      1.0  0.24545  0.47169  0.53831  1.0000
  C   C193      1.0  0.46018  0.51520  0.56313  1.0000
  H   H166      1.0  0.01121  0.53534  0.83499  1.0000
  C   C194      1.0  0.01100  0.63976  0.58167  1.0000
  H   H167      1.0  0.09972  0.44365  0.69399  1.0000
  C   C195      1.0  0.16263  0.55090  0.84645  1.0000
  C   C196      1.0  0.18086  0.57371  0.82426  1.0000
  C   C197      1.0  0.18424  0.57363  0.77681  1.0000
  C   C198      1.0  0.16976  0.55071  0.75118  1.0000
  C   C199      1.0  0.15203  0.52776  0.77356  1.0000
  C   C200      1.0  0.14830  0.52799  0.82083  1.0000
  H   H168      1.0  0.19208  0.59145  0.84360  1.0000
  H   H169      1.0  0.19803  0.59147  0.75985  1.0000
  H   H170      1.0  0.14091  0.50995  0.75438  1.0000
  H   H171      1.0  0.13436  0.51027  0.83786  1.0000
  C   C201      1.0  0.24079  0.57040  0.63393  1.0000
  H   H172      1.0  0.44616  0.59664  0.64256  1.0000
  H   H173      1.0  0.46711  0.57465  0.67872  1.0000
  H   H174      1.0  0.27881  0.53057  0.84397  1.0000
  H   H175      1.0  0.19830  0.42236  0.71732  1.0000
  C   C202      1.0  0.31905  0.54742  0.82642  1.0000
  C   C203      1.0  0.33773  0.55827  0.79212  1.0000
  H   H176      1.0  0.23468  0.59447  0.68120  1.0000
  H   H177      1.0  0.25336  0.52234  0.66281  1.0000
  H   H178      1.0  0.35796  0.56477  0.79978  1.0000
  H   H179      1.0  0.44693  0.51053  0.59141  1.0000
  H   H180      1.0  0.19935  0.50252  0.80260  1.0000
  C   C204      1.0  0.23732  0.53726  0.80958  1.0000
  S   S41       1.0  0.32843  0.57021  0.94905  1.0000
  C   C205      1.0  0.30765  0.57764  0.98018  1.0000
  C   C206      1.0  0.05864  0.51634  0.88642  1.0000
  C   C207      1.0  0.44613  0.56420  0.67440  1.0000
  H   H181      1.0  0.22766  0.64996  0.74084  1.0000
  C   C208      1.0  0.17964  0.64067  0.66118  1.0000
  H   H182      1.0  0.44060  0.52913  0.70628  1.0000
  C   C209      1.0  0.40695  0.56366  0.64826  1.0000
  C   C210      1.0  0.30418  0.55230  0.73828  1.0000
  C   C211      1.0  0.39602  0.64529  0.68762  1.0000
  C   C212      1.0  0.46383  0.58568  0.54244  1.0000
  C   C213      1.0  0.31895  0.65737  0.85994  1.0000
  C   C214      1.0  0.25222  0.56000  0.83533  1.0000
  H   H183      1.0  0.27715  0.46771  0.51076  1.0000
  C   C215      1.0  0.26465  0.57217  0.99290  1.0000
  C   C216      1.0  0.35752  0.55982  0.61258  1.0000
  H   H184      1.0  0.29885  0.55425  0.70398  1.0000
  C   C217      1.0  0.24591  0.54997  0.62900  1.0000
  C   C218      1.0  0.40251  0.60342  0.71297  1.0000
  C   C219      1.0  0.41192  0.44681  0.58717  1.0000
  H   H185      1.0  0.36009  0.59822  0.86687  1.0000
  H   H186      1.0  0.05092  0.62710  0.54615  1.0000
  C   C220      1.0  0.22985  0.45324  0.75517  1.0000
  H   H187      1.0  0.37098  0.52790  0.66342  1.0000
  C   C221      1.0  0.28160  0.56726  0.96693  1.0000
  H   H188      1.0  0.29909  0.55784  0.61490  1.0000
  C   C222      1.0  0.34805  0.66197  0.97655  1.0000
  H   H189      1.0  0.24618  0.46389  0.57122  1.0000
  C   C223      1.0  0.41621  0.38028  0.55173  1.0000
  H   H190      1.0  0.40550  0.58763  0.72367  1.0000
  C   C224      1.0  0.21148  0.51989  0.82229  1.0000
  H   H191      1.0  0.27443  0.55503  0.93707  1.0000
  H   H192      1.0  0.24446  0.56374  0.98303  1.0000
  C   C225      1.0  0.09267  0.53682  0.81272  1.0000
  H   H193      1.0  0.25979  0.48747  0.78803  1.0000
  C   C226      1.0  0.23421  0.49612  0.74835  1.0000
  C   C227      1.0  0.06864  0.51374  0.80700  1.0000
  C   C228      1.0  0.21174  0.48527  0.72091  1.0000
  P   P8        1.0  0.06175  0.49489  0.75517  1.0000
  C   C229      1.0  0.07801  0.47611  0.75964  1.0000
  C   C230      1.0  0.47954  0.63346  0.76970  1.0000
  H   H194      1.0  0.02971  0.44073  0.72173  1.0000
  C   C231      1.0  0.25008  0.53861  0.66739  1.0000
  C   C232      1.0  0.37013  0.61932  0.86697  1.0000
  H   H195      1.0  0.31770  0.50291  0.55669  1.0000
  C   C233      1.0  0.02701  0.47337  0.74873  1.0000
  C   C234      1.0  0.08368  0.46647  0.72044  1.0000
  C   C235      1.0  0.09580  0.45151  0.72416  1.0000
  C   C236      1.0  0.10275  0.44643  0.76671  1.0000
  C   C237      1.0  0.09725  0.45601  0.80587  1.0000
  C   C238      1.0  0.08478  0.47063  0.80245  1.0000
  C   C239      1.0  0.07376  0.51632  0.70612  1.0000
  C   C240      1.0  0.05656  0.51888  0.67635  1.0000
  C   C241      1.0  0.06617  0.53612  0.63947  1.0000
  C   C242      1.0  0.09297  0.55105  0.63207  1.0000
  C   C243      1.0  0.11015  0.54837  0.66102  1.0000
  C   C244      1.0  0.10059  0.53076  0.69734  1.0000
  H   H196      1.0  0.43505  0.60032  0.85393  1.0000
  H   H197      1.0  0.18236  0.45086  0.68678  1.0000
  H   H198      1.0  0.32478  0.54557  0.86070  1.0000
  H   H199      1.0  0.03391  0.48487  0.84214  1.0000
  H   H200      1.0  0.38022  0.56980  0.52736  1.0000
  S   S42       1.0  0.17733  0.61731  0.96963  1.0000
  S   S43       1.0  0.48616  0.62856  0.71274  1.0000
  P   P9        1.0  0.39164  0.58117  0.62602  1.0000
  C   C245      1.0  0.14178  0.56772  0.52625  1.0000
  C   C246      1.0  0.49063  0.48497  0.74490  1.0000
  H   H201      1.0  0.11232  0.43500  0.76922  1.0000
  H   H202      1.0  0.10276  0.45219  0.83891  1.0000
  H   H203      1.0  0.08080  0.47780  0.83338  1.0000
  H   H204      1.0  0.03575  0.50753  0.68106  1.0000
  H   H205      1.0  0.05287  0.53790  0.61648  1.0000
  H   H206      1.0  0.10045  0.56442  0.60352  1.0000
  S   S44       1.0  0.39854  0.57577  0.96968  1.0000
  H   H207      1.0  0.11423  0.52841  0.71839  1.0000
  H   H208      1.0  0.40618  0.65815  0.75713  1.0000
  C   C247      1.0  0.20809  0.44282  0.72654  1.0000
  C   C248      1.0  0.42475  0.54832  0.51278  1.0000
  P   P10       1.0  0.43127  0.41290  0.57479  1.0000
  Fe  Fe21      1.0  0.22106  0.63951  0.97323  1.0000
  C   C249      1.0  0.43289  0.41154  0.63614  1.0000
  C   C250      1.0  0.41106  0.40599  0.66267  1.0000
  C   C251      1.0  0.41244  0.40559  0.71014  1.0000
  C   C252      1.0  0.43555  0.41055  0.73149  1.0000
  C   C253      1.0  0.45722  0.41569  0.70536  1.0000
  C   C254      1.0  0.45586  0.41604  0.65791  1.0000
  H   H209      1.0  0.07848  0.47016  0.68702  1.0000
  H   H210      1.0  0.41254  0.62135  0.77895  1.0000
  C   C255      1.0  0.09949  0.54953  0.85473  1.0000
  H   H211      1.0  0.47512  0.41940  0.72185  1.0000
  C   C256      1.0  0.39923  0.35845  0.57787  1.0000
  C   C257      1.0  0.39247  0.62640  0.65546  1.0000
  C   C258      1.0  0.46408  0.43146  0.55295  1.0000
  H   H212      1.0  0.40818  0.62356  0.86076  1.0000
  H   H213      1.0  0.10677  0.54466  0.78560  1.0000
  H   H214      1.0  0.39294  0.40192  0.64663  1.0000
  H   H215      1.0  0.39554  0.40133  0.73040  1.0000
  H   H216      1.0  0.43661  0.41021  0.76827  1.0000
  C   C259      1.0  0.39749  0.58864  0.53147  1.0000
  H   H217      1.0  0.47275  0.41975  0.63850  1.0000
  H   H218      1.0  0.23082  0.64643  0.57333  1.0000
  C   C260      1.0  0.32358  0.52072  0.57559  1.0000
  C   C261      1.0  0.24357  0.56786  0.71585  1.0000
  H   H219      1.0  0.17632  0.60384  0.67941  1.0000
  C   C262      1.0  0.39635  0.45756  0.57608  1.0000
  C   C263      1.0  0.39761  0.42070  0.51857  1.0000
  C   C264      1.0  0.39199  0.53810  0.66502  1.0000
  H   H220      1.0  0.39245  0.50583  0.69795  1.0000
  C   C265      1.0  0.47558  0.45835  0.54485  1.0000
  H   H221      1.0  0.34451  0.58546  0.63922  1.0000
  C   C266      1.0  0.39552  0.60519  0.66796  1.0000
  H   H222      1.0  0.01828  0.62677  0.64554  1.0000
  H   H223      1.0  0.20771  0.55113  0.91632  1.0000
  H   H224      1.0  0.25321  0.58241  0.89372  1.0000
  C   C267      1.0  0.43131  0.62248  0.57770  1.0000
  H   H225      1.0  0.49475  0.53764  0.60360  1.0000
  C   C268      1.0  0.24875  0.54733  0.71120  1.0000
  H   H226      1.0  0.34481  0.56892  0.72155  1.0000
  C   C269      1.0  0.28528  0.54150  0.77263  1.0000
  H   H227      1.0  0.44039  0.63008  0.61036  1.0000
  H   H228      1.0  0.33525  0.62059  0.87907  1.0000
  H   H229      1.0  0.02025  0.43473  0.94766  1.0000
  C   C270      1.0  0.23978  0.57943  0.67730  1.0000
  C   C271      1.0  0.33905  0.56736  0.62202  1.0000
  C   C272      1.0  0.24287  0.47979  0.76613  1.0000
  C   C273      1.0  0.05183  0.50341  0.84455  1.0000
  C   C274      1.0  0.31314  0.55171  0.60834  1.0000
  C   C275      1.0  0.30540  0.52841  0.58522  1.0000
  C   C276      1.0  0.48205  0.48570  0.66464  1.0000
  C   C277      1.0  0.45782  0.61320  0.79200  1.0000
  C   C278      1.0  0.45156  0.61621  0.83703  1.0000
  C   C279      1.0  0.33029  0.56066  0.74808  1.0000
  H   H230      1.0  0.27214  0.57380  0.82612  1.0000
  Fe  Fe22      1.0  0.36799  0.58695  0.98234  1.0000
  C   C280      1.0  0.40411  0.52555  0.68525  1.0000
  C   C281      1.0  0.04850  0.61216  0.52233  1.0000
  C   C282      1.0  0.18600  0.62102  0.65794  1.0000
  C   C283      1.0  0.34952  0.53634  0.58913  1.0000
  C   C284      1.0  0.08250  0.53936  0.89153  1.0000
  C   C285      1.0  0.21603  0.54734  0.88658  1.0000
  S   S45       1.0  0.39642  0.51834  0.52241  1.0000
  C   C286      1.0  0.26921  0.62762  0.82109  1.0000
  C   C287      1.0  0.29095  0.62966  0.79900  1.0000
  H   H231      1.0  0.01716  0.50199  0.77164  1.0000
  C   C288      1.0  0.38765  0.33341  0.55899  1.0000
  C   C289      1.0  0.40795  0.59855  0.57470  1.0000
  C   C290      1.0  0.41236  0.42795  0.55887  1.0000
  C   C291      1.0  0.29295  0.53900  0.81678  1.0000
  H   H232      1.0  0.16498  0.63874  0.68521  1.0000
  C   C292      1.0  0.35611  0.63215  0.87413  1.0000
  H   H233      1.0  0.24144  0.57435  0.74905  1.0000
  C   C293      1.0  0.39722  0.63360  0.86341  1.0000
  C   C294      1.0  0.48703  0.53061  0.56987  1.0000
  H   H234      1.0  0.08827  0.54898  0.92432  1.0000
  C   C295      1.0  0.29704  0.65565  0.88137  1.0000
  C   C296      1.0  0.20100  0.52487  0.86089  1.0000
  C   C297      1.0  0.01044  0.44439  0.60996  1.0000
  H   H235      1.0  0.45420  0.47856  0.71751  1.0000
  H   H236      1.0  0.33242  0.64594  0.80077  1.0000
  C   C298      1.0  0.47372  0.48265  0.70974  1.0000
  H   H237      1.0  0.48428  0.48281  0.77995  1.0000
  H   H238      1.0  0.00500  0.42267  0.51809  1.0000
  C   C299      1.0  0.24157  0.56499  0.87366  1.0000
  C   C300      1.0  0.44338  0.63668  0.53841  1.0000
  C   C301      1.0  0.43118  0.53861  0.68995  1.0000
  C   C302      1.0  0.43410  0.57670  0.65377  1.0000
  H   H239      1.0  0.24990  0.61581  0.80670  1.0000
  H   H240      1.0  0.28857  0.61952  0.76719  1.0000
  C   C303      1.0  0.45033  0.50642  0.51951  1.0000
  H   H241      1.0  0.13092  0.55944  0.65465  1.0000
  H   H242      1.0  0.28539  0.51652  0.57411  1.0000
  H   H243      1.0  0.39490  0.36057  0.61271  1.0000
  H   H244      1.0  0.11849  0.56679  0.85929  1.0000
  C   C304      1.0  0.20451  0.62324  0.62636  1.0000
  H   H245      1.0  0.20882  0.60757  0.62314  1.0000
  H   H246      1.0  0.46907  0.48400  0.63731  1.0000
  H   H247      1.0  0.99822  0.64768  0.51796  1.0000
  H   H248      1.0  0.39604  0.47218  0.59768  1.0000
  H   H249      1.0  0.08286  0.52615  0.54057  1.0000
  H   H250      1.0  0.35094  0.64620  0.96553  1.0000
  C   C305      1.0  0.27233  0.64075  0.86206  1.0000
  C   C306      1.0  0.36912  0.65950  0.87684  1.0000
  C   C307      1.0  0.01698  0.44806  0.73131  1.0000
  H   H251      1.0  0.42954  0.49487  0.51386  1.0000
  H   H252      1.0  0.04585  0.50813  0.91540  1.0000
  H   H253      1.0  0.24062  0.65955  0.82209  1.0000
  H   H254      1.0  0.00766  0.46105  0.60870  1.0000
  H   H255      1.0  0.44591  0.59494  0.77446  1.0000
  C   C308      1.0  0.40296  0.64333  0.73230  1.0000
  H   H256      1.0  0.42346  0.45315  0.61791  1.0000
  C   C309      1.0  0.00431  0.62261  0.61848  1.0000
  C   C310      1.0  0.21683  0.64520  0.59819  1.0000
  H   H257      1.0  0.19107  0.64268  0.51764  1.0000
  H   H258      1.0  0.46457  0.46817  0.54931  1.0000
  C   C311      1.0  0.01567  0.48315  0.00078  1.0000
  H   H259      1.0  0.36972  0.45856  0.52744  1.0000
  C   C312      1.0  0.47884  0.41923  0.54598  1.0000
  H   H260      1.0  0.47051  0.39848  0.55164  1.0000
  C   C313      1.0  0.31575  0.64458  0.81819  1.0000
  C   C314      1.0  0.38148  0.44993  0.53630  1.0000
  C   C315      1.0  0.49497  0.65679  0.79301  1.0000
  C   C316      1.0  0.48862  0.65992  0.83787  1.0000
  H   H261      1.0  0.04755  0.42476  0.51846  1.0000
  C   C317      1.0  0.02422  0.58971  0.51670  1.0000
  H   H262      1.0  0.00132  0.49382  0.54523  1.0000
  C   C318      1.0  0.41039  0.66072  0.86726  1.0000
  H   H263      1.0  0.03010  0.65711  0.58005  1.0000
  H   H264      1.0  0.45793  0.66074  0.69829  1.0000
  H   H265      1.0  0.39382  0.66169  0.67775  1.0000
  C   C319      1.0  0.02562  0.46706  0.98881  1.0000
  C   C320      1.0  0.19170  0.66255  0.63275  1.0000
  H   H266      1.0  0.00047  0.50167  0.89316  1.0000
  H   H267      1.0  0.04338  0.46985  0.00456  1.0000
  C   C321      1.0  0.07143  0.51994  0.50959  1.0000
  H   H268      1.0  0.29874  0.66553  0.91323  1.0000
  C   C322      1.0  0.21052  0.66506  0.60113  1.0000
  C   C323      1.0  0.38219  0.43163  0.50750  1.0000
  C   C324      1.0  0.41645  0.68879  0.34868  1.0000
  C   C325      1.0  0.33655  0.96816  0.39309  1.0000
  S   S46       1.0  0.40621  0.79110  0.06335  1.0000
  C   C326      1.0  0.48313  0.73896  0.08159  1.0000
  C   C327      1.0  0.30941  0.74275  0.01953  1.0000
  Fe  Fe23      1.0  0.42755  0.83421  0.05168  1.0000
  S   S47       1.0  0.45221  0.86326  0.10711  1.0000
  C   C328      1.0  0.43558  0.71252  0.16974  1.0000
  S   S48       1.0  0.14115  0.69523  0.33749  1.0000
  C   C329      1.0  0.48330  0.84643  0.23953  1.0000
  Fe  Fe24      1.0  0.15856  0.70943  0.40769  1.0000
  S   S49       1.0  0.18251  0.75269  0.42864  1.0000
  P   P11       1.0  0.48011  0.75477  0.13230  1.0000
  C   C330      1.0  0.21049  0.77664  0.45971  1.0000
  H   H269      1.0  0.22853  0.77697  0.17071  1.0000
  H   H270      1.0  0.47722  0.82709  0.05339  1.0000
  H   H271      1.0  0.19849  0.80501  0.44999  1.0000
  C   C331      1.0  0.20640  0.70934  0.11050  1.0000
  C   C332      1.0  0.47719  0.91101  0.30684  1.0000
  H   H272      1.0  0.48842  0.89665  0.17497  1.0000
  H   H273      1.0  0.30382  0.72650  0.22684  1.0000
  C   C333      1.0  0.39955  0.91283  0.39113  1.0000
  H   H274      1.0  0.46506  0.85172  0.46482  1.0000
  C   C334      1.0  0.46344  0.85608  0.15836  1.0000
  C   C335      1.0  0.46482  0.82569  0.21271  1.0000
  C   C336      1.0  0.45495  0.83047  0.17236  1.0000
  H   H275      1.0  0.45834  0.80583  0.22287  1.0000
  H   H276      1.0  0.44104  0.81439  0.15177  1.0000
  C   C337      1.0  0.40946  0.68874  0.05505  1.0000
  C   C338      1.0  0.41024  0.72963  0.04264  1.0000
  C   C339      1.0  0.40224  0.70686  0.06812  1.0000
  H   H277      1.0  0.40466  0.74349  0.05319  1.0000
  H   H278      1.0  0.39018  0.70314  0.09765  1.0000
  H   H279      1.0  0.22887  0.71556  0.04915  1.0000
  C   C340      1.0  0.48150  0.70108  0.04589  1.0000
  C   C341      1.0  0.16423  0.67229  0.05894  1.0000
  H   H280      1.0  0.46398  0.78091  0.06572  1.0000
  C   C342      1.0  0.24703  0.69227  0.14054  1.0000
  C   C343      1.0  0.49283  0.72907  0.48714  1.0000
  C   C344      1.0  0.33905  0.93312  0.48962  1.0000
  H   H281      1.0  0.40046  0.87039  0.16843  1.0000
  H   H282      1.0  0.39669  0.74888  0.17667  1.0000
  C   C345      1.0  0.45582  0.86039  0.48393  1.0000
  H   H283      1.0  0.39087  0.82857  0.13373  1.0000
  C   C346      1.0  0.48639  0.82186  0.07998  1.0000
  C   C347      1.0  0.25284  0.71642  0.15921  1.0000
  C   C348      1.0  0.26168  0.68067  0.15270  1.0000
  C   C349      1.0  0.28217  0.69300  0.18372  1.0000
  S   S50       1.0  0.33338  0.76748  0.05379  1.0000
  C   C350      1.0  0.41032  0.69983  0.18727  1.0000
  C   C351      1.0  0.39839  0.85461  0.19000  1.0000
  H   H284      1.0  0.30347  0.96342  0.35474  1.0000
  C   C352      1.0  0.44013  0.80059  0.36634  1.0000
  C   C353      1.0  0.41849  0.77670  0.37808  1.0000
  C   C354      1.0  0.39354  0.77346  0.37565  1.0000
  C   C355      1.0  0.39019  0.79403  0.36085  1.0000
  C   C356      1.0  0.41187  0.81806  0.34881  1.0000
  C   C357      1.0  0.43685  0.82117  0.35151  1.0000
  P   P12       1.0  0.40733  0.84360  0.32522  1.0000
  C   C358      1.0  0.38095  0.84416  0.35502  1.0000
  C   C359      1.0  0.43686  0.87441  0.33493  1.0000
  C   C360      1.0  0.44297  0.88542  0.37864  1.0000
  H   H285      1.0  0.44088  0.77137  0.14634  1.0000
  C   C361      1.0  0.48844  0.72627  0.44005  1.0000
  H   H286      1.0  0.40111  0.90431  0.46199  1.0000
  H   H287      1.0  0.45144  0.87833  0.26602  1.0000
  C   C362      1.0  0.37816  0.83990  0.40226  1.0000
  C   C363      1.0  0.35841  0.84122  0.42572  1.0000
  C   C364      1.0  0.34115  0.84661  0.40239  1.0000
  C   C365      1.0  0.34353  0.85056  0.35540  1.0000
  C   C366      1.0  0.36330  0.84931  0.33174  1.0000
  C   C367      1.0  0.40070  0.83818  0.26477  1.0000
  C   C368      1.0  0.39528  0.81448  0.24461  1.0000
  C   C369      1.0  0.39131  0.81092  0.19763  1.0000
  C   C370      1.0  0.48892  0.78938  0.46501  1.0000
  C   C371      1.0  0.40204  0.85816  0.23700  1.0000
  H   H288      1.0  0.45953  0.80326  0.36810  1.0000
  H   H289      1.0  0.42107  0.76067  0.38870  1.0000
  H   H290      1.0  0.37676  0.75497  0.38490  1.0000
  H   H291      1.0  0.37071  0.79111  0.35826  1.0000
  H   H292      1.0  0.45387  0.83934  0.34160  1.0000
  H   H293      1.0  0.43058  0.87556  0.40738  1.0000
  C   C372      1.0  0.27327  0.72851  0.19078  1.0000
  C   C373      1.0  0.22311  0.76361  0.19899  1.0000
  H   H294      1.0  0.20164  0.75779  0.30820  1.0000
  H   H295      1.0  0.39127  0.83568  0.42127  1.0000
  C   C374      1.0  0.45534  0.72958  0.36907  1.0000
  H   H296      1.0  0.32587  0.84762  0.42084  1.0000
  H   H297      1.0  0.33000  0.85459  0.33735  1.0000
  H   H298      1.0  0.36462  0.85242  0.29543  1.0000
  H   H299      1.0  0.39464  0.79890  0.26469  1.0000
  H   H300      1.0  0.38766  0.79288  0.18196  1.0000
  C   C375      1.0  0.39802  0.91632  0.43772  1.0000
  H   H301      1.0  0.42992  0.73524  0.26840  1.0000
  P   P13       1.0  0.23428  0.73189  0.14370  1.0000
  C   C376      1.0  0.25286  0.76046  0.10859  1.0000
  C   C377      1.0  0.23985  0.77088  0.08398  1.0000
  C   C378      1.0  0.25383  0.79313  0.05705  1.0000
  C   C379      1.0  0.28090  0.80502  0.05411  1.0000
  C   C380      1.0  0.29394  0.79457  0.07791  1.0000
  C   C381      1.0  0.28004  0.77236  0.10498  1.0000
  P   P14       1.0  0.37964  0.97420  0.44239  1.0000
  H   H302      1.0  0.48786  0.70458  0.38033  1.0000
  C   C382      1.0  0.18160  0.69514  0.13010  1.0000
  H   H303      1.0  0.21885  0.76185  0.08584  1.0000
  C   C383      1.0  0.42408  0.69310  0.01552  1.0000
  C   C384      1.0  0.21310  0.80135  0.46456  1.0000
  H   H304      1.0  0.31491  0.80350  0.07498  1.0000
  H   H305      1.0  0.29069  0.76452  0.12233  1.0000
  H   H306      1.0  0.40668  0.87678  0.25150  1.0000
  H   H307      1.0  0.17843  0.69755  0.16554  1.0000
  H   H308      1.0  0.28401  0.72421  0.07621  1.0000
  C   C385      1.0  0.46566  0.90932  0.38600  1.0000
  C   C386      1.0  0.20893  0.73008  0.27379  1.0000
  H   H309      1.0  0.29361  0.68408  0.19283  1.0000
  H   H310      1.0  0.47739  0.75383  0.23182  1.0000
  C   C387      1.0  0.20981  0.70505  0.06470  1.0000
  H   H311      1.0  0.29179  0.82216  0.03304  1.0000
  S   S51       1.0  0.17596  0.68375  0.41055  1.0000
  H   H312      1.0  0.35646  0.83809  0.46217  1.0000
  H   H313      1.0  0.39682  0.92554  0.32378  1.0000
  H   H314      1.0  0.25513  0.71806  0.47950  1.0000
  C   C388      1.0  0.21511  0.76985  0.23946  1.0000
  H   H315      1.0  0.45131  0.94740  0.43551  1.0000
  H   H316      1.0  0.21706  0.70559  0.23162  1.0000
  C   C389      1.0  0.39301  0.83101  0.17034  1.0000
  H   H317      1.0  0.40160  0.67966  0.19783  1.0000
  H   H318      1.0  0.46579  0.76101  0.32059  1.0000
  C   C390      1.0  0.26736  0.70295  0.01420  1.0000
  H   H319      1.0  0.39815  0.68876  0.28537  1.0000
  C   C391      1.0  0.47788  0.71305  0.08387  1.0000
  C   C392      1.0  0.48075  0.80199  0.49528  1.0000
  C   C393      1.0  0.22398  0.74041  0.19559  1.0000
  C   C394      1.0  0.21682  0.72371  0.23339  1.0000
  H   H320      1.0  0.43814  0.69433  0.41001  1.0000
  C   C395      1.0  0.39260  0.93539  0.45312  1.0000
  C   C396      1.0  0.45461  0.88705  0.29939  1.0000
  S   S52       1.0  0.39373  0.83477  0.01715  1.0000
  C   C397      1.0  0.48255  0.92227  0.35002  1.0000
  C   C398      1.0  0.43188  0.72624  0.29912  1.0000
  H   H321      1.0  0.27791  0.74701  0.20586  1.0000
  C   C399      1.0  0.40756  0.73871  0.17515  1.0000
  C   C400      1.0  0.39626  0.71287  0.18991  1.0000
  H   H322      1.0  0.43119  0.73297  0.45095  1.0000
  H   H323      1.0  0.24973  0.68841  0.03034  1.0000
  H   H324      1.0  0.41680  0.75583  0.50318  1.0000
  S   S53       1.0  0.12100  0.68040  0.44242  1.0000
  H   H325      1.0  0.20325  0.71702  0.30275  1.0000
  H   H326      1.0  0.25153  0.70263  0.40082  1.0000
  C   C401      1.0  0.22990  0.77249  0.47911  1.0000
  C   C402      1.0  0.47112  0.76466  0.44790  1.0000
  H   H327      1.0  0.24369  0.80111  0.03828  1.0000
  Fe  Fe25      1.0  0.37361  0.79111  0.02431  1.0000
  P   P15       1.0  0.48163  0.74839  0.40871  1.0000
  C   C403      1.0  0.28792  0.71688  0.20284  1.0000
  H   H328      1.0  0.49394  0.97932  0.40399  1.0000
  C   C404      1.0  0.46634  0.96125  0.45789  1.0000
  C   C405      1.0  0.49067  0.70677  0.41680  1.0000
  C   C406      1.0  0.39558  0.92828  0.35989  1.0000
  C   C407      1.0  0.22429  0.68117  0.50549  1.0000
  C   C408      1.0  0.45245  0.74090  0.32907  1.0000
  H   H329      1.0  0.22827  0.75357  0.47581  1.0000
  H   H330      1.0  0.49213  0.74442  0.50579  1.0000
  H   H331      1.0  0.37652  0.70287  0.20273  1.0000
  C   C409      1.0  0.35715  0.96003  0.48937  1.0000
  C   C410      1.0  0.36378  0.98206  0.39763  1.0000
  H   H332      1.0  0.40378  0.89814  0.37925  1.0000
  C   C411      1.0  0.49055  0.78879  0.12209  1.0000
  C   C412      1.0  0.24100  0.69804  0.47175  1.0000
  C   C413      1.0  0.47899  0.79574  0.08713  1.0000
  C   C414      1.0  0.44515  0.75234  0.46269  1.0000
  C   C415      1.0  0.20800  0.75308  0.27684  1.0000
  H   H333      1.0  0.21431  0.78767  0.24190  1.0000
  H   H334      1.0  0.23127  0.68223  0.11650  1.0000
  H   H335      1.0  0.32450  0.95283  0.41675  1.0000
  C   C416      1.0  0.47010  0.88662  0.49672  1.0000
  H   H336      1.0  0.33843  0.71835  0.01954  1.0000
  Fe  Fe26      1.0  0.15668  0.66762  0.34291  1.0000
  H   H337      1.0  0.44600  0.70199  0.16874  1.0000
  C   C417      1.0  0.41399  0.70015  0.30874  1.0000
  C   C418      1.0  0.43688  0.70346  0.37891  1.0000
  C   C419      1.0  0.48167  0.87677  0.18552  1.0000
  C   C420      1.0  0.43278  0.75139  0.15730  1.0000
  H   H338      1.0  0.47052  0.91747  0.41994  1.0000
  H   H339      1.0  0.43454  0.98828  0.45602  1.0000
  C   C421      1.0  0.49073  0.97916  0.44023  1.0000
  C   C422      1.0  0.23428  0.82150  0.48803  1.0000
  C   C423      1.0  0.49165  0.87201  0.22574  1.0000
  C   C424      1.0  0.44697  0.73829  0.15373  1.0000
  H   H340      1.0  0.47123  0.70196  0.11489  1.0000
  H   H341      1.0  0.41862  0.82486  0.48753  1.0000
  C   C425      1.0  0.18886  0.68637  0.03919  1.0000
  H   H342      1.0  0.33878  0.92060  0.46265  1.0000
  H   H343      1.0  0.38657  0.95872  0.35041  1.0000
  C   C426      1.0  0.32451  0.97406  0.35779  1.0000
  C   C427      1.0  0.33953  0.99370  0.32656  1.0000
  C   C428      1.0  0.34109  0.68475  0.03824  1.0000
  C   C429      1.0  0.16056  0.67691  0.10412  1.0000
  C   C430      1.0  0.23908  0.68934  0.42692  1.0000
  C   C431      1.0  0.38804  0.95064  0.42198  1.0000
  H   H344      1.0  0.39167  0.93806  0.48936  1.0000
  C   C432      1.0  0.28661  0.72343  0.04007  1.0000
  C   C433      1.0  0.38979  0.94711  0.37519  1.0000
  C   C434      1.0  0.42958  0.84526  0.49671  1.0000
  H   H345      1.0  0.49082  0.92056  0.27926  1.0000
  C   C435      1.0  0.25154  0.79305  0.50271  1.0000
  C   C436      1.0  0.43694  0.76513  0.49251  1.0000
  H   H346      1.0  0.33884  0.68705  0.07402  1.0000
  H   H347      1.0  0.47688  0.68095  0.04775  1.0000
  H   H348      1.0  0.34311  0.66723  0.13845  1.0000
  H   H349      1.0  0.40249  0.66859  0.35631  1.0000
  H   H350      1.0  0.23553  0.84028  0.49110  1.0000
  H   H351      1.0  0.49616  0.79689  0.35832  1.0000
  C   C437      1.0  0.49291  0.75281  0.04064  1.0000
  S   S54       1.0  0.49573  0.83926  0.28920  1.0000
  C   C438      1.0  0.46120  0.96153  0.50416  1.0000
  C   C439      1.0  0.49417  0.75240  0.22202  1.0000
  H   H352      1.0  0.33015  0.99832  0.29933  1.0000
  C   C440      1.0  0.34078  0.70245  0.00738  1.0000
  H   H353      1.0  0.29777  0.80943  0.78104  1.0000
  Fe  Fe27      1.0  0.40859  0.82803  0.95086  1.0000
  S   S55       1.0  0.41599  0.84720  0.88087  1.0000
  C   C441      1.0  0.28917  0.77750  0.89186  1.0000
  H   H354      1.0  0.33011  0.75673  0.95636  1.0000
  S   S56       1.0  0.38602  0.78435  0.95616  1.0000
  C   C442      1.0  0.39642  0.67364  0.87421  1.0000
  Fe  Fe28      1.0  0.34795  0.86730  0.66407  1.0000
  S   S57       1.0  0.33354  0.89199  0.62993  1.0000
  S   S58       1.0  0.33882  0.85525  0.73853  1.0000
  Fe  Fe29      1.0  0.36932  0.85975  0.57551  1.0000
  S   S59       1.0  0.35725  0.88419  0.53569  1.0000
  C   C443      1.0  0.24155  0.79836  0.73112  1.0000
  Fe  Fe30      1.0  0.37279  0.91247  0.59501  1.0000
  S   S60       1.0  0.40371  0.95604  0.58224  1.0000
  Fe  Fe31      1.0  0.31932  0.86165  0.57348  1.0000
  C   C444      1.0  0.24296  0.69037  0.72303  1.0000
  S   S61       1.0  0.38759  0.88891  0.63211  1.0000
  S   S62       1.0  0.33091  0.83602  0.61047  1.0000
  H   H355      1.0  0.43953  0.73209  0.83907  1.0000
  C   C445      1.0  0.26738  0.81181  0.74602  1.0000
  C   C446      1.0  0.37678  0.73772  0.79610  1.0000
  H   H356      1.0  0.41845  0.76956  0.88339  1.0000
  H   H357      1.0  0.37523  0.97724  0.63269  1.0000
  C   C447      1.0  0.21545  0.73101  0.59602  1.0000
  H   H358      1.0  0.46284  0.97074  0.69256  1.0000
  C   C448      1.0  0.22603  0.77170  0.74014  1.0000
  C   C449      1.0  0.43208  0.71585  0.98995  1.0000
  H   H359      1.0  0.17483  0.75266  0.56141  1.0000
  C   C450      1.0  0.45797  0.89785  0.52102  1.0000
  C   C451      1.0  0.43172  0.88286  0.53328  1.0000
  H   H360      1.0  0.39414  0.72585  0.91768  1.0000
  H   H361      1.0  0.46901  0.91814  0.53091  1.0000
  H   H362      1.0  0.42257  0.89161  0.55247  1.0000
  C   C452      1.0  0.39408  0.84938  0.84234  1.0000
  C   C453      1.0  0.36837  0.84156  0.85403  1.0000
  C   C454      1.0  0.35180  0.84377  0.82208  1.0000
  C   C455      1.0  0.36059  0.85340  0.77796  1.0000
  C   C456      1.0  0.38626  0.86112  0.76629  1.0000
  C   C457      1.0  0.40293  0.85928  0.79843  1.0000
  H   H363      1.0  0.36136  0.83404  0.88773  1.0000
  H   H364      1.0  0.33212  0.83809  0.83171  1.0000
  H   H365      1.0  0.39333  0.86865  0.73261  1.0000
  H   H366      1.0  0.42281  0.86549  0.78914  1.0000
  H   H367      1.0  0.34298  0.71354  0.93757  1.0000
  H   H368      1.0  0.26391  0.68739  0.62012  1.0000
  C   C458      1.0  0.25514  0.71606  0.73891  1.0000
  H   H369      1.0  0.43018  0.67950  0.00550  1.0000
  H   H370      1.0  0.44385  0.71935  0.95992  1.0000
  C   C459      1.0  0.24487  0.67526  0.79859  1.0000
  H   H371      1.0  0.44850  0.67348  0.62307  1.0000
  C   C460      1.0  0.33810  0.96446  0.55941  1.0000
  C   C461      1.0  0.23650  0.75841  0.76335  1.0000
  C   C462      1.0  0.29346  0.72120  0.94668  1.0000
  H   H372      1.0  0.37186  0.74133  0.76241  1.0000
  C   C463      1.0  0.20341  0.74611  0.59493  1.0000
  H   H373      1.0  0.46960  0.72014  0.60153  1.0000
  P   P16       1.0  0.22552  0.69277  0.56291  1.0000
  H   H374      1.0  0.26094  0.75806  0.99586  1.0000
  C   C464      1.0  0.25909  0.71502  0.57879  1.0000
  C   C465      1.0  0.27151  0.74098  0.56334  1.0000
  C   C466      1.0  0.29690  0.75883  0.57713  1.0000
  C   C467      1.0  0.31019  0.75096  0.60644  1.0000
  C   C468      1.0  0.17547  0.71943  0.53381  1.0000
  C   C469      1.0  0.48988  0.73383  0.66521  1.0000
  C   C470      1.0  0.42562  0.73439  0.00402  1.0000
  H   H375      1.0  0.48678  0.69456  0.75269  1.0000
  P   P17       1.0  0.35100  0.67620  0.88505  1.0000
  H   H376      1.0  0.30853  0.71911  0.64445  1.0000
  C   C471      1.0  0.40308  0.75366  0.86415  1.0000
  C   C472      1.0  0.20813  0.71052  0.56482  1.0000
  C   C473      1.0  0.45989  0.74565  0.83262  1.0000
  S   S63       1.0  0.24629  0.67663  0.93438  1.0000
  C   C474      1.0  0.34373  0.69981  0.96098  1.0000
  C   C475      1.0  0.18359  0.74046  0.56352  1.0000
  C   C476      1.0  0.48054  0.97972  0.53286  1.0000
  Fe  Fe32      1.0  0.42054  0.78840  0.99420  1.0000
  H   H377      1.0  0.32984  0.76495  0.61721  1.0000
  C   C477      1.0  0.46633  0.68117  0.68937  1.0000
  C   C478      1.0  0.18761  0.70444  0.53448  1.0000
  C   C479      1.0  0.41022  0.98846  0.59503  1.0000
  C   C480      1.0  0.36255  0.71290  0.81566  1.0000
  H   H378      1.0  0.25933  0.73172  0.71523  1.0000
  H   H379      1.0  0.16034  0.71536  0.50912  1.0000
  H   H380      1.0  0.46293  0.77207  0.88569  1.0000
  C   C481      1.0  0.31279  0.74169  0.97266  1.0000
  C   C482      1.0  0.41761  0.85646  0.52182  1.0000
  C   C483      1.0  0.27085  0.75644  0.86555  1.0000
  C   C484      1.0  0.47304  0.76826  0.85883  1.0000
  C   C485      1.0  0.28552  0.77812  0.93869  1.0000
  C   C486      1.0  0.26322  0.75817  0.95935  1.0000
  C   C487      1.0  0.24420  0.73799  0.93301  1.0000
  C   C488      1.0  0.24783  0.73725  0.88620  1.0000
  H   H381      1.0  0.20587  0.76138  0.72924  1.0000
  H   H382      1.0  0.35574  0.80344  0.71182  1.0000
  C   C489      1.0  0.34787  0.79306  0.74348  1.0000
  H   H383      1.0  0.22706  0.72236  0.94909  1.0000
  H   H384      1.0  0.23294  0.72128  0.86657  1.0000
  S   S64       1.0  0.38518  0.83717  0.53926  1.0000
  C   C490      1.0  0.38905  0.72888  0.88367  1.0000
  H   H385      1.0  0.23358  0.80870  0.71287  1.0000
  C   C491      1.0  0.49500  0.72685  0.70804  1.0000
  H   H386      1.0  0.29614  0.72044  0.91054  1.0000
  C   C492      1.0  0.32788  0.76840  0.82685  1.0000
  H   H387      1.0  0.49464  0.82122  0.50801  1.0000
  H   H388      1.0  0.32059  0.75894  0.85932  1.0000
  H   H389      1.0  0.37033  0.99627  0.52606  1.0000
  H   H390      1.0  0.18603  0.67722  0.63522  1.0000
  H   H391      1.0  0.26347  0.70470  0.84960  1.0000
  C   C493      1.0  0.36466  0.79345  0.77724  1.0000
  H   H392      1.0  0.30658  0.79318  0.87649  1.0000
  C   C494      1.0  0.27275  0.70719  0.60781  1.0000
  C   C495      1.0  0.26272  0.77169  0.77706  1.0000
  C   C496      1.0  0.39712  0.75805  0.82028  1.0000
  C   C497      1.0  0.25742  0.70096  0.81439  1.0000
  C   C498      1.0  0.35466  0.78106  0.81884  1.0000
  H   H393      1.0  0.30034  0.79371  0.95918  1.0000
  H   H394      1.0  0.46255  0.72269  0.77904  1.0000
  H   H395      1.0  0.30649  0.92896  0.58702  1.0000
  H   H396      1.0  0.40797  0.77739  0.80551  1.0000
  H   H397      1.0  0.22416  0.73784  0.77057  1.0000
  C   C499      1.0  0.32110  0.78075  0.75163  1.0000
  H   H398      1.0  0.30852  0.78129  0.72543  1.0000
  H   H399      1.0  0.38552  0.80418  0.77182  1.0000
  H   H400      1.0  0.20991  0.76264  0.61754  1.0000
  C   C500      1.0  0.31100  0.76899  0.79392  1.0000
  C   C501      1.0  0.25380  0.81781  0.50727  1.0000
  H   H401      1.0  0.27952  0.83255  0.73935  1.0000
  H   H402      1.0  0.44837  0.80015  0.53128  1.0000
  H   H403      1.0  0.36777  0.78215  0.84560  1.0000
  H   H404      1.0  0.34680  0.69750  0.79650  1.0000
  H   H405      1.0  0.26641  0.78984  0.51728  1.0000
  C   C502      1.0  0.26157  0.72142  0.78516  1.0000
  S   S65       1.0  0.43778  0.76375  0.97380  1.0000
  C   C503      1.0  0.48301  0.70038  0.71996  1.0000
  C   C504      1.0  0.27074  0.70173  0.96747  1.0000
  P   P18       1.0  0.27665  0.75456  0.80569  1.0000
  C   C505      1.0  0.29815  0.72514  0.62171  1.0000
  C   C506      1.0  0.42978  0.97500  0.70743  1.0000
  C   C507      1.0  0.27781  0.79860  0.76938  1.0000
  H   H406      1.0  0.41568  0.95533  0.69682  1.0000
  H   H407      1.0  0.26142  0.74762  0.54109  1.0000
  C   C508      1.0  0.36865  0.70828  0.85962  1.0000
  H   H408      1.0  0.23090  0.73584  0.62040  1.0000
  H   H409      1.0  0.33788  0.97659  0.58669  1.0000
  S   S66       1.0  0.44434  0.83159  0.98470  1.0000
  C   C509      1.0  0.47299  0.71460  0.63486  1.0000
  C   C510      1.0  0.45639  0.98376  0.70488  1.0000
  H   H410      1.0  0.30623  0.77888  0.56531  1.0000
  H   H411      1.0  0.43151  0.67154  0.86708  1.0000
  C   C511      1.0  0.32043  0.93768  0.55964  1.0000
  C   C512      1.0  0.34755  0.67962  0.94520  1.0000
  H   H412      1.0  0.40066  0.98506  0.72387  1.0000
  C   C513      1.0  0.46118  0.68830  0.64696  1.0000
  C   C514      1.0  0.35652  0.97561  0.52464  1.0000
  S   S67       1.0  0.27997  0.84528  0.53602  1.0000
  C   C515      1.0  0.39291  0.99343  0.61928  1.0000
  C   C516      1.0  0.32088  0.92203  0.52470  1.0000
  C   C517      1.0  0.47304  0.74049  0.79846  1.0000
  H   H413      1.0  0.40705  0.69450  0.87905  1.0000
  H   H414      1.0  0.23754  0.68630  0.68764  1.0000
  C   C518      1.0  0.42131  0.99178  0.72271  1.0000
  H   H415      1.0  0.18120  0.68842  0.51080  1.0000
  H   H416      1.0  0.47626  0.98017  0.56857  1.0000
  C   C519      1.0  0.45471  0.79005  0.50854  1.0000
  H   H417      1.0  0.19182  0.68236  0.00447  1.0000
  H   H418      1.0  0.44216  0.94785  0.51785  1.0000
  H   H419      1.0  0.30715  0.90124  0.52489  1.0000
  C   C520      1.0  0.49631  0.74069  0.00261  1.0000
  H   H420      1.0  0.49250  0.70513  0.97544  1.0000
  C   C521      1.0  0.23752  0.66991  0.75296  1.0000
  C   C522      1.0  0.49044  0.71477  0.00513  1.0000
  H   H421      1.0  0.74953  0.32038  0.43533  1.0000
  H   H422      1.0  0.57179  0.05370  0.36805  1.0000
  C   C523      1.0  0.66988  0.30208  0.07951  1.0000
  C   C524      1.0  0.56976  0.00139  0.31713  1.0000
  S   S68       1.0  0.58790  0.25759  0.06684  1.0000
  C   C525      1.0  0.81134  0.25217  0.48551  1.0000
  S   S69       1.0  0.63109  0.17148  0.07998  1.0000
  Fe  Fe33      1.0  0.64502  0.13867  0.44237  1.0000
  S   S70       1.0  0.68026  0.13523  0.45478  1.0000
  C   C526      1.0  0.57564  0.02708  0.32405  1.0000
  Fe  Fe34      1.0  0.66248  0.16199  0.34661  1.0000
  S   S71       1.0  0.69945  0.16021  0.35355  1.0000
  S   S72       1.0  0.65331  0.18533  0.29453  1.0000
  Fe  Fe35      1.0  0.67263  0.11954  0.38326  1.0000
  S   S73       1.0  0.67372  0.08226  0.36581  1.0000
  Fe  Fe36      1.0  0.70338  0.17586  0.42551  1.0000
  S   S74       1.0  0.73173  0.21206  0.46839  1.0000
  S   S75       1.0  0.63587  0.12102  0.37264  1.0000
  S   S76       1.0  0.66769  0.17928  0.41646  1.0000
  C   C527      1.0  0.58924  0.05824  0.47960  1.0000
  C   C528      1.0  0.56706  0.14491  0.44309  1.0000
  C   C529      1.0  0.58733  0.13961  0.44959  1.0000
  H   H423      1.0  0.56076  0.14598  0.40898  1.0000
  H   H424      1.0  0.59685  0.13690  0.42054  1.0000
  C   C530      1.0  0.65238  0.04749  0.36619  1.0000
  C   C531      1.0  0.62879  0.03427  0.39052  1.0000
  C   C532      1.0  0.66074  0.03249  0.34267  1.0000
  H   H425      1.0  0.62208  0.04540  0.40935  1.0000
  H   H426      1.0  0.67887  0.04218  0.32407  1.0000
  H   H427      1.0  0.52640  0.09405  0.49660  1.0000
  C   C533      1.0  0.53176  0.27185  0.26947  1.0000
  C   C534      1.0  0.51563  0.07001  0.38904  1.0000
  C   C535      1.0  0.68723  0.25149  0.34467  1.0000
  H   H428      1.0  0.67489  0.24620  0.31472  1.0000
  C   C536      1.0  0.63543  0.17445  0.14018  1.0000
  C   C537      1.0  0.63156  0.19218  0.16553  1.0000
  C   C538      1.0  0.63669  0.19488  0.21278  1.0000
  C   C539      1.0  0.64554  0.17980  0.23543  1.0000
  C   C540      1.0  0.64898  0.16177  0.21023  1.0000
  C   C541      1.0  0.64400  0.15918  0.16295  1.0000
  H   H429      1.0  0.62506  0.20412  0.14860  1.0000
  H   H430      1.0  0.63397  0.20889  0.23182  1.0000
  H   H431      1.0  0.65580  0.15006  0.22701  1.0000
  H   H432      1.0  0.64704  0.14539  0.14379  1.0000
  C   C542      1.0  0.67623  0.24045  0.38661  1.0000
  C   C543      1.0  0.71414  0.26807  0.34092  1.0000
  C   C544      1.0  0.69560  0.32057  0.09122  1.0000
  C   C545      1.0  0.53431  0.06433  0.47320  1.0000
  C   C546      1.0  0.59813  0.28443  0.17814  1.0000
  H   H433      1.0  0.62253  0.24860  0.22516  1.0000
  C   C547      1.0  0.66347  0.33190  0.22672  1.0000
  C   C548      1.0  0.76432  0.23466  0.48630  1.0000
  H   H434      1.0  0.52807  0.26504  0.06933  1.0000
  H   H435      1.0  0.50116  0.24399  0.31302  1.0000
  H   H436      1.0  0.70455  0.06274  0.42636  1.0000
  H   H437      1.0  0.63942  0.28985  0.02937  1.0000
  H   H438      1.0  0.81560  0.30092  0.34169  1.0000
  H   H439      1.0  0.72217  0.27566  0.30781  1.0000
  H   H440      1.0  0.62820  0.19229  0.45518  1.0000
  H   H441      1.0  0.73123  0.26465  0.45047  1.0000
  H   H442      1.0  0.89787  0.31005  0.48443  1.0000
  C   C549      1.0  0.61321  0.26030  0.22315  1.0000
  H   H443      1.0  0.81218  0.30341  0.42799  1.0000
  H   H444      1.0  0.50856  0.07243  0.35642  1.0000
  C   C550      1.0  0.55630  0.30606  0.15919  1.0000
  H   H445      1.0  0.68378  0.23635  0.45688  1.0000
  C   C551      1.0  0.73028  0.27365  0.37926  1.0000
  C   C552      1.0  0.54153  0.32553  0.10217  1.0000
  H   H446      1.0  0.66338  0.32272  0.15650  1.0000
  H   H447      1.0  0.58365  0.28433  0.29020  1.0000
  P   P19       1.0  0.70967  0.31676  0.14325  1.0000
  C   C553      1.0  0.62914  0.20071  0.48828  1.0000
  S   S77       1.0  0.57682  0.18701  0.03022  1.0000
  Fe  Fe37      1.0  0.59668  0.23073  0.02657  1.0000
  H   H448      1.0  0.70458  0.28295  0.22166  1.0000
  H   H449      1.0  0.52157  0.03916  0.36587  1.0000
  C   C554      1.0  0.69763  0.24685  0.19361  1.0000
  C   C555      1.0  0.69402  0.23235  0.15416  1.0000
  C   C556      1.0  0.69424  0.24303  0.11171  1.0000
  C   C557      1.0  0.69860  0.26844  0.10856  1.0000
  C   C558      1.0  0.70222  0.28324  0.14800  1.0000
  C   C559      1.0  0.70183  0.27223  0.19063  1.0000
  C   C560      1.0  0.77010  0.22621  0.35415  1.0000
  C   C561      1.0  0.65915  0.30433  0.03862  1.0000
  H   H450      1.0  0.69665  0.23805  0.22649  1.0000
  H   H451      1.0  0.69037  0.21254  0.15653  1.0000
  H   H452      1.0  0.69068  0.23141  0.08126  1.0000
  H   H453      1.0  0.69906  0.27643  0.07524  1.0000
  C   C562      1.0  0.55027  0.01407  0.39375  1.0000
  H   H454      1.0  0.75215  0.30864  0.11260  1.0000
  C   C563      1.0  0.58359  0.27943  0.03252  1.0000
  C   C564      1.0  0.59087  0.28019  0.25943  1.0000
  C   C565      1.0  0.80276  0.28009  0.34541  1.0000
  C   C566      1.0  0.58739  0.28901  0.21703  1.0000
  C   C567      1.0  0.64609  0.00510  0.34274  1.0000
  H   H455      1.0  0.60556  0.25833  0.29496  1.0000
  C   C568      1.0  0.91151  0.33033  0.47656  1.0000
  H   H456      1.0  0.65818  0.28566  0.10160  1.0000
  S   S78       1.0  0.63698  0.23706  0.03484  1.0000
  C   C569      1.0  0.81202  0.26320  0.33487  1.0000
  C   C570      1.0  0.52343  0.05149  0.39438  1.0000
  H   H457      1.0  0.90457  0.32542  0.40450  1.0000
  C   C571      1.0  0.77465  0.31518  0.32752  1.0000
  C   C572      1.0  0.69670  0.32510  0.19188  1.0000
  C   C573      1.0  0.76083  0.24303  0.36492  1.0000
  C   C574      1.0  0.53488  0.28222  0.09041  1.0000
  C   C575      1.0  0.54644  0.28343  0.13252  1.0000
  C   C576      1.0  0.68441  0.00147  0.46592  1.0000
  H   H458      1.0  0.65549  0.22683  0.38894  1.0000
  P   P20       1.0  0.57150  0.30817  0.21347  1.0000
  C   C577      1.0  0.69978  0.02516  0.44340  1.0000
  P   P21       1.0  0.76531  0.29213  0.37395  1.0000
  C   C578      1.0  0.69215  0.24583  0.42485  1.0000
  C   C579      1.0  0.53872  0.31572  0.27121  1.0000
  C   C580      1.0  0.69310  0.04462  0.44482  1.0000
  H   H459      1.0  0.75745  0.20534  0.35801  1.0000
  C   C581      1.0  0.56612  0.03347  0.36237  1.0000
  H   H460      1.0  0.82787  0.25116  0.47276  1.0000
  C   C582      1.0  0.51874  0.30786  0.30315  1.0000
  C   C583      1.0  0.67115  0.04050  0.46899  1.0000
  S   S79       1.0  0.52570  0.14897  0.47203  1.0000
  H   H461      1.0  0.83186  0.27096  0.32338  1.0000
  C   C584      1.0  0.77935  0.30999  0.42607  1.0000
  C   C585      1.0  0.60354  0.26570  0.26237  1.0000
  C   C586      1.0  0.52582  0.08229  0.46803  1.0000
  H   H462      1.0  0.54789  0.26680  0.14376  1.0000
  H   H463      1.0  0.78330  0.21860  0.44679  1.0000
  H   H464      1.0  0.58835  0.04223  0.30050  1.0000
  H   H465      1.0  0.53594  0.25743  0.25572  1.0000
  C   C587      1.0  0.51679  0.08538  0.42587  1.0000
  C   C588      1.0  0.71909  0.26207  0.42112  1.0000
  H   H466      1.0  0.51077  0.09979  0.42180  1.0000
  H   H467      1.0  0.59665  0.29187  0.14530  1.0000
  C   C589      1.0  0.61063  0.26981  0.18115  1.0000
  C   C590      1.0  0.53323  0.04884  0.43634  1.0000
  H   H468      1.0  0.74095  0.23463  0.37659  1.0000
  C   C591      1.0  0.53269  0.30336  0.07500  1.0000
  C   C592      1.0  0.61419  0.00644  0.39130  1.0000
  H   H469      1.0  0.61790  0.26544  0.15062  1.0000
  C   C593      1.0  0.76044  0.32851  0.12456  1.0000
  H   H470      1.0  0.59961  0.21038  0.47208  1.0000
  Fe  Fe38      1.0  0.61757  0.19344  0.03347  1.0000
  C   C594      1.0  0.59462  0.13702  0.49364  1.0000
  C   C595      1.0  0.55399  0.14735  0.48061  1.0000
  C   C596      1.0  0.59725  0.30613  0.04230  1.0000
  C   C597      1.0  0.65550  0.01670  0.49094  1.0000
  C   C598      1.0  0.77259  0.30649  0.28247  1.0000
  H   H471      1.0  0.80285  0.22312  0.33147  1.0000
  C   C599      1.0  0.79570  0.23626  0.33933  1.0000
  S   S80       1.0  0.77671  0.33164  0.00787  1.0000
  H   H472      1.0  0.58904  0.07249  0.45665  1.0000
  C   C600      1.0  0.77716  0.27014  0.36102  1.0000
  C   C601      1.0  0.54601  0.29801  0.25535  1.0000
  H   H473      1.0  0.76504  0.28600  0.27525  1.0000
  C   C602      1.0  0.56768  0.03295  0.48279  1.0000
  H   H474      1.0  0.71670  0.02836  0.42434  1.0000
  C   C603      1.0  0.80284  0.31314  0.44332  1.0000
  H   H475      1.0  0.61145  0.31349  0.06950  1.0000
  C   C604      1.0  0.78601  0.23365  0.47054  1.0000
  C   C605      1.0  0.59265  0.32346  0.01682  1.0000
  P   P22       1.0  0.54029  0.02300  0.44526  1.0000
  C   C606      1.0  0.70953  0.33017  0.23407  1.0000
  C   C607      1.0  0.67369  0.32627  0.18844  1.0000
  C   C608      1.0  0.55317  0.32684  0.14421  1.0000
  H   H476      1.0  0.73608  0.27868  0.02032  1.0000
  H   H477      1.0  0.66584  0.05553  0.46920  1.0000
  H   H478      1.0  0.51346  0.32174  0.31578  1.0000
  H   H479      1.0  0.52434  0.30268  0.04184  1.0000
  C   C609      1.0  0.81464  0.32899  0.48125  1.0000
  S   S81       1.0  0.61859  0.12871  0.50249  1.0000
  C   C610      1.0  0.61312  0.21106  0.49771  1.0000
  C   C611      1.0  0.51183  0.26407  0.30156  1.0000
  C   C612      1.0  0.50549  0.28214  0.31875  1.0000
  C   C613      1.0  0.67394  0.32494  0.00911  1.0000
  C   C614      1.0  0.76754  0.32236  0.44822  1.0000
  H   H480      1.0  0.72744  0.32966  0.23743  1.0000
  H   H481      1.0  0.77915  0.31742  0.21173  1.0000
  C   C615      1.0  0.78059  0.32424  0.24637  1.0000
  H   H482      1.0  0.62825  0.08479  0.50238  1.0000
  H   H483      1.0  0.83280  0.33137  0.49430  1.0000
  H   H484      1.0  0.64558  0.33249  0.22380  1.0000
  H   H485      1.0  0.54139  0.06233  0.50607  1.0000
  C   C616      1.0  0.61162  0.06527  0.50540  1.0000
  C   C617      1.0  0.55482  0.23863  0.79598  1.0000
  C   C618      1.0  0.70682  0.19906  0.58588  1.0000
  S   S82       1.0  0.66692  0.26595  0.91440  1.0000
  Fe  Fe39      1.0  0.58140  0.18883  0.95358  1.0000
  S   S83       1.0  0.54813  0.16186  0.90607  1.0000
  S   S84       1.0  0.59764  0.23201  0.95074  1.0000
  S   S85       1.0  0.62064  0.19172  0.95672  1.0000
  H   H486      1.0  0.63007  0.05269  0.55424  1.0000
  H   H487      1.0  0.54809  0.09588  0.57631  1.0000
  C   C619      1.0  0.56055  0.28743  0.97200  1.0000
  H   H488      1.0  0.55893  0.24124  0.75989  1.0000
  H   H489      1.0  0.65797  0.30960  0.83139  1.0000
  C   C620      1.0  0.64321  0.24070  0.75536  1.0000
  C   C621      1.0  0.49970  0.25139  0.81262  1.0000
  C   C622      1.0  0.51491  0.26662  0.65654  1.0000
  H   H490      1.0  0.58055  0.26579  0.89902  1.0000
  H   H491      1.0  0.58876  0.13963  0.56518  1.0000
  H   H492      1.0  0.55262  0.14861  0.55368  1.0000
  H   H493      1.0  0.68619  0.29884  0.77829  1.0000
  H   H494      1.0  0.75014  0.22415  0.82845  1.0000
  C   C623      1.0  0.62176  0.30781  0.84993  1.0000
  H   H495      1.0  0.50600  0.14148  0.75568  1.0000
  C   C624      1.0  0.53702  0.08948  0.60752  1.0000
  C   C625      1.0  0.54782  0.16648  0.84646  1.0000
  C   C626      1.0  0.57002  0.18479  0.82306  1.0000
  C   C627      1.0  0.56916  0.18727  0.77551  1.0000
  C   C628      1.0  0.54615  0.17167  0.75081  1.0000
  C   C629      1.0  0.52383  0.15362  0.77423  1.0000
  C   C630      1.0  0.52472  0.15102  0.82181  1.0000
  H   H496      1.0  0.58783  0.19695  0.84163  1.0000
  H   H497      1.0  0.58644  0.20144  0.75777  1.0000
  C   C631      1.0  0.61896  0.26798  0.78599  1.0000
  C   C632      1.0  0.57232  0.29858  0.75386  1.0000
  H   H498      1.0  0.63791  0.32428  0.74470  1.0000
  C   C633      1.0  0.75481  0.32213  0.82899  1.0000
  H   H499      1.0  0.54969  0.31012  0.71282  1.0000
  C   C634      1.0  0.56706  0.25244  0.87401  1.0000
  H   H500      1.0  0.70368  0.24704  0.54431  1.0000
  C   C635      1.0  0.53305  0.23159  0.66680  1.0000
  C   C636      1.0  0.71276  0.31052  0.93065  1.0000
  H   H501      1.0  0.65864  0.12516  0.56933  1.0000
  C   C637      1.0  0.59127  0.02189  0.53772  1.0000
  H   H502      1.0  0.73661  0.19047  0.56602  1.0000
  Fe  Fe40      1.0  0.51300  0.15798  0.63951  1.0000
  H   H503      1.0  0.54602  0.28004  0.94541  1.0000
  H   H504      1.0  0.84436  0.30094  0.84364  1.0000
  C   C638      1.0  0.69102  0.21973  0.89225  1.0000
  C   C639      1.0  0.70791  0.24242  0.86843  1.0000
  C   C640      1.0  0.72893  0.24403  0.84411  1.0000
  H   H505      1.0  0.50270  0.30008  0.74637  1.0000
  P   P23       1.0  0.75180  0.27380  0.81553  1.0000
  C   C641      1.0  0.73982  0.29644  0.81293  1.0000
  C   C642      1.0  0.78126  0.28688  0.84892  1.0000
  C   C643      1.0  0.78111  0.29449  0.89406  1.0000
  C   C644      1.0  0.61263  0.04715  0.53452  1.0000
  C   C645      1.0  0.80407  0.28867  0.83133  1.0000
  C   C646      1.0  0.54245  0.07383  0.86583  1.0000
  H   H506      1.0  0.79645  0.28762  0.55705  1.0000
  H   H507      1.0  0.53979  0.21777  0.67024  1.0000
  H   H508      1.0  0.50368  0.05727  0.57580  1.0000
  C   C647      1.0  0.71525  0.28839  0.79373  1.0000
  C   C648      1.0  0.75651  0.26780  0.75710  1.0000
  C   C649      1.0  0.74036  0.24347  0.73655  1.0000
  C   C650      1.0  0.69519  0.19856  0.89257  1.0000
  P   P24       1.0  0.60221  0.28412  0.80702  1.0000
  C   C651      1.0  0.77615  0.28796  0.73123  1.0000
  H   H509      1.0  0.74029  0.29219  0.55171  1.0000
  H   H510      1.0  0.72068  0.21960  0.58916  1.0000
  H   H511      1.0  0.67500  0.21886  0.91136  1.0000
  H   H512      1.0  0.70481  0.25883  0.87006  1.0000
  H   H513      1.0  0.50748  0.13684  0.83968  1.0000
  C   C652      1.0  0.70475  0.27304  0.97578  1.0000
  C   C653      1.0  0.71641  0.20016  0.86922  1.0000
  H   H514      1.0  0.53414  0.30467  0.87978  1.0000
  H   H515      1.0  0.59007  0.31228  0.87582  1.0000
  C   C654      1.0  0.81549  0.27187  0.51681  1.0000
  C   C655      1.0  0.58254  0.14088  0.53115  1.0000
  H   H516      1.0  0.70338  0.26866  0.78127  1.0000
  H   H517      1.0  0.72458  0.22778  0.75513  1.0000
  C   C656      1.0  0.79375  0.27269  0.53304  1.0000
  H   H518      1.0  0.78874  0.30696  0.74622  1.0000
  S   S86       1.0  0.84813  0.29493  0.53398  1.0000
  C   C657      1.0  0.56887  0.31295  0.71955  1.0000
  Fe  Fe41      1.0  0.86390  0.33109  0.58010  1.0000
  H   H519      1.0  0.80347  0.31083  0.95517  1.0000
  H   H520      1.0  0.70637  0.31929  0.90532  1.0000
  C   C658      1.0  0.74561  0.31386  0.98367  1.0000
  P   P25       1.0  0.66721  0.20970  0.60938  1.0000
  C   C659      1.0  0.64976  0.19529  0.66163  1.0000
  C   C660      1.0  0.68005  0.18903  0.59288  1.0000
  C   C661      1.0  0.69655  0.28444  0.94291  1.0000
  H   H521      1.0  0.64741  0.23434  0.82647  1.0000
  C   C662      1.0  0.56552  0.27015  0.99696  1.0000
  C   C663      1.0  0.66333  0.19345  0.69938  1.0000
  C   C664      1.0  0.65013  0.18170  0.73972  1.0000
  C   C665      1.0  0.62322  0.17134  0.74243  1.0000
  C   C666      1.0  0.60946  0.17224  0.70455  1.0000
  C   C667      1.0  0.62255  0.18390  0.66418  1.0000
  C   C668      1.0  0.69319  0.24311  0.61554  1.0000
  C   C669      1.0  0.70788  0.25660  0.57720  1.0000
  C   C670      1.0  0.72862  0.28219  0.58125  1.0000
  C   C671      1.0  0.73451  0.29469  0.62343  1.0000
  C   C672      1.0  0.71954  0.28167  0.66151  1.0000
  C   C673      1.0  0.69890  0.25599  0.65764  1.0000
  H   H522      1.0  0.50813  0.28035  0.65203  1.0000
  C   C674      1.0  0.53467  0.26847  0.62831  1.0000
  H   H523      1.0  0.54204  0.22505  0.92484  1.0000
  H   H524      1.0  0.77396  0.32912  0.84343  1.0000
  C   C675      1.0  0.54733  0.10346  0.64775  1.0000
  H   H525      1.0  0.54135  0.10647  0.71857  1.0000
  C   C676      1.0  0.61852  0.32078  0.73753  1.0000
  H   H526      1.0  0.68408  0.20093  0.69743  1.0000
  H   H527      1.0  0.66069  0.18049  0.76888  1.0000
  H   H528      1.0  0.61290  0.16237  0.77370  1.0000
  H   H529      1.0  0.58849  0.16370  0.70634  1.0000
  C   C677      1.0  0.61408  0.22168  0.54049  1.0000
  H   H530      1.0  0.69232  0.25279  0.98505  1.0000
  C   C678      1.0  0.72032  0.33085  0.80872  1.0000
  C   C679      1.0  0.82650  0.30707  0.90243  1.0000
  H   H531      1.0  0.72419  0.29140  0.69417  1.0000
  H   H532      1.0  0.68766  0.24633  0.68752  1.0000
  C   C680      1.0  0.56891  0.01474  0.51171  1.0000
  C   C681      1.0  0.63085  0.22165  0.57399  1.0000
  C   C682      1.0  0.52721  0.04869  0.84825  1.0000
  C   C683      1.0  0.80370  0.30471  0.92054  1.0000
  C   C684      1.0  0.53296  0.21579  0.81105  1.0000
  C   C685      1.0  0.64043  0.24312  0.80190  1.0000
  C   C686      1.0  0.62809  0.25646  0.81714  1.0000
  H   H533      1.0  0.70595  0.14316  0.55648  1.0000
  H   H534      1.0  0.55346  0.11433  0.85920  1.0000
  C   C687      1.0  0.51208  0.06762  0.60726  1.0000
  H   H535      1.0  0.75078  0.31443  0.62660  1.0000
  C   C688      1.0  0.57199  0.25721  0.82735  1.0000
  S   S87       1.0  0.54667  0.17520  0.69080  1.0000
  C   C689      1.0  0.82666  0.29898  0.85790  1.0000
  H   H536      1.0  0.65231  0.22996  0.74374  1.0000
  H   H537      1.0  0.52717  0.32616  0.81334  1.0000
  H   H538      1.0  0.55461  0.24948  0.99023  1.0000
  C   C690      1.0  0.63346  0.25141  0.72398  1.0000
  C   C691      1.0  0.62120  0.26490  0.73919  1.0000
  H   H539      1.0  0.59217  0.00773  0.55982  1.0000
  Fe  Fe42      1.0  0.63641  0.23495  0.95890  1.0000
  C   C692      1.0  0.66288  0.16218  0.58772  1.0000
  C   C693      1.0  0.67222  0.14568  0.57503  1.0000
  H   H540      1.0  0.63475  0.24865  0.68791  1.0000
  H   H541      1.0  0.61291  0.27221  0.71443  1.0000
  C   C694      1.0  0.74465  0.23909  0.69147  1.0000
  H   H542      1.0  0.56632  0.12095  0.64750  1.0000
  H   H543      1.0  0.64211  0.15405  0.59222  1.0000
  H   H544      1.0  0.52037  0.20107  0.78682  1.0000
  H   H545      1.0  0.62541  0.25758  0.85335  1.0000
  C   C695      1.0  0.57384  0.31409  0.98231  1.0000
  C   C696      1.0  0.52826  0.21110  0.85752  1.0000
  C   C697      1.0  0.72948  0.28766  0.99563  1.0000
  C   C698      1.0  0.54525  0.22939  0.88891  1.0000
  H   H546      1.0  0.75193  0.25538  0.53011  1.0000
  H   H547      1.0  0.68225  0.18116  0.91174  1.0000
  H   H548      1.0  0.80477  0.28242  0.79712  1.0000
  C   C699      1.0  0.52339  0.29317  0.85053  1.0000
  H   H549      1.0  0.55564  0.28492  0.77358  1.0000
  C   C700      1.0  0.61073  0.31902  0.87749  1.0000
  C   C701      1.0  0.50829  0.07255  0.68862  1.0000
  C   C702      1.0  0.73338  0.22290  0.84541  1.0000
  H   H550      1.0  0.71997  0.18394  0.87034  1.0000
  C   C703      1.0  0.71609  0.18248  0.57328  1.0000
  H   H551      1.0  0.61109  0.18337  0.63511  1.0000
  C   C704      1.0  0.53302  0.09513  0.68813  1.0000
  Fe  Fe43      1.0  0.50578  0.14732  0.53757  1.0000
  H   H552      1.0  0.65710  0.19120  0.51409  1.0000
  C   C705      1.0  0.51933  0.30524  0.81307  1.0000
  C   C706      1.0  0.56223  0.14610  0.52466  1.0000
  H   H553      1.0  0.76357  0.29273  0.90877  1.0000
  S   S88       1.0  0.52069  0.18368  0.57837  1.0000
  H   H554      1.0  0.73262  0.22014  0.67605  1.0000
  C   C707      1.0  0.69881  0.15582  0.56772  1.0000
  C   C708      1.0  0.76470  0.25907  0.66636  1.0000
  H   H555      1.0  0.55833  0.25172  0.61049  1.0000
  C   C709      1.0  0.78033  0.28349  0.68623  1.0000
  C   C710      1.0  0.54363  0.25086  0.63327  1.0000
  H   H556      1.0  0.79606  0.29885  0.66702  1.0000
  H   H557      1.0  0.67821  0.00189  0.67106  1.0000
  C   C711      1.0  0.64877  0.31757  0.85236  1.0000
  H   H558      1.0  0.76825  0.25563  0.63157  1.0000
  H   H559      1.0  0.84399  0.31508  0.92301  1.0000
  C   C712      1.0  0.64600  0.21002  0.56550  1.0000
  H   H560      1.0  0.51209  0.19278  0.86931  1.0000
  H   H561      1.0  0.54248  0.28306  0.60168  1.0000
  C   C713      1.0  0.64541  0.19998  0.52204  1.0000
  H   H562      1.0  0.63140  0.23001  0.60691  1.0000
  C   C714      1.0  0.59715  0.30213  0.76258  1.0000
  H   H563      1.0  0.60144  0.22948  0.54782  1.0000
  C   C715      1.0  0.70550  0.30549  0.79188  1.0000
  S   S89       1.0  0.50178  0.12205  0.59753  1.0000
  C   C716      1.0  0.50523  0.29035  0.77550  1.0000
  C   C717      1.0  0.76845  0.25433  0.51766  1.0000
  C   C718      1.0  0.59009  0.33093  0.69382  1.0000
  H   H564      1.0  0.52710  0.03232  0.86497  1.0000
  H   H565      1.0  0.63843  0.01385  0.50893  1.0000
  C   C719      1.0  0.52689  0.09079  0.80626  1.0000
  H   H566      1.0  0.55412  0.07699  0.89612  1.0000
  C   C720      1.0  0.54222  0.09487  0.84489  1.0000
  H   H567      1.0  0.51955  0.01206  0.53786  1.0000
  H   H568      1.0  0.50481  0.21413  0.71989  1.0000
  C   C721      1.0  0.73710  0.32535  0.95153  1.0000
  H   H569      1.0  0.51709  0.25704  0.87911  1.0000
  C   C722      1.0  0.50360  0.24676  0.68930  1.0000
  C   C723      1.0  0.51141  0.06560  0.78831  1.0000
  H   H570      1.0  0.52649  0.10726  0.79126  1.0000
  C   C724      1.0  0.51369  0.26630  0.85020  1.0000
  C   C725      1.0  0.51161  0.04452  0.80983  1.0000
  H   H571      1.0  0.66558  0.32609  0.97721  1.0000
  C   C726      1.0  0.51312  0.22952  0.69475  1.0000
  C   C727      1.0  0.49766  0.05937  0.64745  1.0000
  H   H572      1.0  0.49940  0.02478  0.79795  1.0000
  S   S90       1.0  0.78540  0.39968  0.03792  1.0000
  C   C728      1.0  0.55790  0.61647  0.48915  1.0000
  C   C729      1.0  0.69907  0.33547  0.27241  1.0000
  Fe  Fe44      1.0  0.82853  0.42654  0.04463  1.0000
  S   S91       1.0  0.84622  0.43890  0.11523  1.0000
  Fe  Fe45      1.0  0.63374  0.41536  0.03208  1.0000
  S   S92       1.0  0.66872  0.41922  0.06988  1.0000
  Fe  Fe46      1.0  0.58146  0.41214  0.04853  1.0000
  S   S93       1.0  0.55330  0.41373  0.09899  1.0000
  S   S94       1.0  0.59482  0.38314  0.05530  1.0000
  H   H573      1.0  0.56547  0.46200  0.27211  1.0000
  Fe  Fe47      1.0  0.86582  0.53037  0.31460  1.0000
  S   S95       1.0  0.87188  0.56065  0.36764  1.0000
  S   S96       1.0  0.85428  0.53000  0.24085  1.0000
  Fe  Fe48      1.0  0.87382  0.49686  0.38181  1.0000
  S   S97       1.0  0.87990  0.52347  0.44005  1.0000
  S   S98       1.0  0.87800  0.46130  0.38586  1.0000
  Fe  Fe49      1.0  0.84572  0.52625  0.41255  1.0000
  S   S99       1.0  0.80843  0.51517  0.45452  1.0000
  Fe  Fe50      1.0  0.90584  0.55582  0.39147  1.0000
  S   S100      1.0  0.94611  0.58506  0.42173  1.0000
  S   S101      1.0  0.83804  0.49667  0.35753  1.0000
  S   S102      1.0  0.90129  0.52845  0.33500  1.0000
  S   S103      1.0  0.51881  0.34655  0.41702  1.0000
  C   C730      1.0  0.98835  0.50553  0.41616  1.0000
  C   C731      1.0  0.53780  0.47879  0.41629  1.0000
  C   C732      1.0  0.57133  0.43523  0.46531  1.0000
  H   H574      1.0  0.51353  0.39054  0.25081  1.0000
  C   C733      1.0  0.90302  0.46494  0.03772  1.0000
  H   H575      1.0  0.56088  0.42332  0.43666  1.0000
  S   S104      1.0  0.54730  0.37856  0.30537  1.0000
  C   C734      1.0  0.97854  0.60035  0.39924  1.0000
  H   H576      1.0  0.71448  0.46231  0.48209  1.0000
  C   C735      1.0  0.51328  0.47445  0.40339  1.0000
  H   H577      1.0  0.96773  0.59369  0.32860  1.0000
  C   C736      1.0  0.69350  0.42103  0.03477  1.0000
  C   C737      1.0  0.61348  0.35582  0.18662  1.0000
  C   C738      1.0  0.94061  0.43257  0.49718  1.0000
  H   H578      1.0  0.53224  0.43934  0.33173  1.0000
  C   C739      1.0  0.96213  0.49236  0.40317  1.0000
  H   H579      1.0  0.82709  0.57120  0.28872  1.0000
  P   P26       1.0  0.96888  0.41680  0.44463  1.0000
  C   C740      1.0  0.86693  0.44467  0.43736  1.0000
  H   H580      1.0  0.74699  0.50303  0.03820  1.0000
  C   C741      1.0  0.92381  0.50266  0.49139  1.0000
  H   H581      1.0  0.80166  0.38035  0.30628  1.0000
  C   C742      1.0  0.55147  0.40326  0.15599  1.0000
  C   C743      1.0  0.53095  0.40040  0.18377  1.0000
  C   C744      1.0  0.52920  0.39253  0.22951  1.0000
  C   C745      1.0  0.54811  0.38774  0.24788  1.0000
  C   C746      1.0  0.56871  0.39077  0.22023  1.0000
  C   C747      1.0  0.57031  0.39832  0.17441  1.0000
  C   C748      1.0  0.98131  0.44693  0.36555  1.0000
  H   H582      1.0  0.49907  0.45577  0.38902  1.0000
  H   H583      1.0  0.58627  0.40061  0.15348  1.0000
  C   C749      1.0  0.84719  0.46389  0.14949  1.0000
  C   C750      1.0  0.84111  0.48223  0.13240  1.0000
  C   C751      1.0  0.84317  0.50237  0.16071  1.0000
  C   C752      1.0  0.85139  0.50432  0.20615  1.0000
  C   C753      1.0  0.85701  0.48568  0.22334  1.0000
  C   C754      1.0  0.85501  0.46565  0.19508  1.0000
  H   H584      1.0  0.83533  0.48122  0.09726  1.0000
  H   H585      1.0  0.83866  0.51665  0.14726  1.0000
  H   H586      1.0  0.86328  0.48692  0.25828  1.0000
  H   H587      1.0  0.85986  0.45162  0.20855  1.0000
  H   H588      1.0  0.92344  0.41569  0.48380  1.0000
  C   C755      1.0  0.71326  0.41748  0.05348  1.0000
  C   C756      1.0  0.67672  0.45360  0.18001  1.0000
  C   C757      1.0  0.74453  0.33781  0.14136  1.0000
  H   H589      1.0  0.71301  0.41332  0.08935  1.0000
  H   H590      1.0  0.65109  0.45890  0.22469  1.0000
  H   H591      1.0  0.75956  0.49234  0.50193  1.0000
  H   H592      1.0  0.89222  0.46721  0.06521  1.0000
  H   H593      1.0  0.96058  0.54087  0.34398  1.0000
  H   H594      1.0  0.56273  0.53918  0.46195  1.0000
  C   C758      1.0  0.85222  0.45041  0.46723  1.0000
  H   H595      1.0  0.74376  0.37205  0.16440  1.0000
  H   H596      1.0  0.85101  0.55436  0.50600  1.0000
  C   C759      1.0  0.96844  0.53079  0.36340  1.0000
  H   H597      1.0  0.62856  0.38482  0.30841  1.0000
  H   H598      1.0  0.66187  0.44337  0.15426  1.0000
  C   C760      1.0  0.94260  0.37402  0.50171  1.0000
  H   H599      1.0  0.60369  0.34404  0.02402  1.0000
  C   C761      1.0  0.67601  0.33628  0.26874  1.0000
  C   C762      1.0  0.96133  0.42753  0.39212  1.0000
  C   C763      1.0  0.93255  0.36531  0.42155  1.0000
  H   H600      1.0  0.60628  0.61554  0.42942  1.0000
  C   C764      1.0  0.50339  0.53962  0.34726  1.0000
  C   C765      1.0  0.53781  0.45974  0.22220  1.0000
  H   H601      1.0  0.51641  0.40435  0.16983  1.0000
  C   C766      1.0  0.98744  0.45944  0.50387  1.0000
  C   C767      1.0  0.54171  0.57476  0.45098  1.0000
  C   C768      1.0  0.67711  0.45943  0.47047  1.0000
  P   P27       1.0  0.51530  0.54203  0.43993  1.0000
  H   H602      1.0  0.78734  0.34949  0.36994  1.0000
  H   H603      1.0  0.68510  0.48213  0.28354  1.0000
  H   H604      1.0  0.93562  0.37158  0.38641  1.0000
  H   H605      1.0  0.79792  0.36466  0.22726  1.0000
  H   H606      1.0  0.99080  0.47225  0.30724  1.0000
  H   H607      1.0  0.60957  0.34799  0.15235  1.0000
  H   H608      1.0  0.64654  0.39217  0.16557  1.0000
  C   C769      1.0  0.71032  0.34144  0.06141  1.0000
  H   H609      1.0  0.56996  0.57202  0.40837  1.0000
  C   C770      1.0  0.93529  0.41916  0.38075  1.0000
  C   C771      1.0  0.94577  0.38312  0.45679  1.0000
  H   H610      1.0  0.93199  0.49468  0.36597  1.0000
  H   H611      1.0  0.71339  0.55729  0.48521  1.0000
  C   C772      1.0  0.67067  0.46237  0.21964  1.0000
  S   S105      1.0  0.63056  0.50846  0.48649  1.0000
  H   H612      1.0  0.66777  0.34022  0.29842  1.0000
  H   H613      1.0  0.54269  0.46361  0.41167  1.0000
  H   H614      1.0  0.73028  0.35587  0.06897  1.0000
  H   H615      1.0  0.84697  0.46486  0.45808  1.0000
  C   C773      1.0  0.98374  0.60229  0.35254  1.0000
  C   C774      1.0  0.94937  0.44843  0.31609  1.0000
  H   H616      1.0  0.59533  0.46914  0.42419  1.0000
  C   C775      1.0  0.75583  0.36420  0.15359  1.0000
  C   C776      1.0  0.78272  0.38090  0.14971  1.0000
  C   C777      1.0  0.79843  0.37137  0.13338  1.0000
  H   H617      1.0  0.54842  0.33563  0.25894  1.0000
  C   C778      1.0  0.78498  0.34196  0.33577  1.0000
  C   C779      1.0  0.79315  0.35966  0.29961  1.0000
  C   C780      1.0  0.62610  0.46897  0.33241  1.0000
  H   H618      1.0  0.91950  0.40510  0.40176  1.0000
  H   H619      1.0  0.59175  0.34042  0.29584  1.0000
  C   C781      1.0  0.59761  0.34109  0.22304  1.0000
  H   H620      1.0  0.99529  0.49551  0.43748  1.0000
  C   C782      1.0  0.79102  0.35081  0.25500  1.0000
  C   C783      1.0  0.68983  0.47545  0.25272  1.0000
  C   C784      1.0  0.59111  0.46110  0.45821  1.0000
  H   H621      1.0  0.88462  0.42119  0.42574  1.0000
  H   H622      1.0  0.79142  0.40145  0.15786  1.0000
  H   H623      1.0  0.81917  0.38437  0.12926  1.0000
  Fe  Fe51      1.0  0.51399  0.37507  0.45903  1.0000
  C   C785      1.0  0.51159  0.45092  0.21272  1.0000
  H   H624      1.0  0.59565  0.40508  0.36318  1.0000
  C   C786      1.0  0.78730  0.34523  0.12089  1.0000
  C   C787      1.0  0.95229  0.50484  0.37613  1.0000
  S   S106      1.0  0.62130  0.44542  0.03130  1.0000
  C   C788      1.0  0.86571  0.41299  0.49097  1.0000
  H   H625      1.0  0.63702  0.42064  0.40515  1.0000
  C   C789      1.0  0.87343  0.42578  0.44903  1.0000
  C   C790      1.0  0.70192  0.45803  0.17326  1.0000
  C   C791      1.0  0.72158  0.47204  0.20552  1.0000
  C   C792      1.0  0.71517  0.48024  0.24580  1.0000
  P   P28       1.0  0.75437  0.47833  0.19609  1.0000
  C   C793      1.0  0.75719  0.45131  0.21752  1.0000
  C   C794      1.0  0.76143  0.48167  0.13582  1.0000
  C   C795      1.0  0.77671  0.47212  0.11692  1.0000
  C   C796      1.0  0.78121  0.47375  0.07007  1.0000
  C   C797      1.0  0.77042  0.48477  0.04168  1.0000
  C   C798      1.0  0.75555  0.49471  0.06024  1.0000
  C   C799      1.0  0.75127  0.49342  0.10715  1.0000
  C   C800      1.0  0.78137  0.45524  0.23262  1.0000
  C   C801      1.0  0.78383  0.43415  0.24743  1.0000
  C   C802      1.0  0.76219  0.40898  0.24714  1.0000
  C   C803      1.0  0.73812  0.40490  0.23177  1.0000
  C   C804      1.0  0.73563  0.42594  0.21677  1.0000
  C   C805      1.0  0.77724  0.50800  0.22526  1.0000
  C   C806      1.0  0.78167  0.50747  0.27212  1.0000
  C   C807      1.0  0.79931  0.53023  0.29504  1.0000
  C   C808      1.0  0.81277  0.55374  0.27128  1.0000
  C   C809      1.0  0.80846  0.55450  0.22469  1.0000
  C   C810      1.0  0.79074  0.53175  0.20171  1.0000
  H   H626      1.0  0.81940  0.57264  0.20618  1.0000
  H   H627      1.0  0.58858  0.43561  0.31648  1.0000
  H   H628      1.0  0.66395  0.49853  0.35469  1.0000
  H   H629      1.0  0.70602  0.45073  0.14248  1.0000
  H   H630      1.0  0.72965  0.49052  0.27180  1.0000
  H   H631      1.0  0.78504  0.46320  0.13803  1.0000
  H   H632      1.0  0.79253  0.46583  0.05551  1.0000
  C   C811      1.0  0.94232  0.52878  0.48364  1.0000
  H   H633      1.0  0.74904  0.41763  0.04089  1.0000
  H   H634      1.0  0.73965  0.50117  0.12089  1.0000
  H   H635      1.0  0.79849  0.47455  0.23224  1.0000
  H   H636      1.0  0.80270  0.43747  0.25850  1.0000
  H   H637      1.0  0.76420  0.39263  0.25815  1.0000
  H   H638      1.0  0.72143  0.38541  0.23053  1.0000
  H   H639      1.0  0.71700  0.42228  0.20388  1.0000
  H   H640      1.0  0.77182  0.48940  0.29084  1.0000
  H   H641      1.0  0.80312  0.52956  0.33097  1.0000
  H   H642      1.0  0.78804  0.53279  0.16556  1.0000
  H   H643      1.0  0.94930  0.47248  0.41419  1.0000
  H   H644      1.0  0.58350  0.38725  0.23428  1.0000
  H   H645      1.0  0.62271  0.48245  0.31273  1.0000
  C   C812      1.0  0.60684  0.44266  0.33462  1.0000
  H   H646      1.0  0.90925  0.42347  0.33489  1.0000
  C   C813      1.0  0.79195  0.52963  0.48282  1.0000
  C   C814      1.0  0.56645  0.58393  0.43187  1.0000
  C   C815      1.0  0.53734  0.59172  0.47805  1.0000
  C   C816      1.0  0.99455  0.54410  0.37686  1.0000
  C   C817      1.0  0.50686  0.49392  0.40990  1.0000
  C   C818      1.0  0.70991  0.43324  0.33087  1.0000
  C   C819      1.0  0.73632  0.44512  0.34214  1.0000
  C   C820      1.0  0.74689  0.46516  0.37429  1.0000
  C   C821      1.0  0.73108  0.47330  0.39519  1.0000
  C   C822      1.0  0.70441  0.46125  0.38463  1.0000
  C   C823      1.0  0.69396  0.44115  0.35215  1.0000
  P   P29       1.0  0.68417  0.47182  0.41282  1.0000
  H   H647      1.0  0.87065  0.39838  0.49951  1.0000
  C   C824      1.0  0.70222  0.50702  0.41508  1.0000
  C   C825      1.0  0.69953  0.52020  0.45236  1.0000
  C   C826      1.0  0.71500  0.54729  0.45573  1.0000
  C   C827      1.0  0.73301  0.56147  0.42179  1.0000
  C   C828      1.0  0.73526  0.54861  0.38384  1.0000
  C   C829      1.0  0.71982  0.52149  0.38030  1.0000
  C   C830      1.0  0.64018  0.39122  0.23803  1.0000
  C   C831      1.0  0.54906  0.52166  0.44418  1.0000
  C   C832      1.0  0.52492  0.51796  0.42935  1.0000
  C   C833      1.0  0.54524  0.45570  0.26517  1.0000
  H   H648      1.0  0.55979  0.34414  0.16486  1.0000
  C   C834      1.0  0.65393  0.46063  0.38213  1.0000
  C   C835      1.0  0.63432  0.43427  0.38455  1.0000
  C   C836      1.0  0.61091  0.42537  0.36086  1.0000
  C   C837      1.0  0.64953  0.47799  0.35622  1.0000
  H   H649      1.0  0.70180  0.41789  0.30561  1.0000
  H   H650      1.0  0.74869  0.43899  0.32578  1.0000
  H   H651      1.0  0.76744  0.47460  0.38300  1.0000
  H   H652      1.0  0.73981  0.48916  0.41952  1.0000
  H   H653      1.0  0.67363  0.43168  0.34277  1.0000
  C   C838      1.0  0.73360  0.41973  0.02596  1.0000
  H   H654      1.0  0.59876  0.64390  0.48181  1.0000
  H   H655      1.0  0.74527  0.58241  0.42518  1.0000
  H   H656      1.0  0.74924  0.55967  0.35754  1.0000
  H   H657      1.0  0.72199  0.51186  0.35085  1.0000
  C   C839      1.0  0.55570  0.50240  0.43664  1.0000
  H   H658      1.0  0.82073  0.56965  0.46993  1.0000
  H   H659      1.0  0.51810  0.58592  0.49096  1.0000
  H   H660      1.0  0.50635  0.45380  0.17883  1.0000
  H   H661      1.0  0.51815  0.53432  0.34160  1.0000
  C   C840      1.0  0.62457  0.37663  0.27448  1.0000
  C   C841      1.0  0.52647  0.44286  0.29876  1.0000
  S   S107      1.0  0.51301  0.39782  0.39935  1.0000
  C   C842      1.0  0.60350  0.35154  0.26713  1.0000
  H   H662      1.0  0.55229  0.46906  0.19574  1.0000
  C   C843      1.0  0.65342  0.45351  0.49098  1.0000
  H   H663      1.0  0.92157  0.48778  0.46749  1.0000
  C   C844      1.0  0.63462  0.38084  0.19409  1.0000
  H   H664      1.0  0.99621  0.61064  0.46555  1.0000
  C   C845      1.0  0.91369  0.44881  0.04323  1.0000
  C   C846      1.0  0.92937  0.42956  0.34288  1.0000
  H   H665      1.0  0.65647  0.41061  0.24379  1.0000
  C   C847      1.0  0.80232  0.55663  0.48598  1.0000
  Fe  Fe52      1.0  0.51471  0.36758  0.35671  1.0000
  H   H666      1.0  0.68572  0.50968  0.47915  1.0000
  C   C848      1.0  0.91517  0.33908  0.43155  1.0000
  H   H667      1.0  0.94472  0.45677  0.28718  1.0000
  S   S108      1.0  0.83864  0.39968  0.00716  1.0000
  H   H668      1.0  0.91082  0.43839  0.07496  1.0000
  C   C849      1.0  0.97532  0.45711  0.32741  1.0000
  C   C850      1.0  0.69589  0.45736  0.49643  1.0000
  C   C851      1.0  0.96557  0.43719  0.48637  1.0000
  H   H669      1.0  0.79933  0.33814  0.10632  1.0000
  C   C852      1.0  0.58702  0.60873  0.44318  1.0000
  H   H670      1.0  0.95444  0.53437  0.45365  1.0000
  C   C853      1.0  0.58281  0.62482  0.47235  1.0000
  H   H671      1.0  0.63893  0.45587  0.47253  1.0000
  H   H672      1.0  0.70879  0.33885  0.30501  1.0000
  H   H673      1.0  0.57454  0.50548  0.44743  1.0000
  C   C854      1.0  0.69946  0.34363  0.02056  1.0000
  C   C855      1.0  0.60574  0.47632  0.49505  1.0000
  C   C856      1.0  0.50019  0.43379  0.28933  1.0000
  C   C857      1.0  0.77933  0.33805  0.48633  1.0000
  C   C858      1.0  0.49819  0.54488  0.39131  1.0000
  H   H674      1.0  0.53960  0.34185  0.09048  1.0000
  H   H675      1.0  0.95852  0.56814  0.50566  1.0000
  C   C859      1.0  0.76771  0.51321  0.50364  1.0000
  H   H676      1.0  0.77046  0.34797  0.50282  1.0000
  H   H677      1.0  0.93593  0.43344  0.01267  1.0000
  C   C860      1.0  0.92781  0.44605  0.00785  1.0000
  C   C861      1.0  0.80294  0.34146  0.50269  1.0000
  C   C862      1.0  0.83746  0.49800  0.60046  1.0000
  S   S109      1.0  0.76093  0.43189  0.94506  1.0000
  Fe  Fe53      1.0  0.83805  0.42032  0.94358  1.0000
  S   S110      1.0  0.86699  0.43097  0.88598  1.0000
  S   S111      1.0  0.79578  0.39345  0.92963  1.0000
  H   H678      1.0  0.89556  0.50955  0.58631  1.0000
  S   S112      1.0  0.62611  0.40624  0.95763  1.0000
  S   S113      1.0  0.56964  0.40272  0.97492  1.0000
  C   C863      1.0  0.92094  0.55326  0.64481  1.0000
  Fe  Fe54      1.0  0.61056  0.43391  0.95764  1.0000
  S   S114      1.0  0.62151  0.46737  0.90715  1.0000
  Fe  Fe55      1.0  0.86599  0.35259  0.67535  1.0000
  Fe  Fe56      1.0  0.51679  0.64927  0.55562  1.0000
  Fe  Fe57      1.0  0.86256  0.38126  0.59297  1.0000
  S   S115      1.0  0.88791  0.37162  0.55066  1.0000
  H   H679      1.0  0.77183  0.41114  0.82992  1.0000
  Fe  Fe58      1.0  0.91380  0.38178  0.61273  1.0000
  S   S116      1.0  0.95664  0.41536  0.61238  1.0000
  C   C864      1.0  0.81546  0.48129  0.57496  1.0000
  S   S117      1.0  0.88937  0.39399  0.65272  1.0000
  Fe  Fe59      1.0  0.65264  0.52415  0.55183  1.0000
  S   S118      1.0  0.68368  0.56614  0.55615  1.0000
  C   C865      1.0  0.57657  0.51310  0.58763  1.0000
  Fe  Fe60      1.0  0.66142  0.51155  0.64871  1.0000
  S   S119      1.0  0.69379  0.55294  0.65967  1.0000
  S   S120      1.0  0.64498  0.47525  0.69396  1.0000
  Fe  Fe61      1.0  0.66686  0.56487  0.62534  1.0000
  S   S121      1.0  0.65393  0.59190  0.65779  1.0000
  Fe  Fe62      1.0  0.70753  0.55022  0.58866  1.0000
  S   S122      1.0  0.74970  0.56485  0.56430  1.0000
  S   S123      1.0  0.63430  0.52353  0.61855  1.0000
  S   S124      1.0  0.67688  0.50833  0.58049  1.0000
  S   S125      1.0  0.53957  0.39337  0.52013  1.0000
  Fe  Fe63      1.0  0.78943  0.42089  0.97265  1.0000
  H   H680      1.0  0.72157  0.51769  0.66349  1.0000
  H   H681      1.0  0.62969  0.54569  0.82071  1.0000
  C   C866      1.0  0.61542  0.53711  0.79367  1.0000
  S   S126      1.0  0.52665  0.62939  0.61012  1.0000
  C   C867      1.0  0.54895  0.41866  0.65231  1.0000
  H   H682      1.0  0.51599  0.42421  0.52654  1.0000
  C   C868      1.0  0.60098  0.46554  0.53861  1.0000
  H   H683      1.0  0.93490  0.39234  0.80015  1.0000
  H   H684      1.0  0.61279  0.47682  0.56698  1.0000
  C   C869      1.0  0.63619  0.60670  0.63593  1.0000
  C   C870      1.0  0.63836  0.61497  0.59069  1.0000
  C   C871      1.0  0.62666  0.62954  0.57639  1.0000
  C   C872      1.0  0.61201  0.63553  0.60660  1.0000
  C   C873      1.0  0.60881  0.62620  0.65129  1.0000
  C   C874      1.0  0.62112  0.61225  0.66593  1.0000
  H   H685      1.0  0.65009  0.61122  0.56726  1.0000
  C   C875      1.0  0.51627  0.46057  0.52534  1.0000
  H   H686      1.0  0.89372  0.62618  0.57962  1.0000
  H   H687      1.0  0.61945  0.60625  0.70109  1.0000
  C   C876      1.0  0.76473  0.55052  0.53126  1.0000
  C   C877      1.0  0.86724  0.56715  0.52761  1.0000
  C   C878      1.0  0.87026  0.59101  0.54153  1.0000
  H   H688      1.0  0.70688  0.52577  0.73732  1.0000
  C   C879      1.0  0.88520  0.55979  0.54124  1.0000
  C   C880      1.0  0.99120  0.51984  0.83911  1.0000
  H   H689      1.0  0.78404  0.44190  0.56637  1.0000
  C   C881      1.0  0.56614  0.54292  0.62566  1.0000
  C   C882      1.0  0.57906  0.51454  0.72260  1.0000
  H   H690      1.0  0.85626  0.59663  0.53084  1.0000
  C   C883      1.0  0.98846  0.41909  0.61185  1.0000
  C   C884      1.0  0.58632  0.53021  0.55065  1.0000
  H   H691      1.0  0.57795  0.43148  0.57907  1.0000
  H   H692      1.0  0.97594  0.37823  0.61538  1.0000
  C   C885      1.0  0.52950  0.42347  0.63676  1.0000
  S   S127      1.0  0.89176  0.34031  0.63969  1.0000
  H   H693      1.0  0.95700  0.48560  0.56335  1.0000
  C   C886      1.0  0.74499  0.33918  0.82713  1.0000
  P   P30       1.0  0.92920  0.56652  0.58792  1.0000
  C   C887      1.0  0.62749  0.46906  0.84767  1.0000
  C   C888      1.0  0.61942  0.44673  0.82117  1.0000
  C   C889      1.0  0.62443  0.44907  0.77405  1.0000
  C   C890      1.0  0.63787  0.47364  0.75293  1.0000
  C   C891      1.0  0.64577  0.49597  0.77932  1.0000
  C   C892      1.0  0.64060  0.49365  0.82642  1.0000
  H   H694      1.0  0.60914  0.42768  0.83692  1.0000
  H   H695      1.0  0.61771  0.43174  0.75369  1.0000
  H   H696      1.0  0.65600  0.51502  0.76354  1.0000
  H   H697      1.0  0.64690  0.51105  0.84659  1.0000
  C   C893      1.0  0.50725  0.49104  0.65470  1.0000
  H   H698      1.0  0.87693  0.36547  0.90480  1.0000
  H   H699      1.0  0.90066  0.40785  0.94311  1.0000
  C   C894      1.0  0.62641  0.33925  0.90746  1.0000
  H   H700      1.0  0.71462  0.43303  0.92541  1.0000
  C   C895      1.0  0.86075  0.40613  0.84624  1.0000
  C   C896      1.0  0.87769  0.41179  0.80940  1.0000
  C   C897      1.0  0.87359  0.39247  0.77750  1.0000
  C   C898      1.0  0.85281  0.36704  0.78286  1.0000
  C   C899      1.0  0.83580  0.36135  0.81964  1.0000
  C   C900      1.0  0.83966  0.38081  0.85114  1.0000
  H   H701      1.0  0.89453  0.43091  0.80632  1.0000
  H   H702      1.0  0.88727  0.39698  0.75016  1.0000
  C   C901      1.0  0.58602  0.55364  0.55119  1.0000
  H   H703      1.0  0.82671  0.37596  0.87980  1.0000
  C   C902      1.0  0.56711  0.51972  0.62598  1.0000
  H   H704      1.0  0.68499  0.34496  0.88461  1.0000
  S   S128      1.0  0.83206  0.44989  0.98169  1.0000
  C   C903      1.0  0.85152  0.41907  0.52136  1.0000
  C   C904      1.0  0.93053  0.53745  0.66138  1.0000
  C   C905      1.0  0.92334  0.52609  0.70448  1.0000
  C   C906      1.0  0.61768  0.55159  0.75470  1.0000
  C   C907      1.0  0.59965  0.54039  0.71927  1.0000
  C   C908      1.0  0.90656  0.53042  0.73148  1.0000
  H   H705      1.0  0.72640  0.47888  0.65383  1.0000
  C   C909      1.0  0.96141  0.59495  0.58563  1.0000
  H   H706      1.0  0.55910  0.54853  0.65503  1.0000
  H   H707      1.0  0.59234  0.47884  0.69216  1.0000
  H   H708      1.0  0.58721  0.43549  0.68250  1.0000
  H   H709      1.0  0.63378  0.57142  0.75130  1.0000
  H   H710      1.0  0.60248  0.55193  0.68909  1.0000
  C   C910      1.0  0.98499  0.50064  0.87228  1.0000
  C   C911      1.0  0.98297  0.46623  0.75254  1.0000
  C   C912      1.0  0.94578  0.49949  0.81772  1.0000
  C   C913      1.0  0.93959  0.48014  0.85047  1.0000
  C   C914      1.0  0.95905  0.48072  0.87842  1.0000
  H   H711      1.0  0.71254  0.34392  0.80808  1.0000
  P   P31       1.0  0.95029  0.45604  0.92181  1.0000
  C   C915      1.0  0.75403  0.52348  0.52708  1.0000
  C   C916      1.0  0.93231  0.42462  0.89428  1.0000
  H   H712      1.0  0.98259  0.41269  0.71037  1.0000
  C   C917      1.0  0.57435  0.46345  0.67764  1.0000
  P   P32       1.0  0.55652  0.49907  0.67580  1.0000
  C   C918      1.0  0.57550  0.55976  0.58832  1.0000
  C   C919      1.0  0.94151  0.42007  0.85333  1.0000
  H   H713      1.0  0.80997  0.48870  0.54567  1.0000
  C   C920      1.0  0.99249  0.39780  0.61385  1.0000
  H   H714      1.0  0.51708  0.45158  0.63017  1.0000
  C   C921      1.0  0.98962  0.44361  0.93645  1.0000
  H   H715      1.0  0.51337  0.49331  0.61959  1.0000
  H   H716      1.0  0.75244  0.50321  0.94086  1.0000
  C   C922      1.0  0.66432  0.33792  0.88215  1.0000
  H   H717      1.0  0.54713  0.39975  0.64676  1.0000
  H   H718      1.0  0.63145  0.34914  0.68342  1.0000
  C   C923      1.0  0.96834  0.61227  0.54872  1.0000
  S   S129      1.0  0.84340  0.40461  0.57527  1.0000
  H   H719      1.0  0.95248  0.42874  0.72865  1.0000
  S   S130      1.0  0.56668  0.33536  0.95175  1.0000
  H   H720      1.0  0.93040  0.49925  0.79750  1.0000
  H   H721      1.0  0.91948  0.46513  0.85520  1.0000
  H   H722      1.0  0.66385  0.43823  0.59757  1.0000
  C   C924      1.0  0.90895  0.40468  0.91277  1.0000
  H   H723      1.0  0.95329  0.38724  0.52924  1.0000
  H   H724      1.0  0.95929  0.43525  0.83815  1.0000
  H   H725      1.0  0.92223  0.48576  0.93003  1.0000
  H   H726      1.0  0.77153  0.34144  0.72828  1.0000
  H   H727      1.0  0.88430  0.54991  0.73651  1.0000
  Fe  Fe64      1.0  0.79570  0.37477  0.99593  1.0000
  H   H728      1.0  0.83333  0.44216  0.53252  1.0000
  C   C925      1.0  0.92024  0.47537  0.96125  1.0000
  Fe  Fe65      1.0  0.51719  0.65271  0.65928  1.0000
  H   H729      1.0  0.63034  0.44105  0.55203  1.0000
  H   H730      1.0  0.89292  0.47567  0.53475  1.0000
  H   H731      1.0  0.56199  0.47981  0.76475  1.0000
  H   H732      1.0  0.69738  0.49572  0.80143  1.0000
  C   C926      1.0  0.90915  0.51518  0.55841  1.0000
  H   H733      1.0  0.75643  0.35871  0.84082  1.0000
  C   C927      1.0  0.69404  0.42650  0.98844  1.0000
  H   H734      1.0  0.74933  0.34552  0.94233  1.0000
  C   C928      1.0  0.80075  0.45496  0.58685  1.0000
  C   C929      1.0  0.80786  0.44538  0.62450  1.0000
  C   C930      1.0  0.82975  0.46219  0.65075  1.0000
  C   C931      1.0  0.84487  0.48844  0.63764  1.0000
  P   P33       1.0  0.83957  0.45020  0.69919  1.0000
  C   C932      1.0  0.83803  0.46498  0.75214  1.0000
  C   C933      1.0  0.81783  0.41552  0.70614  1.0000
  C   C934      1.0  0.79254  0.40641  0.72268  1.0000
  C   C935      1.0  0.77584  0.37978  0.73043  1.0000
  C   C936      1.0  0.78427  0.36204  0.72174  1.0000
  C   C937      1.0  0.80926  0.37092  0.70470  1.0000
  C   C938      1.0  0.82601  0.39753  0.69684  1.0000
  C   C939      1.0  0.83691  0.45259  0.79361  1.0000
  C   C940      1.0  0.83493  0.46321  0.83476  1.0000
  C   C941      1.0  0.83411  0.48632  0.83508  1.0000
  C   C942      1.0  0.83512  0.49879  0.79412  1.0000
  C   C943      1.0  0.83691  0.48812  0.75279  1.0000
  C   C944      1.0  0.87221  0.45635  0.68941  1.0000
  C   C945      1.0  0.88145  0.45843  0.64484  1.0000
  C   C946      1.0  0.90580  0.46095  0.63696  1.0000
  C   C947      1.0  0.92101  0.46105  0.67330  1.0000
  C   C948      1.0  0.91200  0.45906  0.71777  1.0000
  C   C949      1.0  0.88782  0.45700  0.72586  1.0000
  C   C950      1.0  0.95939  0.47209  0.54205  1.0000
  S   S131      1.0  0.84876  0.34167  0.74617  1.0000
  H   H735      1.0  0.79651  0.42479  0.63221  1.0000
  H   H736      1.0  0.86239  0.50150  0.65622  1.0000
  H   H737      1.0  0.78581  0.41995  0.72969  1.0000
  H   H738      1.0  0.75644  0.37294  0.74338  1.0000
  H   H739      1.0  0.79754  0.58783  0.51332  1.0000
  H   H740      1.0  0.81585  0.35722  0.69796  1.0000
  H   H741      1.0  0.84526  0.40386  0.68365  1.0000
  H   H742      1.0  0.83740  0.43454  0.79440  1.0000
  H   H743      1.0  0.83389  0.45340  0.86655  1.0000
  H   H744      1.0  0.83232  0.49431  0.86712  1.0000
  H   H745      1.0  0.83406  0.51651  0.79444  1.0000
  H   H746      1.0  0.83693  0.49787  0.72178  1.0000
  H   H747      1.0  0.86945  0.45698  0.61594  1.0000
  H   H748      1.0  0.91225  0.46156  0.60249  1.0000
  H   H749      1.0  0.93930  0.46168  0.66679  1.0000
  H   H750      1.0  0.92336  0.45826  0.74588  1.0000
  H   H751      1.0  0.88100  0.45504  0.76042  1.0000
  C   C951      1.0  0.90746  0.49586  0.52911  1.0000
  C   C952      1.0  0.65317  0.34892  0.90941  1.0000
  C   C953      1.0  0.78899  0.56692  0.51047  1.0000
  C   C954      1.0  0.71430  0.42869  0.96106  1.0000
  H   H752      1.0  0.97637  0.53450  0.78688  1.0000
  C   C955      1.0  0.69110  0.44961  0.54201  1.0000
  C   C956      1.0  0.89717  0.54637  0.71548  1.0000
  H   H753      1.0  0.78448  0.45206  0.78797  1.0000
  C   C957      1.0  0.90647  0.57634  0.56868  1.0000
  H   H754      1.0  0.70597  0.44877  0.56209  1.0000
  H   H755      1.0  0.66513  0.36464  0.93273  1.0000
  C   C958      1.0  0.52444  0.49345  0.68979  1.0000
  H   H756      1.0  0.94338  0.53371  0.64072  1.0000
  H   H757      1.0  0.71693  0.44822  0.71790  1.0000
  C   C959      1.0  0.76491  0.44050  0.80080  1.0000
  H   H758      1.0  0.66557  0.42468  0.73278  1.0000
  C   C960      1.0  0.73265  0.40282  0.84205  1.0000
  C   C961      1.0  0.71481  0.41149  0.83671  1.0000
  C   C962      1.0  0.72192  0.43484  0.81337  1.0000
  C   C963      1.0  0.74728  0.44945  0.79599  1.0000
  P   P34       1.0  0.70013  0.44785  0.81222  1.0000
  C   C964      1.0  0.66712  0.42094  0.80598  1.0000
  C   C965      1.0  0.70481  0.46561  0.86464  1.0000
  C   C966      1.0  0.72969  0.47952  0.88446  1.0000
  C   C967      1.0  0.73334  0.49301  0.92528  1.0000
  C   C968      1.0  0.71229  0.49305  0.94625  1.0000
  C   C969      1.0  0.68766  0.47979  0.92623  1.0000
  C   C970      1.0  0.68394  0.46625  0.88549  1.0000
  C   C971      1.0  0.65290  0.40664  0.84415  1.0000
  C   C972      1.0  0.62728  0.38611  0.83921  1.0000
  C   C973      1.0  0.61594  0.37907  0.79615  1.0000
  C   C974      1.0  0.63008  0.39284  0.75794  1.0000
  C   C975      1.0  0.65547  0.41378  0.76278  1.0000
  C   C976      1.0  0.70738  0.47014  0.76510  1.0000
  C   C977      1.0  0.71524  0.46539  0.72287  1.0000
  C   C978      1.0  0.72053  0.48260  0.68647  1.0000
  C   C979      1.0  0.71784  0.50453  0.69185  1.0000
  C   C980      1.0  0.70975  0.50921  0.73355  1.0000
  C   C981      1.0  0.70439  0.49205  0.76995  1.0000
  H   H759      1.0  0.72757  0.38569  0.86242  1.0000
  H   H760      1.0  0.69593  0.40054  0.85263  1.0000
  H   H761      1.0  0.75379  0.46821  0.78009  1.0000
  H   H762      1.0  0.74622  0.47955  0.86910  1.0000
  Fe  Fe66      1.0  0.58622  0.37606  0.98084  1.0000
  H   H763      1.0  0.52467  0.55022  0.53843  1.0000
  H   H764      1.0  0.67136  0.47997  0.94237  1.0000
  H   H765      1.0  0.66474  0.45634  0.87045  1.0000
  H   H766      1.0  0.66142  0.41159  0.87784  1.0000
  H   H767      1.0  0.61596  0.37592  0.86890  1.0000
  H   H768      1.0  0.59604  0.36326  0.79259  1.0000
  H   H769      1.0  0.62104  0.38799  0.72466  1.0000
  C   C982      1.0  0.50393  0.53793  0.53274  1.0000
  C   C983      1.0  0.97955  0.45979  0.94815  1.0000
  C   C984      1.0  0.55423  0.46804  0.66443  1.0000
  C   C985      1.0  0.57152  0.43876  0.67219  1.0000
  H   H770      1.0  0.92560  0.61340  0.60406  1.0000
  C   C986      1.0  0.58114  0.43981  0.54558  1.0000
  H   H771      1.0  0.61789  0.34771  0.92910  1.0000
  C   C987      1.0  0.99276  0.47957  0.98055  1.0000
  S   S132      1.0  0.60011  0.65642  0.58757  1.0000
  S   S133      1.0  0.83717  0.34059  0.61806  1.0000
  C   C988      1.0  0.57708  0.50006  0.76187  1.0000
  C   C989      1.0  0.59512  0.51134  0.79727  1.0000
  C   C990      1.0  0.64852  0.44530  0.53630  1.0000
  H   H772      1.0  0.57574  0.57817  0.58906  1.0000
  H   H773      1.0  0.88233  0.54116  0.53031  1.0000
  C   C991      1.0  0.97159  0.51933  0.81195  1.0000
  C   C992      1.0  0.97960  0.60027  0.62053  1.0000
  C   C993      1.0  0.75769  0.41731  0.82409  1.0000
  C   C994      1.0  0.90616  0.47807  0.99672  1.0000
  H   H774      1.0  0.89654  0.56981  0.66054  1.0000
  C   C995      1.0  0.94443  0.54809  0.51333  1.0000
  C   C996      1.0  0.92788  0.39579  0.83185  1.0000
  H   H775      1.0  0.73552  0.51053  0.54292  1.0000
  H   H776      1.0  0.90083  0.52145  0.76479  1.0000
  C   C997      1.0  0.53211  0.44807  0.64282  1.0000
  H   H777      1.0  0.57757  0.49536  0.58690  1.0000
  H   H778      1.0  0.53655  0.47172  0.51546  1.0000
  C   C998      1.0  0.66742  0.44361  0.56197  1.0000
  H   H779      1.0  0.59789  0.63079  0.67519  1.0000
  H   H780      1.0  0.89383  0.35742  0.83342  1.0000
  C   C999      1.0  0.92772  0.54152  0.55079  1.0000
  C   C1000     1.0  0.89535  0.38046  0.89112  1.0000
  H   H781      1.0  0.55457  0.62923  0.51100  1.0000
  H   H782      1.0  0.91812  0.44616  0.53234  1.0000
  H   H783      1.0  0.59458  0.56743  0.52345  1.0000
  H   H784      1.0  0.97983  0.42801  0.91211  1.0000
  H   H785      1.0  0.93072  0.51381  0.71673  1.0000
  C   C1001     1.0  0.97317  0.44111  0.73505  1.0000
  C   C1002     1.0  0.90427  0.55774  0.67230  1.0000
  C   C1003     1.0  0.99302  0.63455  0.54681  1.0000
  C   C1004     1.0  0.93754  0.44997  0.52473  1.0000
  H   H786      1.0  0.97478  0.58740  0.64947  1.0000
  C   C1005     1.0  0.51586  0.49026  0.73504  1.0000
  H   H787      1.0  0.62953  0.63676  0.54188  1.0000
  H   H788      1.0  0.52855  0.49208  0.76291  1.0000
  H   H789      1.0  0.96985  0.47333  0.76044  1.0000
  H   H790      1.0  0.71495  0.50333  0.97799  1.0000
  C   C1006     1.0  0.90939  0.60032  0.58267  1.0000
  H   H791      1.0  0.51272  0.40821  0.61916  1.0000
  C   C1007     1.0  0.73441  0.42588  0.97981  1.0000
  H   H792      1.0  0.51057  0.49357  0.52510  1.0000
  H   H793      1.0  0.84872  0.51837  0.59125  1.0000
  H   H794      1.0  0.89748  0.49023  0.99243  1.0000
  H   H795      1.0  0.67936  0.42993  0.97389  1.0000
  H   H796      1.0  0.81972  0.34180  0.82408  1.0000
  H   H797      1.0  0.59376  0.49992  0.82709  1.0000
  H   H798      1.0  0.92279  0.34086  0.54636  1.0000
  C   C1008     1.0  0.90484  0.37597  0.85081  1.0000
  C   C1009     1.0  0.89135  0.60761  0.56905  1.0000
  C   C1010     1.0  0.93126  0.45935  0.96652  1.0000
  C   C1011     1.0  0.56581  0.42477  0.50928  1.0000
  H   H799      1.0  0.81224  0.35382  0.53191  1.0000
  H   H800      1.0  0.95475  0.60847  0.52101  1.0000
  H   H801      1.0  0.59510  0.52576  0.52240  1.0000
  C   C1012     1.0  0.98433  0.47674  0.53181  1.0000
  C   C1013     1.0  0.61494  0.33493  0.70295  1.0000
  H   H802      1.0  0.98535  0.49227  0.99016  1.0000
  C   C1014     1.0  0.99016  0.43201  0.72477  1.0000
  H   H803      1.0  0.71097  0.35963  0.99753  1.0000
  Fe  Fe67      1.0  0.56684  0.66417  0.60611  1.0000
  H   H804      1.0  0.58728  0.34190  0.66705  1.0000
  C   C1015     1.0  0.50162  0.47283  0.53113  1.0000
  C   C1016     1.0  0.84439  0.43747  0.50918  1.0000
  C   C1017     1.0  0.92549  0.34773  0.51152  1.0000
  C   C1018     1.0  0.50475  0.43375  0.53201  1.0000
  H   H805      1.0  0.77322  0.48513  0.00523  1.0000
  Fe  Fe68      1.0  0.52221  0.86696  0.34506  1.0000
  S   S134      1.0  0.56400  0.87741  0.35547  1.0000
  H   H806      1.0  0.57284  0.82021  0.31120  1.0000
  Fe  Fe69      1.0  0.52196  0.88998  0.43758  1.0000
  S   S135      1.0  0.56298  0.90034  0.45468  1.0000
  Fe  Fe70      1.0  0.57105  0.91619  0.38323  1.0000
  S   S136      1.0  0.60566  0.95656  0.36389  1.0000
  Fe  Fe71      1.0  0.55194  0.86057  0.42647  1.0000
  S   S137      1.0  0.56396  0.83037  0.44908  1.0000
  S   S138      1.0  0.53020  0.90661  0.36712  1.0000
  C   C1019     1.0  0.63639  0.93847  0.48597  1.0000
  H   H807      1.0  0.53363  0.75328  0.39717  1.0000
  C   C1020     1.0  0.53303  0.76861  0.37830  1.0000
  C   C1021     1.0  0.55518  0.78601  0.35377  1.0000
  C   C1022     1.0  0.66184  0.99687  0.48905  1.0000
  C   C1023     1.0  0.63233  0.91778  0.41282  1.0000
  H   H808      1.0  0.57227  0.78391  0.35422  1.0000
  H   H809      1.0  0.59639  0.99658  0.41062  1.0000
  C   C1024     1.0  0.62267  0.99164  0.36676  1.0000
  S   S139      1.0  0.51008  0.84937  0.41495  1.0000
  C   C1025     1.0  0.55559  0.80653  0.32976  1.0000
  H   H810      1.0  0.57678  0.78943  0.45060  1.0000
  H   H811      1.0  0.55127  0.96255  0.34434  1.0000
  H   H812      1.0  0.68993  0.98663  0.46480  1.0000
  C   C1026     1.0  0.50982  0.75065  0.25581  1.0000
  H   H813      1.0  0.50912  0.79904  0.45491  1.0000
  H   H814      1.0  0.53445  0.82602  0.31263  1.0000
  H   H815      1.0  0.51014  0.86141  0.10310  1.0000
  C   C1027     1.0  0.52292  0.75190  0.16426  1.0000
  H   H816      1.0  0.55598  0.74973  0.18898  1.0000
  H   H817      1.0  0.53022  0.84955  0.16589  1.0000
  H   H818      1.0  0.50599  0.88813  0.24581  1.0000
  C   C1028     1.0  0.50921  0.80844  0.15035  1.0000
  C   C1029     1.0  0.62230  0.89356  0.43419  1.0000
  C   C1030     1.0  0.56661  0.78776  0.48195  1.0000
  H   H819      1.0  0.53435  0.97347  0.41246  1.0000
  H   H820      1.0  0.61623  0.87609  0.41416  1.0000
  H   H821      1.0  0.54426  0.74846  0.27025  1.0000
  H   H822      1.0  0.60363  0.96816  0.46195  1.0000
  C   C1031     1.0  0.55767  0.80536  0.49042  1.0000
  H   H823      1.0  0.63387  0.91918  0.37608  1.0000
  C   C1032     1.0  0.63933  0.94016  0.43856  1.0000
  C   C1033     1.0  0.53400  0.80994  0.33091  1.0000
  H   H824      1.0  0.64605  0.95849  0.42099  1.0000
  C   C1034     1.0  0.50508  0.84126  0.10794  1.0000
  C   C1035     1.0  0.59562  0.96291  0.49589  1.0000
  C   C1036     1.0  0.51638  0.83454  0.14327  1.0000
  C   C1037     1.0  0.53863  0.75033  0.19820  1.0000
  H   H825      1.0  0.50486  0.75032  0.29120  1.0000
  H   H826      1.0  0.52846  0.75267  0.12898  1.0000
  C   C1038     1.0  0.50203  0.69367  0.48706  1.0000
  C   C1039     1.0  0.53204  0.74962  0.24396  1.0000
  H   H827      1.0  0.57794  0.99663  0.28830  1.0000
  C   C1040     1.0  0.51105  0.77175  0.37935  1.0000
  C   C1041     1.0  0.51049  0.99710  0.46902  1.0000
  C   C1042     1.0  0.51210  0.79306  0.35643  1.0000
  H   H828      1.0  0.51802  0.80384  0.17841  1.0000
  C   C1043     1.0  0.50040  0.75264  0.17595  1.0000
  H   H829      1.0  0.50026  0.94056  0.35593  1.0000
  H   H830      1.0  0.65311  0.99423  0.32387  1.0000
  H   H831      1.0  0.55828  0.95720  0.47538  1.0000
  C   C1044     1.0  0.61915  0.89168  0.48134  1.0000
  H   H832      1.0  0.61065  0.87271  0.49758  1.0000
  S   S140      1.0  0.50314  0.90612  0.48319  1.0000
  H   H833      1.0  0.49967  0.67575  0.42254  1.0000
  C   C1045     1.0  0.55453  0.98210  0.34873  1.0000
  C   C1046     1.0  0.54501  0.98842  0.38722  1.0000
  H   H834      1.0  0.50807  0.68164  0.50498  1.0000
  C   C1047     1.0  0.56992  0.95669  0.50340  1.0000
  H   H835      1.0  0.49806  0.77296  0.03746  1.0000
  C   C1048     1.0  0.49746  0.69054  0.44034  1.0000
  H   H836      1.0  0.57027  0.75519  0.50664  1.0000
  S   S141      1.0  0.55843  0.68698  0.65925  1.0000
  H   H837      1.0  0.54444  0.72537  0.71259  1.0000
  Fe  Fe72      1.0  0.54535  0.70315  0.60075  1.0000
  S   S142      1.0  0.54789  0.74363  0.59943  1.0000
  H   H838      1.0  0.56449  0.93953  0.61488  1.0000
  C   C1049     1.0  0.55080  0.76626  0.55559  1.0000
  C   C1050     1.0  0.54161  0.78370  0.56391  1.0000
  C   C1051     1.0  0.52981  0.79951  0.70891  1.0000
  H   H839      1.0  0.53217  0.78253  0.59586  1.0000
  C   C1052     1.0  0.67507  0.95634  0.57367  1.0000
  C   C1053     1.0  0.66231  0.98600  0.60509  1.0000
  C   C1054     1.0  0.51251  0.78093  0.81641  1.0000
  C   C1055     1.0  0.56716  0.82505  0.66065  1.0000
  H   H840      1.0  0.67519  0.94425  0.54626  1.0000
  H   H841      1.0  0.59203  0.80887  0.64921  1.0000
  C   C1056     1.0  0.53783  0.78112  0.71597  1.0000
  P   P35       1.0  0.51717  0.75145  0.74728  1.0000
  C   C1057     1.0  0.68987  0.95935  0.61268  1.0000
  C   C1058     1.0  0.56174  0.71761  0.77035  1.0000
  H   H842      1.0  0.50075  0.67809  0.85551  1.0000
  H   H843      1.0  0.65222  0.99691  0.60208  1.0000
  C   C1059     1.0  0.66064  0.96914  0.57014  1.0000
  C   C1060     1.0  0.55358  0.73043  0.84360  1.0000
  H   H844      1.0  0.55565  0.73117  0.88026  1.0000
  C   C1061     1.0  0.49922  0.71252  0.51054  1.0000
  C   C1062     1.0  0.56479  0.71902  0.81751  1.0000
  H   H845      1.0  0.56662  0.77055  0.69703  1.0000
  H   H846      1.0  0.53865  0.94310  0.55181  1.0000
  H   H847      1.0  0.51183  0.67237  0.77648  1.0000
  C   C1063     1.0  0.54724  0.72736  0.74915  1.0000
  C   C1064     1.0  0.49931  0.78592  0.85065  1.0000
  C   C1065     1.0  0.56047  0.78481  0.69430  1.0000
  C   C1066     1.0  0.53626  0.73930  0.77500  1.0000
  S   S143      1.0  0.55708  0.68334  0.54846  1.0000
  C   C1067     1.0  0.54479  0.80289  0.53161  1.0000
  C   C1068     1.0  0.55883  0.94858  0.54643  1.0000
  H   H848      1.0  0.57028  0.70852  0.75035  1.0000
  H   H849      1.0  0.57824  0.84167  0.63858  1.0000
  H   H850      1.0  0.70082  0.94928  0.61536  1.0000
  H   H851      1.0  0.57561  0.71099  0.83385  1.0000
  H   H852      1.0  0.53076  0.74901  0.84377  1.0000
  C   C1069     1.0  0.57506  0.80670  0.66689  1.0000
  H   H853      1.0  0.60958  0.94961  0.60170  1.0000
  C   C1070     1.0  0.59907  0.95248  0.57436  1.0000
  H   H854      1.0  0.53785  0.81619  0.53912  1.0000
  C   C1071     1.0  0.54454  0.82147  0.68169  1.0000
  C   C1072     1.0  0.57340  0.94652  0.58191  1.0000
  H   H855      1.0  0.62242  0.91203  0.54341  1.0000
  C   C1073     1.0  0.53942  0.74058  0.82254  1.0000
  H   H856      1.0  0.53298  0.79466  0.81087  1.0000
  S   S144      1.0  0.50409  0.66972  0.60404  1.0000
  H   H857      1.0  0.53816  0.83546  0.67616  1.0000
  H   H858      1.0  0.51189  0.79668  0.72366  1.0000
  H   H859      1.0  0.49925  0.75401  0.65467  1.0000
  C   C1074     1.0  0.67713  0.98899  0.64404  1.0000
  C   C1075     1.0  0.69080  0.97556  0.64794  1.0000
  C   C1076     1.0  0.49948  0.75814  0.79006  1.0000
  C   C1077     1.0  0.62592  0.91399  0.50714  1.0000
  C   C1078     1.0  0.61045  0.96107  0.53135  1.0000
  H   H860      1.0  0.50288  0.71484  0.54677  1.0000
  P   P36       1.0  0.64256  0.96658  0.51916  1.0000
  H   H861      1.0  0.50310  0.75131  0.97092  1.0000
  H   H862      1.0  0.50944  0.80343  0.87113  1.0000
  C   C1079     1.0  0.50506  0.99756  0.51539  1.0000
  H   H863      1.0  0.55281  0.99490  0.51353  1.0000
  H   H864      1.0  0.70237  0.97795  0.67806  1.0000
  C   C1080     1.0  0.56294  0.76822  0.51383  1.0000
