data_image0
_chemical_formula_structural       HFeS2FeS2Fe2S3FeHFeS2FeS3FeS2FeS2FeSFeCS2FeSFeS2FeSFeS3C6H4C6PHC7H4CH2CHC5H2C6H5C7H4C4HCHC9H9CHCHC3HCPC4HC9HCH2C7HC6PC18H18CHC3H3C3PC14HC2H6CH6CH3CHSHC3H2C2H2C2H2PH2C3HCHC2HFeHC3H3CHC2H2C6H3CH2SH2C2HC4H2C2H4CH2CH3C4HC3H2C2H3C3H2CH2C3H2C2HPCHCH6CH2C2HSC3H4C2HCH2CH3C2PH2CHCHC3H4CH2CH4CHCH2FeS2FeSCFeSFeS3FeS2FeS2FeSFeS2H2C2HC6H4C6H4C2HC10H4C6H4C3H2CH3CHC2H2SCHC2HPCH2C3H4CHC2PH2C3H2PC6HCHC2H6CH2CHCH2C3PC18HCH19CHC2H2C3HCHCSC5HC2HC3H2CHC2HCHCHCHCHC2HCHCH3C2H2CHC3HC2H2C3H2C4H3C3HCSH2C2H2C2H2C4H2C4PC4HC4H5CHCH2CH3CHC5HC2HCPC2HCS2H6CH2FeS2FeS2Fe2S3FeSHFeS2Fe2S3FeHSFeCFeCS2FeS2FeS2FeSFeS2HC6H4C6H4C6H2CHC6HCH2C6H4CH2C6H4C5H2C6PC18H11CH4CH3CH2C2HC2H2SHCH2C7PC20H18C6PC16H6CH11C2HC2H3CH8C9PC15H2C2H5CH4CH4CHCH2CH3C3HPC3H6S2HCH2CH5CHC4H2SH9CHCHC4SFeS2CSFeSFeS3FeSFeS2FeSFeS3CHS2C9HCHC6H4C6H4C6H4C2HCHCH2C5H4C3H2CHC3HC2HC3H4CHCHC3H3C2HCPC2H3CHC2SC4H4CH3C2HC2HCSHCH2PCHCHC5HC3HPHC3H2CSC2H2C4H4CH4CHC4H2CH2CHC2HC2HC5H4CH2CH3C3H2C2H3CH2C2H2C3H2C8HC2PC3H2C4HCH2CPC6H5C4H4C3H4C2H3C4HFeH4C2HCHCHCFeHC3HCHPHCHC2FeSFeS2FeSFeS3Fe2S2FeCS2FeS2FeSFeSFeS3FeS2FeSCFeSFeHS3C6H4CH2C11H4C6H4C6HCH2C3HCHC3HPH3C6PC4H2C12H17CH4C2HCSHCH2C4HCH6CHCHC7H2CH3CH2CH2CHCHCH3C2HC3H2SCHCH3C4H2CHC4HC5HC2HC6PC18HCH19C5H4C5SH2CHPC4HCHC2HCHPC2HCH5C4HCH2CSHCHCH2C5HPH2C2HC2PCH3C3HC2HC2HC7H2CHCHCH4CHC3H2CSC2H4CH3C3HCHCFeC3H5C5HCH4C4HC3H2C3H3C3HC3PSFeS2FeSFeS3FeS2FeS2FeSFeS2C2SH2C7H2CHCH2CHCHC6HCH2C7H4C5SH2C7H4C7PC6FeCHC7H8CH4CH3C3HCH3CHCH3CHCHCHC4SHC3HC3H2CHC2H2CH4C2HC2HCHCH2CH6C3PHC5H3CH4CH2C7H3CH3CHCHCHC2HCH6CHPC3H3C8PHCH6C3HC2H4CFeS2CSFeSFeS3FeS2FeS2Fe2S4FeSCFeSFeSFeSFeS2FeSFeS4CSHC3H2C6H4C6H4CSC7H4C6H4C6H4C3HCHC6HCH2CHC2H7CHC2H4CHC2H2C2H2CH3C2H3PC3H3CH3CHCSHC2H3CH5C2HC3H3C3H3SCH4C5HC5H3C6PC18H6CH5FeCH6C8PC4HCH6C2HC2HC5HCH3CHC4HC3PC3HC6H2C2H3C4HCH2CHC4HC4HCHCHCHSHC4H2CHC2HC6H5CH3CHC2PC7H3C5HPC2H2FePH2CH3CH2CH3C4HSFeS2CSFeSFeS3FeS2FeS2CFeS3H3CHPC8HCH2C6H4C5FeHC3HC2H2CHC6H2CHC6H4C6PC2H4CH3CH2CH3C2H5CHCH2CHCH2C2HCHC2HCHCHCHFeCH2C2HC3HC2HC5H3C4H2C4H2CHC5H2C4HCH2C3PCH3CH5CHSCHCHCHC2H2C2H2PC8H3C2H2C3HCH2C3H3CHCSHCHCHC3HCH4C2SC2SC2H2CH2C2H4CHPH2C2H2C3HC2HCFeSFeS2FeSFeS3FeS2FeS2Fe2S3C4SC3HC2HCHC6HCH2C2H2C3HSC2HC2HC6HCH2C7H3C3H3PC10H2CH3C2H6CSHCHC2SC4PC2H2CH4CH2C6HCHCHCHC2HCHC2H6CHCH5CH4PH2C4HCH6CH2C2H3C5H3C5SH3CHC5H2CH3C2HC4H5CH2C2H2CH5C4SC2HCH3CHPC2HC9HCH4C3HFeS2FeS2FeSFeS2FeS2FeS2FeSFeS2FeS2FeS2FeSFeS3HSCSHFeHFeS2HC4H2C3HC6H4C6H4CH2CHC4SC3H2C6H4C6H3C2HC2H3CHC2HCHC5HC2HC2H3CH4CH7C6PC18H21C2H2C2H2C3HCH4C4H3CSC2H2CHPC2HC13HCH4C4HCHCH2C3HCH3C2HCH2CHCH6CH3CPH2CHC2HCH2C2HC4H2CH3CPH2C2HCFeCHCHC4PC10HCH2CHCH3CHC5HCHCFeCHCHCH3CH2CFeS2FeSFeSFeS3FeS2FeS2Fe2S3C2SCHCHC3H3C2H4C7H4C6H5C4H5C6H4CHCH3CH3C2HC3HC5H2C3PCHC8HCPC2HCHPCHC2HC5H2SHCHC2PHPHCHCH5C3HC2SHC3HC7H2CH2CHC3HCH2CHCH2C2HC2H2C5HC5HCH3C2HCH2C2H2CH2CHC4HCHPC2HC3HC5HSH3CHC2HSCHC3HCHCHC2PHCH2CH2CHC2HC2H2CHCH5C2HCH3CH2C2H2C2SHCHCHCHC2HFeSFeS2FeSFeS3FeSCFeS2FeSCS2FeSHCSFeHFeS2FeS2FeSFeSFeS3HSC7H4C6H4C4HCH2CHC6H2CHC3HC2H4C6H8C7H5CH2C7H4CH2C2HC3H4CH2C5HCHCHCH4CH3CPCH2C2HCHC2H2CH2C4HCH2C2HCSC5HCHCH2FeH2SH6C5H2CHCH2C2HC3FeSC2H2CHC4PC3HC3HPHC6H4CH2C2H5CH2C3PC13HPC4HCH13C2HC6PC4HC4HC2H10C2HC2HC2PHC3HC3H3C2H2C4HCHCH2CH3C4HCH3CH2CSHSFeS2FeSFeSFeS3FeS2FeS2Fe2S3HSC7H4C2H3C6H4C2H2C2H4C6H4C6H5FeHCH7CH5C6HC5H2CHCHC2H2C2H3CHC2HCHC3H8CHC4PC16H2CH2CH4C2H2C6PC8HCH5CHCH2C3H5CHCHC2HC4HCH5CHC12HPH3SH6PHCHC2HC2HCHCHC2HC3H3CH2CH2CH2CHCHC3HC5HCSFeS2FeS2Fe2S3FeSHFeS2FeSFeCS2FeSFeS2FeSFeS3FeS2FeH2CS2C6H4C6H4C6H3C6H5C3HC6H4C8H3FeC3SHC7PC3H2C4H2C7H2CH3CH5C2H7C3HCH3CHC2H3CPH2CH2C3HCH3C5PC2H2CHC13HCH2SHC3H10C6PC14HCH10SH7C3HCPC5H2C5HSCH2CH6C2PH2SC8HC9H2C2H2CHCPCHC2HC3H3PCH3CSCH2C3H3CH2CHCH3C4HC5HC4H2CHPHCHC2H2CH3CHC3H2CHCHCH7C6HCH4C2SHFeS2FeS2HFeS3H2FeS2FeSFeS3H3C7H4CSCH2C3H2CH2CHC7H3C6H3C7H4C6PC8HCHC4H6C2H5CH2CH4CHC3H2C7H2PC4SCHC2HC3H2C2HC2HCHC2SHCHC2H2C2HCH3CHCFeCHCHC2HFeC2HC2H2CHCH2C3HCH2C2SH2CH4CPHC3H2CH5CHC2H2CH2CH3C4HCHCHCHC4H2CPHC2HC3HSFeSFeS2FeSFeS3CSFeS2FeHFeS3FeS2FeH2CS2FeS2FeS2Fe2S3C6H4C4H5C7H4CHSCHC6H4C6H4C6H4CHC4H2CHC3H3C4HCH7C2HCHC6PC12H2CHC2H4CH12C7H4C2H2C4HCPH2P2CHPHC4H2CH4CHCH2C3HC2HC5HC4H3C2HCH2CHCH2C5H3C3H2CPCHCH2CHCHC2H2C3H2FeH2C2HCH4CH2FeH4C2HCHC5H2C4HC7H2CHC5HCPC2HC4HC3H2C3HC8SC3HC2H2CHCHC5HCHCHCH6CSC5H3FeH2CH2CHCH2PH2SCH5CH5C3H4C2
_chemical_formula_sum              "H2304 Fe192 S384 C2880 P96"
_cell_length_a       59.3808
_cell_length_b       59.562
_cell_length_c       59.5633
_cell_angle_alpha    88.4852
_cell_angle_beta     88.9315
_cell_angle_gamma    88.5997

_space_group_name_H-M_alt    "P 1"
_space_group_IT_number       1

loop_
  _space_group_symop_operation_xyz
  'x, y, z'

loop_
  _atom_site_type_symbol
  _atom_site_label
  _atom_site_symmetry_multiplicity
  _atom_site_fract_x
  _atom_site_fract_y
  _atom_site_fract_z
  _atom_site_occupancy
  H   H1        1.0  0.19355  0.08410  0.12662  1.0000
  Fe  Fe1       1.0  0.39983  0.40571  0.08794  1.0000
  S   S1        1.0  0.40300  0.43669  0.06629  1.0000
  S   S2        1.0  0.42735  0.39614  0.11270  1.0000
  Fe  Fe2       1.0  0.35188  0.39748  0.07191  1.0000
  S   S3        1.0  0.35179  0.42830  0.04871  1.0000
  S   S4        1.0  0.32208  0.37532  0.08238  1.0000
  Fe  Fe3       1.0  0.38720  0.41704  0.03935  1.0000
  Fe  Fe4       1.0  0.36767  0.44599  0.07736  1.0000
  S   S5        1.0  0.36232  0.48344  0.08416  1.0000
  S   S6        1.0  0.38636  0.38497  0.06053  1.0000
  S   S7        1.0  0.36553  0.41625  0.10112  1.0000
  Fe  Fe5       1.0  0.07284  0.18501  0.21912  1.0000
  H   H2        1.0  0.38819  0.37108  0.13208  1.0000
  Fe  Fe6       1.0  0.09166  0.22832  0.19823  1.0000
  S   S8        1.0  0.11108  0.23651  0.22869  1.0000
  S   S9        1.0  0.08957  0.25278  0.16869  1.0000
  Fe  Fe7       1.0  0.12031  0.19970  0.22948  1.0000
  S   S10       1.0  0.05582  0.15150  0.21328  1.0000
  S   S11       1.0  0.10335  0.19234  0.19726  1.0000
  S   S12       1.0  0.05977  0.22083  0.21786  1.0000
  Fe  Fe8       1.0  0.27631  0.07575  0.20419  1.0000
  S   S13       1.0  0.24845  0.05369  0.21734  1.0000
  S   S14       1.0  0.31267  0.07560  0.21737  1.0000
  Fe  Fe9       1.0  0.24745  0.09280  0.16442  1.0000
  S   S15       1.0  0.21762  0.07256  0.17513  1.0000
  S   S16       1.0  0.24438  0.11123  0.13088  1.0000
  Fe  Fe10      1.0  0.22551  0.08350  0.20973  1.0000
  S   S17       1.0  0.19680  0.09196  0.23368  1.0000
  Fe  Fe11      1.0  0.24264  0.04456  0.18140  1.0000
  C   C1        1.0  0.49438  0.40919  0.18374  1.0000
  S   S18       1.0  0.25346  0.10626  0.19864  1.0000
  S   S19       1.0  0.27229  0.06396  0.16863  1.0000
  Fe  Fe12      1.0  0.21056  0.23186  0.05188  1.0000
  S   S20       1.0  0.20497  0.26930  0.04969  1.0000
  Fe  Fe13      1.0  0.23674  0.23455  0.09571  1.0000
  S   S21       1.0  0.23297  0.27211  0.09679  1.0000
  S   S22       1.0  0.25353  0.21702  0.12540  1.0000
  Fe  Fe14      1.0  0.19727  0.26635  0.08686  1.0000
  S   S23       1.0  0.16775  0.28551  0.10219  1.0000
  Fe  Fe15      1.0  0.24134  0.27198  0.05992  1.0000
  S   S24       1.0  0.26611  0.29557  0.04172  1.0000
  S   S25       1.0  0.20044  0.22900  0.08851  1.0000
  S   S26       1.0  0.24761  0.23436  0.05940  1.0000
  C   C2        1.0  0.25003  0.18774  0.12689  1.0000
  C   C3        1.0  0.24827  0.17546  0.10736  1.0000
  C   C4        1.0  0.24653  0.15198  0.10884  1.0000
  C   C5        1.0  0.24619  0.14072  0.12982  1.0000
  C   C6        1.0  0.24729  0.15308  0.14939  1.0000
  C   C7        1.0  0.24915  0.17655  0.14789  1.0000
  H   H3        1.0  0.24874  0.18399  0.09110  1.0000
  H   H4        1.0  0.24575  0.14251  0.09365  1.0000
  H   H5        1.0  0.24671  0.14461  0.16564  1.0000
  H   H6        1.0  0.24938  0.18607  0.16302  1.0000
  C   C8        1.0  0.16558  0.16290  0.23200  1.0000
  C   C9        1.0  0.15642  0.14611  0.24596  1.0000
  C   C10       1.0  0.16613  0.12437  0.24627  1.0000
  C   C11       1.0  0.18462  0.11917  0.23219  1.0000
  C   C12       1.0  0.19311  0.13570  0.21746  1.0000
  C   C13       1.0  0.18374  0.15760  0.21756  1.0000
  P   P1        1.0  0.36405  0.29715  0.07955  1.0000
  H   H7        1.0  0.40287  0.48797  0.05560  1.0000
  C   C14       1.0  0.18000  0.07296  0.12278  1.0000
  C   C15       1.0  0.14713  0.27493  0.12122  1.0000
  C   C16       1.0  0.14824  0.25327  0.13119  1.0000
  C   C17       1.0  0.13092  0.24611  0.14621  1.0000
  C   C18       1.0  0.11248  0.26054  0.15102  1.0000
  C   C19       1.0  0.11145  0.28190  0.14078  1.0000
  C   C20       1.0  0.12872  0.28911  0.12623  1.0000
  H   H8        1.0  0.16237  0.24213  0.12735  1.0000
  H   H9        1.0  0.13174  0.22950  0.15389  1.0000
  H   H10       1.0  0.09720  0.29306  0.14416  1.0000
  H   H11       1.0  0.12764  0.30576  0.11855  1.0000
  C   C21       1.0  0.46717  0.42743  0.15907  1.0000
  H   H12       1.0  0.45990  0.44010  0.04725  1.0000
  H   H13       1.0  0.31346  0.26798  0.13982  1.0000
  C   C22       1.0  0.34809  0.49588  0.10741  1.0000
  H   H14       1.0  0.18447  0.07708  0.08698  1.0000
  C   C23       1.0  0.06945  0.30753  0.24928  1.0000
  C   C24       1.0  0.31568  0.27095  0.12193  1.0000
  C   C25       1.0  0.32617  0.49369  0.14233  1.0000
  C   C26       1.0  0.33754  0.48304  0.12436  1.0000
  C   C27       1.0  0.03494  0.17128  0.06237  1.0000
  H   H15       1.0  0.31783  0.48359  0.15520  1.0000
  H   H16       1.0  0.33789  0.46491  0.12349  1.0000
  C   C28       1.0  0.30679  0.35322  0.07055  1.0000
  C   C29       1.0  0.29263  0.34025  0.08470  1.0000
  C   C30       1.0  0.28004  0.32264  0.07621  1.0000
  C   C31       1.0  0.28144  0.31774  0.05337  1.0000
  C   C32       1.0  0.29559  0.33071  0.03921  1.0000
  C   C33       1.0  0.30801  0.34845  0.04769  1.0000
  H   H17       1.0  0.29135  0.34388  0.10237  1.0000
  H   H18       1.0  0.26926  0.31287  0.08733  1.0000
  H   H19       1.0  0.29739  0.13131  0.23377  1.0000
  H   H20       1.0  0.31826  0.35865  0.03649  1.0000
  H   H21       1.0  0.18285  0.02052  0.17050  1.0000
  C   C34       1.0  0.07384  0.33979  0.22415  1.0000
  C   C35       1.0  0.49198  0.37232  0.11250  1.0000
  C   C36       1.0  0.47100  0.38176  0.11898  1.0000
  C   C37       1.0  0.45332  0.38393  0.10371  1.0000
  C   C38       1.0  0.45656  0.37594  0.08198  1.0000
  C   C39       1.0  0.47738  0.36588  0.07567  1.0000
  C   C40       1.0  0.15003  0.14180  0.02540  1.0000
  H   H22       1.0  0.46853  0.38753  0.13587  1.0000
  H   H23       1.0  0.44301  0.37743  0.07009  1.0000
  H   H24       1.0  0.47976  0.35969  0.05886  1.0000
  H   H25       1.0  0.23032  0.28741  0.20406  1.0000
  C   C41       1.0  0.33518  0.28112  0.11346  1.0000
  C   C42       1.0  0.36100  0.33124  0.04647  1.0000
  C   C43       1.0  0.37193  0.31953  0.09753  1.0000
  C   C44       1.0  0.22545  0.29025  0.18678  1.0000
  H   H26       1.0  0.08891  0.06902  0.11291  1.0000
  C   C45       1.0  0.23908  0.24056  0.20997  1.0000
  H   H27       1.0  0.11884  0.09622  0.05209  1.0000
  C   C46       1.0  0.19494  0.20550  0.14607  1.0000
  C   C47       1.0  0.17698  0.19247  0.15366  1.0000
  C   C48       1.0  0.16439  0.19885  0.17258  1.0000
  C   C49       1.0  0.16964  0.21836  0.18376  1.0000
  C   C50       1.0  0.18777  0.23147  0.17634  1.0000
  C   C51       1.0  0.20060  0.22472  0.15756  1.0000
  C   C52       1.0  0.21148  0.29971  0.14295  1.0000
  C   C53       1.0  0.22757  0.31302  0.15253  1.0000
  C   C54       1.0  0.23450  0.30836  0.17449  1.0000
  H   H28       1.0  0.20483  0.20042  0.13154  1.0000
  H   H29       1.0  0.17312  0.17725  0.14511  1.0000
  H   H30       1.0  0.15085  0.18846  0.17893  1.0000
  H   H31       1.0  0.18854  0.22735  0.23428  1.0000
  H   H32       1.0  0.21515  0.23407  0.15193  1.0000
  H   H33       1.0  0.24636  0.24839  0.19501  1.0000
  H   H34       1.0  0.20562  0.30368  0.12613  1.0000
  H   H35       1.0  0.23438  0.32713  0.14298  1.0000
  H   H36       1.0  0.24659  0.31902  0.18207  1.0000
  C   C55       1.0  0.49725  0.48226  0.12613  1.0000
  H   H37       1.0  0.19075  0.17054  0.20662  1.0000
  C   C56       1.0  0.40894  0.46581  0.12518  1.0000
  H   H38       1.0  0.22018  0.03561  0.13312  1.0000
  C   C57       1.0  0.36572  0.13694  0.24349  1.0000
  C   C58       1.0  0.49117  0.30830  0.12347  1.0000
  C   C59       1.0  0.17415  0.02741  0.18502  1.0000
  H   H39       1.0  0.34700  0.47255  0.01666  1.0000
  C   C60       1.0  0.10955  0.20405  0.04917  1.0000
  P   P2        1.0  0.47798  0.45920  0.12548  1.0000
  C   C61       1.0  0.36557  0.13379  0.22033  1.0000
  C   C62       1.0  0.13458  0.15790  0.03343  1.0000
  C   C63       1.0  0.08226  0.07402  0.16772  1.0000
  C   C64       1.0  0.14585  0.04340  0.11298  1.0000
  H   H40       1.0  0.49113  0.41199  0.04401  1.0000
  C   C65       1.0  0.07468  0.39200  0.25171  1.0000
  C   C66       1.0  0.44932  0.46962  0.12981  1.0000
  C   C67       1.0  0.44488  0.48802  0.14366  1.0000
  C   C68       1.0  0.16805  0.06218  0.14022  1.0000
  C   C69       1.0  0.17489  0.06900  0.10045  1.0000
  C   C70       1.0  0.14049  0.04255  0.20328  1.0000
  C   C71       1.0  0.43108  0.45827  0.12106  1.0000
  C   C72       1.0  0.30171  0.26869  0.08424  1.0000
  C   C73       1.0  0.51163  0.42114  0.17301  1.0000
  H   H41       1.0  0.29675  0.32716  0.02151  1.0000
  C   C74       1.0  0.10423  0.06500  0.16668  1.0000
  H   H42       1.0  0.01847  0.18149  0.19882  1.0000
  H   H43       1.0  0.45840  0.49665  0.15134  1.0000
  C   C75       1.0  0.03711  0.14844  0.06812  1.0000
  C   C76       1.0  0.24267  0.16700  0.22533  1.0000
  C   C77       1.0  0.47139  0.43741  0.06104  1.0000
  C   C78       1.0  0.15136  0.03419  0.18396  1.0000
  C   C79       1.0  0.40542  0.27923  0.06501  1.0000
  C   C80       1.0  0.40257  0.24004  0.09168  1.0000
  C   C81       1.0  0.11108  0.22633  0.08276  1.0000
  H   H44       1.0  0.07911  0.09059  0.17445  1.0000
  C   C82       1.0  0.09862  0.08185  0.10422  1.0000
  C   C83       1.0  0.10315  0.08042  0.08118  1.0000
  C   C84       1.0  0.11543  0.09718  0.06999  1.0000
  C   C85       1.0  0.12325  0.11529  0.08186  1.0000
  C   C86       1.0  0.11912  0.11664  0.10510  1.0000
  C   C87       1.0  0.10646  0.09995  0.11611  1.0000
  P   P3        1.0  0.12846  0.14052  0.12023  1.0000
  C   C88       1.0  0.13335  0.13170  0.14920  1.0000
  C   C89       1.0  0.15344  0.15059  0.10564  1.0000
  C   C90       1.0  0.15356  0.17215  0.09546  1.0000
  C   C91       1.0  0.17203  0.17892  0.08230  1.0000
  C   C92       1.0  0.19076  0.16458  0.07958  1.0000
  C   C93       1.0  0.19070  0.14303  0.08936  1.0000
  C   C94       1.0  0.17191  0.13588  0.10184  1.0000
  C   C95       1.0  0.11548  0.13310  0.16505  1.0000
  C   C96       1.0  0.11839  0.12539  0.18719  1.0000
  C   C97       1.0  0.13904  0.11587  0.19370  1.0000
  C   C98       1.0  0.15695  0.11453  0.17824  1.0000
  C   C99       1.0  0.15424  0.12260  0.15616  1.0000
  C   C100      1.0  0.10659  0.16212  0.12104  1.0000
  C   C101      1.0  0.08534  0.15868  0.11195  1.0000
  C   C102      1.0  0.06793  0.17470  0.11466  1.0000
  C   C103      1.0  0.07164  0.19424  0.12636  1.0000
  C   C104      1.0  0.09273  0.19777  0.13538  1.0000
  C   C105      1.0  0.11014  0.18178  0.13285  1.0000
  H   H45       1.0  0.14449  0.05250  0.23755  1.0000
  H   H46       1.0  0.09704  0.06642  0.07198  1.0000
  H   H47       1.0  0.13250  0.12823  0.07287  1.0000
  H   H48       1.0  0.10249  0.10103  0.13381  1.0000
  H   H49       1.0  0.13931  0.18368  0.09696  1.0000
  H   H50       1.0  0.17178  0.19525  0.07390  1.0000
  H   H51       1.0  0.20518  0.17016  0.06961  1.0000
  H   H52       1.0  0.20518  0.13181  0.08713  1.0000
  H   H53       1.0  0.17170  0.11870  0.10806  1.0000
  H   H54       1.0  0.09915  0.14013  0.16048  1.0000
  H   H55       1.0  0.10461  0.12697  0.19934  1.0000
  H   H56       1.0  0.14126  0.10976  0.21082  1.0000
  H   H57       1.0  0.17309  0.10748  0.18354  1.0000
  H   H58       1.0  0.16863  0.12169  0.14492  1.0000
  H   H59       1.0  0.08190  0.14342  0.10336  1.0000
  H   H60       1.0  0.07456  0.35771  0.22097  1.0000
  H   H61       1.0  0.09539  0.21272  0.14479  1.0000
  H   H62       1.0  0.12621  0.18458  0.14050  1.0000
  C   C106      1.0  0.07310  0.17073  0.04678  1.0000
  H   H63       1.0  0.39498  0.45716  0.11808  1.0000
  C   C107      1.0  0.17290  0.26775  0.20654  1.0000
  C   C108      1.0  0.02940  0.40593  0.25046  1.0000
  C   C109      1.0  0.40048  0.34266  0.11345  1.0000
  H   H64       1.0  0.35977  0.27520  0.03651  1.0000
  H   H65       1.0  0.05441  0.03107  0.14507  1.0000
  H   H66       1.0  0.22711  0.17640  0.22243  1.0000
  C   C110      1.0  0.26224  0.17283  0.21339  1.0000
  C   C111      1.0  0.28250  0.16066  0.21679  1.0000
  C   C112      1.0  0.28248  0.14197  0.23176  1.0000
  P   P4        1.0  0.30791  0.16797  0.20119  1.0000
  C   C113      1.0  0.30880  0.19829  0.19736  1.0000
  C   C114      1.0  0.33157  0.15721  0.21733  1.0000
  C   C115      1.0  0.34859  0.14389  0.20726  1.0000
  C   C116      1.0  0.32327  0.21106  0.21005  1.0000
  C   C117      1.0  0.32376  0.23444  0.20694  1.0000
  C   C118      1.0  0.30990  0.24527  0.19109  1.0000
  C   C119      1.0  0.29552  0.23274  0.17833  1.0000
  C   C120      1.0  0.29493  0.20944  0.18150  1.0000
  C   C121      1.0  0.30734  0.15408  0.17457  1.0000
  C   C122      1.0  0.30213  0.13125  0.17418  1.0000
  C   C123      1.0  0.30035  0.12053  0.15372  1.0000
  C   C124      1.0  0.30378  0.13244  0.13350  1.0000
  C   C125      1.0  0.30990  0.15491  0.13373  1.0000
  C   C126      1.0  0.31213  0.16559  0.15417  1.0000
  H   H67       1.0  0.45480  0.46183  0.08172  1.0000
  C   C127      1.0  0.02848  0.14668  0.20276  1.0000
  C   C128      1.0  0.49886  0.26903  0.13268  1.0000
  H   H68       1.0  0.26128  0.18673  0.20147  1.0000
  H   H69       1.0  0.49292  0.25204  0.13395  1.0000
  H   H70       1.0  0.34850  0.14070  0.18946  1.0000
  H   H71       1.0  0.33435  0.20310  0.22223  1.0000
  H   H72       1.0  0.33503  0.24414  0.21675  1.0000
  H   H73       1.0  0.31038  0.26335  0.18863  1.0000
  C   C129      1.0  0.36030  0.33947  0.02428  1.0000
  H   H74       1.0  0.28385  0.20011  0.17119  1.0000
  H   H75       1.0  0.29941  0.12169  0.18967  1.0000
  H   H76       1.0  0.29581  0.10308  0.15346  1.0000
  H   H77       1.0  0.30143  0.12427  0.11770  1.0000
  H   H78       1.0  0.31251  0.16416  0.11803  1.0000
  H   H79       1.0  0.31737  0.18283  0.15379  1.0000
  C   C130      1.0  0.47218  0.41228  0.17672  1.0000
  H   H80       1.0  0.15394  0.26984  0.17598  1.0000
  H   H81       1.0  0.14027  0.24694  0.08528  1.0000
  H   H82       1.0  0.20722  0.13178  0.20637  1.0000
  C   C131      1.0  0.15132  0.04682  0.13544  1.0000
  H   H83       1.0  0.07919  0.33232  0.18915  1.0000
  S   S27       1.0  0.15698  0.19111  0.23501  1.0000
  H   H84       1.0  0.05809  0.20653  0.12883  1.0000
  C   C132      1.0  0.20992  0.27626  0.17692  1.0000
  C   C133      1.0  0.20272  0.28136  0.15502  1.0000
  C   C134      1.0  0.06882  0.41362  0.24375  1.0000
  H   H85       1.0  0.26299  0.12192  0.25531  1.0000
  H   H86       1.0  0.27140  0.22999  0.22297  1.0000
  C   C135      1.0  0.10831  0.04323  0.15879  1.0000
  C   C136      1.0  0.13549  0.28483  0.20321  1.0000
  H   H87       1.0  0.19005  0.27148  0.14732  1.0000
  H   H88       1.0  0.15984  0.22291  0.19852  1.0000
  C   C137      1.0  0.25331  0.22992  0.22564  1.0000
  C   C138      1.0  0.14154  0.22776  0.05528  1.0000
  H   H89       1.0  0.40143  0.22483  0.10197  1.0000
  H   H90       1.0  0.05137  0.17178  0.10819  1.0000
  P   P5        1.0  0.19694  0.25402  0.19334  1.0000
  H   H91       1.0  0.20286  0.02462  0.09745  1.0000
  H   H92       1.0  0.28856  0.26419  0.07292  1.0000
  C   C139      1.0  0.07528  0.30222  0.20943  1.0000
  C   C140      1.0  0.13178  0.23480  0.07545  1.0000
  C   C141      1.0  0.48221  0.44469  0.09933  1.0000
  H   H93       1.0  0.32234  0.28240  0.05780  1.0000
  C   C142      1.0  0.21562  0.24065  0.21348  1.0000
  H   H94       1.0  0.04727  0.06873  0.16098  1.0000
  C   C143      1.0  0.13562  0.29044  0.22584  1.0000
  C   C144      1.0  0.15411  0.27367  0.19360  1.0000
  H   H95       1.0  0.12094  0.28892  0.19304  1.0000
  Fe  Fe16      1.0  0.08042  0.22666  0.24867  1.0000
  H   H96       1.0  0.02311  0.13983  0.07619  1.0000
  C   C145      1.0  0.38365  0.35645  0.12285  1.0000
  C   C146      1.0  0.36101  0.35182  0.11971  1.0000
  C   C147      1.0  0.17321  0.27400  0.22912  1.0000
  H   H97       1.0  0.09055  0.13839  0.04904  1.0000
  H   H98       1.0  0.13840  0.20705  0.02675  1.0000
  H   H99       1.0  0.43383  0.44330  0.11138  1.0000
  C   C148      1.0  0.06835  0.04047  0.15120  1.0000
  H   H100      1.0  0.40805  0.31428  0.09323  1.0000
  C   C149      1.0  0.20661  0.22862  0.23198  1.0000
  C   C150      1.0  0.24421  0.21871  0.24449  1.0000
  H   H101      1.0  0.12110  0.29892  0.23331  1.0000
  H   H102      1.0  0.18787  0.27051  0.23925  1.0000
  C   C151      1.0  0.05287  0.18242  0.05180  1.0000
  C   C152      1.0  0.15451  0.28510  0.23877  1.0000
  C   C153      1.0  0.42155  0.24356  0.07792  1.0000
  C   C154      1.0  0.22085  0.21784  0.24751  1.0000
  C   C155      1.0  0.06431  0.06173  0.16007  1.0000
  C   C156      1.0  0.49524  0.36423  0.09083  1.0000
  H   H103      1.0  0.15767  0.23425  0.04966  1.0000
  H   H104      1.0  0.34793  0.36299  0.12627  1.0000
  H   H105      1.0  0.47982  0.32163  0.11753  1.0000
  C   C157      1.0  0.35516  0.33344  0.10712  1.0000
  H   H106      1.0  0.28482  0.24094  0.16582  1.0000
  H   H107      1.0  0.33751  0.33067  0.10416  1.0000
  S   S28       1.0  0.09099  0.18997  0.25163  1.0000
  H   H108      1.0  0.43430  0.47042  0.03378  1.0000
  H   H109      1.0  0.41803  0.34668  0.11548  1.0000
  C   C158      1.0  0.07645  0.32546  0.20598  1.0000
  C   C159      1.0  0.38434  0.49841  0.02629  1.0000
  H   H110      1.0  0.02086  0.17386  0.24755  1.0000
  C   C160      1.0  0.42267  0.49507  0.14831  1.0000
  C   C161      1.0  0.40471  0.48423  0.13878  1.0000
  C   C162      1.0  0.03519  0.38430  0.25846  1.0000
  C   C163      1.0  0.07522  0.14782  0.05279  1.0000
  H   H111      1.0  0.02684  0.31995  0.26293  1.0000
  H   H112      1.0  0.38747  0.48982  0.14213  1.0000
  C   C164      1.0  0.38500  0.25613  0.09217  1.0000
  C   C165      1.0  0.09995  0.21099  0.06969  1.0000
  H   H113      1.0  0.07103  0.27522  0.23374  1.0000
  H   H114      1.0  0.15392  0.05112  0.07823  1.0000
  H   H115      1.0  0.13775  0.16566  0.04924  1.0000
  H   H116      1.0  0.21367  0.20840  0.26159  1.0000
  C   C166      1.0  0.15770  0.05436  0.09555  1.0000
  H   H117      1.0  0.11803  0.07493  0.17227  1.0000
  H   H118      1.0  0.16510  0.13767  0.03481  1.0000
  C   C167      1.0  0.07009  0.33093  0.24599  1.0000
  H   H119      1.0  0.10361  0.23193  0.09847  1.0000
  H   H120      1.0  0.17216  0.06569  0.15737  1.0000
  H   H121      1.0  0.05082  0.20007  0.04717  1.0000
  C   C168      1.0  0.48436  0.43979  0.14845  1.0000
  C   C169      1.0  0.07191  0.29327  0.23108  1.0000
  C   C170      1.0  0.13056  0.21236  0.04231  1.0000
  C   C171      1.0  0.46829  0.44933  0.08084  1.0000
  H   H122      1.0  0.45882  0.40265  0.18465  1.0000
  C   C172      1.0  0.39469  0.32428  0.10079  1.0000
  C   C173      1.0  0.40274  0.48857  0.03740  1.0000
  C   C174      1.0  0.24304  0.14895  0.24075  1.0000
  H   H123      1.0  0.35814  0.07011  0.23305  1.0000
  H   H124      1.0  0.49474  0.18402  0.15444  1.0000
  C   C175      1.0  0.09027  0.03129  0.15039  1.0000
  C   C176      1.0  0.32520  0.08239  0.24339  1.0000
  H   H125      1.0  0.36134  0.34310  0.05990  1.0000
  H   H126      1.0  0.13283  0.03183  0.10899  1.0000
  H   H127      1.0  0.31888  0.17034  0.24884  1.0000
  C   C177      1.0  0.48900  0.42157  0.05915  1.0000
  C   C178      1.0  0.50671  0.43620  0.15530  1.0000
  C   C179      1.0  0.33207  0.16054  0.24061  1.0000
  H   H128      1.0  0.08390  0.20484  0.07564  1.0000
  H   H129      1.0  0.43773  0.26597  0.05400  1.0000
  C   C180      1.0  0.21727  0.01809  0.13007  1.0000
  H   H130      1.0  0.07696  0.29112  0.19532  1.0000
  H   H131      1.0  0.03300  0.11065  0.20470  1.0000
  C   C181      1.0  0.36092  0.30803  0.05114  1.0000
  C   C182      1.0  0.48395  0.28618  0.12545  1.0000
  C   C183      1.0  0.33817  0.28503  0.09022  1.0000
  H   H132      1.0  0.09301  0.01491  0.14324  1.0000
  H   H133      1.0  0.01925  0.18032  0.06593  1.0000
  C   C184      1.0  0.50017  0.42906  0.09705  1.0000
  C   C185      1.0  0.42298  0.26316  0.06462  1.0000
  H   H134      1.0  0.41935  0.50878  0.15956  1.0000
  P   P6        1.0  0.09543  0.18481  0.03138  1.0000
  C   C186      1.0  0.32110  0.27898  0.07569  1.0000
  H   H135      1.0  0.28382  0.25675  0.11378  1.0000
  C   C187      1.0  0.38625  0.27583  0.07876  1.0000
  H   H136      1.0  0.25523  0.21007  0.25636  1.0000
  H   H137      1.0  0.44993  0.42902  0.15349  1.0000
  H   H138      1.0  0.37847  0.12858  0.25374  1.0000
  H   H139      1.0  0.08185  0.42499  0.23808  1.0000
  H   H140      1.0  0.25753  0.51083  0.20968  1.0000
  H   H141      1.0  0.40687  0.29442  0.05469  1.0000
  C   C188      1.0  0.35982  0.29319  0.03327  1.0000
  H   H142      1.0  0.34801  0.28585  0.12500  1.0000
  H   H143      1.0  0.43515  0.23110  0.07757  1.0000
  C   C189      1.0  0.50633  0.49144  0.10607  1.0000
  C   C190      1.0  0.04620  0.42061  0.24319  1.0000
  H   H144      1.0  0.46683  0.28236  0.12123  1.0000
  S   S29       1.0  0.19698  0.20498  0.02919  1.0000
  C   C191      1.0  0.02161  0.12442  0.20026  1.0000
  C   C192      1.0  0.05727  0.13673  0.06340  1.0000
  C   C193      1.0  0.29899  0.26464  0.10730  1.0000
  H   H145      1.0  0.20381  0.02507  0.20532  1.0000
  H   H146      1.0  0.05890  0.11902  0.06786  1.0000
  H   H147      1.0  0.12276  0.04701  0.20345  1.0000
  H   H148      1.0  0.37050  0.25300  0.10294  1.0000
  C   C194      1.0  0.26294  0.13643  0.24396  1.0000
  C   C195      1.0  0.50698  0.19291  0.14406  1.0000
  H   H149      1.0  0.15464  0.28960  0.25626  1.0000
  C   C196      1.0  0.18611  0.02993  0.20474  1.0000
  H   H150      1.0  0.49752  0.48358  0.16246  1.0000
  H   H151      1.0  0.04169  0.43741  0.23710  1.0000
  C   C197      1.0  0.34841  0.07789  0.24639  1.0000
  H   H152      1.0  0.15941  0.11157  0.25756  1.0000
  H   H153      1.0  0.37826  0.12297  0.21263  1.0000
  H   H154      1.0  0.34678  0.01509  0.26161  1.0000
  C   C198      1.0  0.17547  0.03917  0.22355  1.0000
  C   C199      1.0  0.15264  0.04533  0.22288  1.0000
  P   P7        1.0  0.13676  0.03170  0.15780  1.0000
  H   H155      1.0  0.14240  0.15009  0.25711  1.0000
  H   H156      1.0  0.18501  0.04179  0.23857  1.0000
  C   C200      1.0  0.05791  0.37729  0.25943  1.0000
  H   H157      1.0  0.50843  0.22053  0.16639  1.0000
  C   C201      1.0  0.50414  0.49050  0.14675  1.0000
  H   H158      1.0  0.50555  0.37126  0.12433  1.0000
  C   C202      1.0  0.31293  0.09243  0.26088  1.0000
  C   C203      1.0  0.42046  0.47873  0.02513  1.0000
  C   C204      1.0  0.34901  0.15033  0.25362  1.0000
  H   H159      1.0  0.22775  0.14423  0.24974  1.0000
  H   H160      1.0  0.29508  0.09572  0.25907  1.0000
  H   H161      1.0  0.49823  0.39732  0.19729  1.0000
  H   H162      1.0  0.36037  0.35745  0.02092  1.0000
  C   C205      1.0  0.50362  0.41771  0.07700  1.0000
  H   H163      1.0  0.09229  0.38679  0.25193  1.0000
  H   H164      1.0  0.37039  0.50510  0.03625  1.0000
  C   C206      1.0  0.11554  0.16419  0.02088  1.0000
  H   H165      1.0  0.09388  0.01930  0.08653  1.0000
  H   H166      1.0  0.50143  0.48532  0.08996  1.0000
  H   H167      1.0  0.50883  0.16769  0.11878  1.0000
  H   H168      1.0  0.51145  0.42529  0.11077  1.0000
  C   C207      1.0  0.51320  0.31330  0.12895  1.0000
  H   H169      1.0  0.04401  0.14235  0.26308  1.0000
  C   C208      1.0  0.02997  0.17594  0.26295  1.0000
  H   H170      1.0  0.01981  0.21067  0.26624  1.0000
  H   H171      1.0  0.36244  0.05281  0.50910  1.0000
  Fe  Fe17      1.0  0.44280  0.09465  0.33773  1.0000
  S   S30       1.0  0.41503  0.12076  0.34177  1.0000
  S   S31       1.0  0.47981  0.09833  0.32698  1.0000
  Fe  Fe18      1.0  0.41433  0.05734  0.35896  1.0000
  S   S32       1.0  0.38459  0.08086  0.36470  1.0000
  C   C209      1.0  0.16542  0.44121  0.45160  1.0000
  Fe  Fe19      1.0  0.39157  0.09432  0.32951  1.0000
  S   S33       1.0  0.35973  0.10279  0.30892  1.0000
  Fe  Fe20      1.0  0.40969  0.10531  0.37646  1.0000
  S   S34       1.0  0.40726  0.12829  0.40669  1.0000
  S   S35       1.0  0.41983  0.06919  0.32310  1.0000
  S   S36       1.0  0.43890  0.08089  0.37319  1.0000
  Fe  Fe21      1.0  0.09136  0.33858  0.37219  1.0000
  S   S37       1.0  0.06835  0.33651  0.40268  1.0000
  S   S38       1.0  0.10625  0.30846  0.35297  1.0000
  Fe  Fe22      1.0  0.09790  0.38953  0.37790  1.0000
  S   S39       1.0  0.07550  0.39100  0.40869  1.0000
  S   S40       1.0  0.11978  0.41727  0.36296  1.0000
  Fe  Fe23      1.0  0.09308  0.35852  0.41951  1.0000
  S   S41       1.0  0.10221  0.35318  0.45642  1.0000
  Fe  Fe24      1.0  0.05257  0.36896  0.38975  1.0000
  S   S42       1.0  0.11703  0.35857  0.39009  1.0000
  S   S43       1.0  0.07401  0.36962  0.35793  1.0000
  H   H172      1.0  0.33437  0.18173  0.46193  1.0000
  H   H173      1.0  0.14653  0.14968  0.30658  1.0000
  C   C210      1.0  0.43322  0.02870  0.45001  1.0000
  C   C211      1.0  0.12883  0.35245  0.31319  1.0000
  H   H174      1.0  0.50993  0.20009  0.35481  1.0000
  C   C212      1.0  0.11225  0.44629  0.36077  1.0000
  C   C213      1.0  0.09022  0.45430  0.36472  1.0000
  C   C214      1.0  0.08499  0.47747  0.36212  1.0000
  C   C215      1.0  0.10181  0.49290  0.35616  1.0000
  C   C216      1.0  0.12383  0.48488  0.35242  1.0000
  C   C217      1.0  0.12894  0.46169  0.35448  1.0000
  H   H175      1.0  0.07718  0.44264  0.36947  1.0000
  H   H176      1.0  0.06787  0.48349  0.36497  1.0000
  H   H177      1.0  0.13681  0.49653  0.34751  1.0000
  H   H178      1.0  0.14591  0.45563  0.35107  1.0000
  C   C218      1.0  0.07722  0.26635  0.29662  1.0000
  C   C219      1.0  0.10040  0.26632  0.30048  1.0000
  C   C220      1.0  0.10897  0.27945  0.31764  1.0000
  C   C221      1.0  0.09467  0.29349  0.33054  1.0000
  C   C222      1.0  0.07161  0.29413  0.32613  1.0000
  C   C223      1.0  0.06295  0.28041  0.30951  1.0000
  H   H179      1.0  0.11169  0.25596  0.29050  1.0000
  H   H180      1.0  0.12683  0.27874  0.32094  1.0000
  H   H181      1.0  0.06036  0.30465  0.33600  1.0000
  H   H182      1.0  0.04500  0.28067  0.30667  1.0000
  C   C224      1.0  0.34697  0.09394  0.28373  1.0000
  C   C225      1.0  0.19557  0.44803  0.35954  1.0000
  H   H183      1.0  0.09338  0.14056  0.39337  1.0000
  C   C226      1.0  0.47847  0.02908  0.31078  1.0000
  C   C227      1.0  0.44791  0.16303  0.48006  1.0000
  C   C228      1.0  0.25039  0.28467  0.48377  1.0000
  C   C229      1.0  0.49308  0.15617  0.36658  1.0000
  C   C230      1.0  0.16863  0.32675  0.48758  1.0000
  C   C231      1.0  0.16714  0.32998  0.46415  1.0000
  C   C232      1.0  0.14696  0.33793  0.45425  1.0000
  C   C233      1.0  0.12808  0.34298  0.46777  1.0000
  C   C234      1.0  0.12968  0.34003  0.49120  1.0000
  C   C235      1.0  0.14981  0.33195  0.50107  1.0000
  H   H184      1.0  0.18167  0.32624  0.45361  1.0000
  H   H185      1.0  0.14602  0.34021  0.43621  1.0000
  H   H186      1.0  0.02326  0.34509  0.34177  1.0000
  H   H187      1.0  0.28292  0.22738  0.43757  1.0000
  C   C236      1.0  0.37533  0.11061  0.47591  1.0000
  C   C237      1.0  0.38641  0.13089  0.47220  1.0000
  C   C238      1.0  0.39597  0.13613  0.45091  1.0000
  C   C239      1.0  0.39480  0.12108  0.43317  1.0000
  C   C240      1.0  0.38381  0.10082  0.43689  1.0000
  C   C241      1.0  0.37405  0.09566  0.45812  1.0000
  H   H188      1.0  0.38752  0.14254  0.48570  1.0000
  H   H189      1.0  0.40430  0.15195  0.44819  1.0000
  H   H190      1.0  0.38252  0.08935  0.42325  1.0000
  H   H191      1.0  0.36519  0.08015  0.46068  1.0000
  C   C242      1.0  0.49342  0.12266  0.31601  1.0000
  C   C243      1.0  0.48135  0.14113  0.30701  1.0000
  C   C244      1.0  0.49283  0.16017  0.29873  1.0000
  H   H192      1.0  0.08295  0.48753  0.41103  1.0000
  H   H193      1.0  0.44248  0.20841  0.44421  1.0000
  C   C245      1.0  0.46195  0.05353  0.46286  1.0000
  H   H194      1.0  0.46318  0.14071  0.30629  1.0000
  H   H195      1.0  0.16071  0.49862  0.45782  1.0000
  H   H196      1.0  0.05751  0.50223  0.32120  1.0000
  C   C246      1.0  0.44415  0.03909  0.46757  1.0000
  H   H197      1.0  0.13246  0.39809  0.41809  1.0000
  C   C247      1.0  0.15917  0.44651  0.42940  1.0000
  C   C248      1.0  0.35834  0.01643  0.27536  1.0000
  H   H198      1.0  0.46419  0.14456  0.34919  1.0000
  H   H199      1.0  0.09926  0.17009  0.36401  1.0000
  S   S44       1.0  0.06509  0.24919  0.27614  1.0000
  C   C249      1.0  0.14793  0.40494  0.44953  1.0000
  H   H200      1.0  0.09804  0.21830  0.29925  1.0000
  C   C250      1.0  0.38373  0.03651  0.42723  1.0000
  C   C251      1.0  0.14751  0.43064  0.41738  1.0000
  H   H201      1.0  0.15843  0.33369  0.37733  1.0000
  P   P8        1.0  0.46616  0.13882  0.48517  1.0000
  C   C252      1.0  0.12523  0.33349  0.30053  1.0000
  H   H202      1.0  0.46382  0.05026  0.40589  1.0000
  H   H203      1.0  0.36329  0.05740  0.40520  1.0000
  C   C253      1.0  0.32379  0.09843  0.28070  1.0000
  C   C254      1.0  0.47560  0.12797  0.45837  1.0000
  C   C255      1.0  0.23985  0.20355  0.50569  1.0000
  H   H204      1.0  0.06666  0.30028  0.26589  1.0000
  H   H205      1.0  0.47018  0.06163  0.47644  1.0000
  H   H206      1.0  0.05378  0.35791  0.31656  1.0000
  H   H207      1.0  0.01764  0.49085  0.32519  1.0000
  C   C256      1.0  0.02657  0.32526  0.28017  1.0000
  H   H208      1.0  0.41243  0.07641  0.49173  1.0000
  C   C257      1.0  0.48500  0.17298  0.40248  1.0000
  C   C258      1.0  0.02424  0.33938  0.32459  1.0000
  P   P9        1.0  0.16544  0.47352  0.41638  1.0000
  H   H209      1.0  0.46178  0.05460  0.29054  1.0000
  H   H210      1.0  0.03017  0.20528  0.34214  1.0000
  C   C259      1.0  0.36955  0.03515  0.30878  1.0000
  C   C260      1.0  0.17732  0.25575  0.48624  1.0000
  C   C261      1.0  0.35919  0.08343  0.26644  1.0000
  H   H211      1.0  0.36676  0.04828  0.32088  1.0000
  H   H212      1.0  0.16707  0.20122  0.47563  1.0000
  P   P10       1.0  0.25741  0.23854  0.47903  1.0000
  C   C262      1.0  0.24054  0.23973  0.45405  1.0000
  C   C263      1.0  0.24510  0.25567  0.43684  1.0000
  C   C264      1.0  0.23331  0.25556  0.41673  1.0000
  C   C265      1.0  0.21685  0.23962  0.41367  1.0000
  C   C266      1.0  0.21215  0.22378  0.43073  1.0000
  C   C267      1.0  0.22396  0.22379  0.45084  1.0000
  H   H213      1.0  0.14332  0.38898  0.45732  1.0000
  C   C268      1.0  0.46196  0.16982  0.39953  1.0000
  H   H214      1.0  0.49430  0.10343  0.40078  1.0000
  C   C269      1.0  0.29332  0.29160  0.50041  1.0000
  C   C270      1.0  0.31988  0.19271  0.46513  1.0000
  H   H215      1.0  0.10039  0.22240  0.34185  1.0000
  H   H216      1.0  0.25812  0.26787  0.43874  1.0000
  H   H217      1.0  0.23705  0.26778  0.40345  1.0000
  H   H218      1.0  0.20782  0.23946  0.39804  1.0000
  H   H219      1.0  0.19949  0.21133  0.42829  1.0000
  H   H220      1.0  0.22030  0.21116  0.46368  1.0000
  C   C271      1.0  0.45268  0.17800  0.46211  1.0000
  H   H221      1.0  0.09073  0.25673  0.36213  1.0000
  H   H222      1.0  0.13675  0.31917  0.30182  1.0000
  C   C272      1.0  0.38930  0.01450  0.43454  1.0000
  H   H223      1.0  0.31596  0.20265  0.43042  1.0000
  C   C273      1.0  0.16761  0.21927  0.47303  1.0000
  H   H224      1.0  0.29959  0.25644  0.49575  1.0000
  H   H225      1.0  0.16462  0.41638  0.47869  1.0000
  C   C274      1.0  0.16845  0.26586  0.46678  1.0000
  C   C275      1.0  0.15929  0.25278  0.45007  1.0000
  C   C276      1.0  0.15880  0.22935  0.45349  1.0000
  P   P11       1.0  0.14666  0.26615  0.42545  1.0000
  C   C277      1.0  0.11893  0.27710  0.43292  1.0000
  C   C278      1.0  0.16302  0.28928  0.41442  1.0000
  C   C279      1.0  0.18575  0.29140  0.41996  1.0000
  C   C280      1.0  0.19833  0.30902  0.41068  1.0000
  C   C281      1.0  0.18846  0.32434  0.39542  1.0000
  C   C282      1.0  0.16605  0.32199  0.38938  1.0000
  C   C283      1.0  0.15331  0.30465  0.39893  1.0000
  C   C284      1.0  0.10140  0.27705  0.41737  1.0000
  C   C285      1.0  0.07988  0.28513  0.42331  1.0000
  C   C286      1.0  0.07587  0.29420  0.44444  1.0000
  C   C287      1.0  0.09335  0.29499  0.45972  1.0000
  C   C288      1.0  0.11478  0.28645  0.45405  1.0000
  C   C289      1.0  0.14413  0.24603  0.40340  1.0000
  C   C290      1.0  0.12732  0.22982  0.40490  1.0000
  C   C291      1.0  0.12504  0.21444  0.38779  1.0000
  C   C292      1.0  0.13951  0.21512  0.36901  1.0000
  C   C293      1.0  0.15617  0.23127  0.36729  1.0000
  C   C294      1.0  0.15851  0.24667  0.38439  1.0000
  H   H226      1.0  0.40215  0.19067  0.50231  1.0000
  C   C295      1.0  0.19602  0.46681  0.34496  1.0000
  H   H227      1.0  0.18339  0.22468  0.50463  1.0000
  H   H228      1.0  0.16858  0.28396  0.46495  1.0000
  H   H229      1.0  0.15161  0.21872  0.44125  1.0000
  H   H230      1.0  0.19382  0.27966  0.43156  1.0000
  H   H231      1.0  0.21566  0.31094  0.41550  1.0000
  H   H232      1.0  0.19812  0.33809  0.38831  1.0000
  H   H233      1.0  0.13602  0.21723  0.28153  1.0000
  H   H234      1.0  0.13591  0.30323  0.39405  1.0000
  H   H235      1.0  0.10435  0.27127  0.40047  1.0000
  H   H236      1.0  0.06650  0.28524  0.41118  1.0000
  H   H237      1.0  0.05945  0.30141  0.44869  1.0000
  H   H238      1.0  0.16030  0.18301  0.28521  1.0000
  H   H239      1.0  0.12806  0.28785  0.46604  1.0000
  H   H240      1.0  0.11584  0.22921  0.41927  1.0000
  H   H241      1.0  0.11187  0.20219  0.38900  1.0000
  H   H242      1.0  0.13767  0.20332  0.35563  1.0000
  H   H243      1.0  0.16712  0.23205  0.35254  1.0000
  H   H244      1.0  0.17136  0.25919  0.38253  1.0000
  H   H245      1.0  0.08272  0.38388  0.29875  1.0000
  C   C296      1.0  0.45455  0.15949  0.38036  1.0000
  H   H246      1.0  0.39986  0.02252  0.32415  1.0000
  C   C297      1.0  0.47009  0.15263  0.36397  1.0000
  C   C298      1.0  0.49427  0.16934  0.50533  1.0000
  H   H247      1.0  0.05100  0.26612  0.37194  1.0000
  H   H248      1.0  0.28218  0.32608  0.50407  1.0000
  C   C299      1.0  0.09926  0.49504  0.41252  1.0000
  C   C300      1.0  0.15984  0.42046  0.46157  1.0000
  C   C301      1.0  0.10624  0.33255  0.28705  1.0000
  H   H249      1.0  0.43673  0.15671  0.37822  1.0000
  C   C302      1.0  0.42974  0.16788  0.49469  1.0000
  H   H250      1.0  0.17138  0.50543  0.37891  1.0000
  C   C303      1.0  0.05516  0.25063  0.36348  1.0000
  S   S45       1.0  0.36308  0.10318  0.50245  1.0000
  C   C304      1.0  0.31163  0.19512  0.48706  1.0000
  C   C305      1.0  0.38252  0.03324  0.48588  1.0000
  C   C306      1.0  0.07757  0.24535  0.35790  1.0000
  C   C307      1.0  0.30945  0.20447  0.44742  1.0000
  C   C308      1.0  0.44998  0.11771  0.50026  1.0000
  H   H251      1.0  0.48408  0.18262  0.49763  1.0000
  C   C309      1.0  0.18626  0.44986  0.38120  1.0000
  C   C310      1.0  0.28191  0.22062  0.47356  1.0000
  H   H252      1.0  0.10865  0.15042  0.32429  1.0000
  C   C311      1.0  0.39885  0.01599  0.48330  1.0000
  C   C312      1.0  0.22238  0.50438  0.43622  1.0000
  C   C313      1.0  0.17793  0.48930  0.37367  1.0000
  H   H253      1.0  0.31411  0.10654  0.29389  1.0000
  H   H254      1.0  0.40992  0.21631  0.46977  1.0000
  C   C314      1.0  0.11867  0.48133  0.41384  1.0000
  H   H255      1.0  0.06618  0.14722  0.29729  1.0000
  C   C315      1.0  0.46106  0.03755  0.29736  1.0000
  C   C316      1.0  0.04562  0.13422  0.36375  1.0000
  H   H256      1.0  0.37581  0.04235  0.47151  1.0000
  C   C317      1.0  0.04353  0.21643  0.34633  1.0000
  H   H257      1.0  0.11677  0.46337  0.41352  1.0000
  C   C318      1.0  0.46708  0.11768  0.42025  1.0000
  H   H258      1.0  0.23342  0.28223  0.47803  1.0000
  C   C319      1.0  0.06594  0.21138  0.34000  1.0000
  H   H259      1.0  0.03605  0.15373  0.33457  1.0000
  C   C320      1.0  0.50085  0.16582  0.38618  1.0000
  H   H260      1.0  0.49259  0.03958  0.31429  1.0000
  C   C321      1.0  0.04320  0.33935  0.28801  1.0000
  C   C322      1.0  0.26584  0.26649  0.48571  1.0000
  H   H261      1.0  0.20228  0.43200  0.35400  1.0000
  C   C323      1.0  0.17685  0.23246  0.48939  1.0000
  H   H262      1.0  0.34887  0.15214  0.27170  1.0000
  C   C324      1.0  0.48934  0.11048  0.41678  1.0000
  H   H263      1.0  0.51033  0.12181  0.46780  1.0000
  H   H264      1.0  0.14313  0.35286  0.32419  1.0000
  H   H265      1.0  0.17452  0.45299  0.46128  1.0000
  C   C325      1.0  0.11359  0.37065  0.31220  1.0000
  C   C326      1.0  0.43894  0.19708  0.45830  1.0000
  H   H266      1.0  0.18767  0.50211  0.34084  1.0000
  H   H267      1.0  0.18637  0.43518  0.39228  1.0000
  C   C327      1.0  0.18539  0.48839  0.43266  1.0000
  H   H268      1.0  0.20306  0.46538  0.32813  1.0000
  C   C328      1.0  0.49806  0.12078  0.45474  1.0000
  C   C329      1.0  0.06170  0.13045  0.38037  1.0000
  C   C330      1.0  0.28741  0.27015  0.49394  1.0000
  H   H269      1.0  0.48308  0.06836  0.43705  1.0000
  C   C331      1.0  0.46029  0.12665  0.44079  1.0000
  C   C332      1.0  0.20784  0.49043  0.42517  1.0000
  H   H270      1.0  0.46703  0.17489  0.45111  1.0000
  H   H271      1.0  0.03055  0.12430  0.36383  1.0000
  C   C333      1.0  0.02934  0.19662  0.27351  1.0000
  C   C334      1.0  0.42062  0.20157  0.47268  1.0000
  C   C335      1.0  0.17801  0.49981  0.45189  1.0000
  H   H272      1.0  0.11617  0.38521  0.32237  1.0000
  H   H273      1.0  0.44970  0.17505  0.41213  1.0000
  C   C336      1.0  0.09463  0.36981  0.29872  1.0000
  C   C337      1.0  0.14182  0.41003  0.42743  1.0000
  C   C338      1.0  0.29062  0.21845  0.45158  1.0000
  C   C339      1.0  0.36742  0.04040  0.41087  1.0000
  H   H274      1.0  0.39215  0.05066  0.43402  1.0000
  H   H275      1.0  0.04142  0.21583  0.30041  1.0000
  H   H276      1.0  0.34003  0.04436  0.28987  1.0000
  C   C340      1.0  0.09077  0.35074  0.28600  1.0000
  C   C341      1.0  0.37484  0.03923  0.50729  1.0000
  C   C342      1.0  0.03815  0.23611  0.35780  1.0000
  H   H277      1.0  0.05911  0.11755  0.39328  1.0000
  C   C343      1.0  0.46913  0.05747  0.44067  1.0000
  S   S46       1.0  0.19389  0.31511  0.49913  1.0000
  H   H278      1.0  0.11520  0.34392  0.50181  1.0000
  H   H279      1.0  0.44296  0.13236  0.44293  1.0000
  C   C344      1.0  0.08296  0.22587  0.34617  1.0000
  C   C345      1.0  0.35451  0.03298  0.29127  1.0000
  H   H280      1.0  0.24414  0.31991  0.48921  1.0000
  H   H281      1.0  0.10346  0.31738  0.27804  1.0000
  C   C346      1.0  0.04165  0.34659  0.31024  1.0000
  C   C347      1.0  0.04890  0.15084  0.34706  1.0000
  H   H282      1.0  0.14256  0.43433  0.40024  1.0000
  H   H283      1.0  0.50471  0.15141  0.35323  1.0000
  C   C348      1.0  0.41615  0.18707  0.49095  1.0000
  C   C349      1.0  0.43669  0.10270  0.48876  1.0000
  C   C350      1.0  0.17695  0.47047  0.38828  1.0000
  C   C351      1.0  0.14403  0.18374  0.29380  1.0000
  H   H284      1.0  0.09051  0.30299  0.47571  1.0000
  H   H285      1.0  0.43579  0.10323  0.47067  1.0000
  C   C352      1.0  0.14001  0.49091  0.41493  1.0000
  C   C353      1.0  0.05552  0.16097  0.29115  1.0000
  C   C354      1.0  0.05477  0.18163  0.30203  1.0000
  C   C355      1.0  0.04167  0.19947  0.29297  1.0000
  P   P12       1.0  0.07267  0.18556  0.32573  1.0000
  C   C356      1.0  0.06847  0.16363  0.34673  1.0000
  C   C357      1.0  0.10109  0.18505  0.31437  1.0000
  C   C358      1.0  0.11475  0.16549  0.31595  1.0000
  C   C359      1.0  0.13622  0.16493  0.30582  1.0000
  H   H286      1.0  0.45885  0.02175  0.36645  1.0000
  C   C360      1.0  0.13038  0.20308  0.29181  1.0000
  C   C361      1.0  0.10893  0.20367  0.30190  1.0000
  C   C362      1.0  0.08432  0.16005  0.36373  1.0000
  C   C363      1.0  0.08101  0.14341  0.38040  1.0000
  H   H287      1.0  0.24829  0.19222  0.49417  1.0000
  H   H288      1.0  0.30982  0.29425  0.50720  1.0000
  H   H289      1.0  0.43902  0.03615  0.48489  1.0000
  H   H290      1.0  0.49025  0.18101  0.41742  1.0000
  H   H291      1.0  0.45500  0.11644  0.40693  1.0000
  C   C364      1.0  0.45832  0.04726  0.42313  1.0000
  H   H292      1.0  0.03835  0.42385  0.50722  1.0000
  C   C365      1.0  0.25640  0.30610  0.49015  1.0000
  H   H293      1.0  0.28689  0.21078  0.50848  1.0000
  H   H294      1.0  0.48332  0.17428  0.29164  1.0000
  C   C366      1.0  0.27780  0.30956  0.49858  1.0000
  H   H295      1.0  0.18419  0.26612  0.49905  1.0000
  H   H296      1.0  0.02107  0.37949  0.43395  1.0000
  H   H297      1.0  0.23947  0.50644  0.42992  1.0000
  C   C367      1.0  0.02152  0.50846  0.32290  1.0000
  H   H298      1.0  0.21399  0.48186  0.41038  1.0000
  C   C368      1.0  0.44033  0.03309  0.42776  1.0000
  C   C369      1.0  0.29287  0.20914  0.49131  1.0000
  C   C370      1.0  0.44248  0.02436  0.29328  1.0000
  C   C371      1.0  0.04302  0.15812  0.27180  1.0000
  C   C372      1.0  0.38834  0.02063  0.31050  1.0000
  H   H299      1.0  0.42594  0.15695  0.50901  1.0000
  C   C373      1.0  0.18733  0.48747  0.35209  1.0000
  C   C374      1.0  0.42338  0.08725  0.50068  1.0000
  H   H300      1.0  0.43205  0.02539  0.41397  1.0000
  C   C375      1.0  0.24104  0.22695  0.50233  1.0000
  P   P13       1.0  0.06557  0.34931  0.26951  1.0000
  C   C376      1.0  0.50488  0.11208  0.43398  1.0000
  C   C377      1.0  0.48966  0.14664  0.50204  1.0000
  H   H301      1.0  0.31979  0.18605  0.50081  1.0000
  C   C378      1.0  0.35688  0.02234  0.40133  1.0000
  S   S47       1.0  0.01462  0.37409  0.38580  1.0000
  S   S48       1.0  0.40962  0.02090  0.37038  1.0000
  H   H302      1.0  0.23423  0.50093  0.49805  1.0000
  H   H303      1.0  0.02076  0.24023  0.36212  1.0000
  H   H304      1.0  0.42910  0.03133  0.28291  1.0000
  H   H305      1.0  0.34473  0.02540  0.38818  1.0000
  H   H306      1.0  0.49935  0.11234  0.51095  1.0000
  H   H307      1.0  0.37701  0.07989  0.26837  1.0000
  C   C379      1.0  0.50291  0.12993  0.51290  1.0000
  H   H308      1.0  0.02192  0.37317  0.26396  1.0000
  H   H309      1.0  0.47505  0.02858  0.72745  1.0000
  Fe  Fe25      1.0  0.34375  0.16832  0.55515  1.0000
  S   S49       1.0  0.33273  0.13236  0.55498  1.0000
  S   S50       1.0  0.32312  0.20022  0.54614  1.0000
  Fe  Fe26      1.0  0.39405  0.15418  0.56091  1.0000
  S   S51       1.0  0.38643  0.11736  0.56164  1.0000
  S   S52       1.0  0.42908  0.16907  0.55711  1.0000
  Fe  Fe27      1.0  0.36344  0.12580  0.53279  1.0000
  Fe  Fe28      1.0  0.35662  0.12667  0.58372  1.0000
  S   S53       1.0  0.34808  0.10929  0.61740  1.0000
  S   S54       1.0  0.37258  0.16192  0.53084  1.0000
  S   S55       1.0  0.36597  0.16329  0.58515  1.0000
  Fe  Fe29      1.0  0.26363  0.46504  0.72085  1.0000
  S   S56       1.0  0.23153  0.48431  0.71173  1.0000
  H   H310      1.0  0.25879  0.44686  0.55909  1.0000
  Fe  Fe30      1.0  0.26579  0.44202  0.67554  1.0000
  S   S57       1.0  0.23502  0.46015  0.66275  1.0000
  S   S58       1.0  0.28741  0.41682  0.65636  1.0000
  Fe  Fe31      1.0  0.24839  0.49088  0.67819  1.0000
  Fe  Fe32      1.0  0.22015  0.45218  0.69701  1.0000
  S   S59       1.0  0.18446  0.44013  0.69305  1.0000
  S   S60       1.0  0.28105  0.47354  0.68811  1.0000
  S   S61       1.0  0.25038  0.43210  0.70904  1.0000
  Fe  Fe33      1.0  0.09721  0.31729  0.72307  1.0000
  H   H311      1.0  0.23357  0.14760  0.63105  1.0000
  S   S62       1.0  0.11593  0.29618  0.69712  1.0000
  Fe  Fe34      1.0  0.05508  0.34553  0.73507  1.0000
  C   C380      1.0  0.03410  0.43831  0.59763  1.0000
  Fe  Fe35      1.0  0.10137  0.35723  0.75239  1.0000
  C   C381      1.0  0.44944  0.11713  0.52388  1.0000
  S   S63       1.0  0.08802  0.35375  0.71766  1.0000
  S   S64       1.0  0.06318  0.30831  0.73769  1.0000
  Fe  Fe36      1.0  0.18703  0.32208  0.58551  1.0000
  S   S65       1.0  0.19925  0.34552  0.55775  1.0000
  S   S66       1.0  0.15883  0.33738  0.60697  1.0000
  Fe  Fe37      1.0  0.22290  0.28589  0.57456  1.0000
  S   S67       1.0  0.23751  0.30667  0.54626  1.0000
  S   S68       1.0  0.23687  0.25179  0.58728  1.0000
  Fe  Fe38      1.0  0.23383  0.33575  0.56954  1.0000
  S   S69       1.0  0.26301  0.35929  0.57203  1.0000
  Fe  Fe39      1.0  0.20154  0.31484  0.53666  1.0000
  S   S70       1.0  0.22170  0.31455  0.59854  1.0000
  S   S71       1.0  0.18689  0.29179  0.56352  1.0000
  H   H312      1.0  0.03962  0.39929  0.71985  1.0000
  C   C382      1.0  0.12986  0.30827  0.67330  1.0000
  C   C383      1.0  0.14249  0.29437  0.65880  1.0000
  C   C384      1.0  0.15245  0.30323  0.63890  1.0000
  C   C385      1.0  0.14953  0.32603  0.63321  1.0000
  C   C386      1.0  0.13761  0.34006  0.64812  1.0000
  C   C387      1.0  0.12800  0.33127  0.66816  1.0000
  H   H313      1.0  0.14412  0.27657  0.66271  1.0000
  H   H314      1.0  0.16156  0.29226  0.62754  1.0000
  H   H315      1.0  0.13556  0.35776  0.64405  1.0000
  H   H316      1.0  0.11877  0.34220  0.67940  1.0000
  C   C388      1.0  0.27902  0.40055  0.63363  1.0000
  C   C389      1.0  0.29528  0.38652  0.62354  1.0000
  C   C390      1.0  0.28993  0.37364  0.60510  1.0000
  C   C391      1.0  0.26803  0.37406  0.59681  1.0000
  C   C392      1.0  0.25158  0.38804  0.60687  1.0000
  C   C393      1.0  0.25711  0.40137  0.62523  1.0000
  H   H317      1.0  0.31232  0.38597  0.62971  1.0000
  H   H318      1.0  0.30294  0.36356  0.59702  1.0000
  H   H319      1.0  0.23494  0.38923  0.59988  1.0000
  H   H320      1.0  0.24468  0.41259  0.63259  1.0000
  C   C394      1.0  0.16987  0.42293  0.71266  1.0000
  C   C395      1.0  0.15439  0.40759  0.70488  1.0000
  C   C396      1.0  0.14099  0.39505  0.72012  1.0000
  C   C397      1.0  0.14259  0.39823  0.74321  1.0000
  C   C398      1.0  0.15802  0.41361  0.75091  1.0000
  C   C399      1.0  0.17182  0.42576  0.73572  1.0000
  H   H321      1.0  0.15265  0.40546  0.68701  1.0000
  H   H322      1.0  0.12909  0.38335  0.71396  1.0000
  C   C400      1.0  0.25544  0.46216  0.60411  1.0000
  H   H323      1.0  0.18338  0.43788  0.74176  1.0000
  C   C401      1.0  0.34120  0.08056  0.62158  1.0000
  C   C402      1.0  0.33994  0.07149  0.64362  1.0000
  C   C403      1.0  0.33347  0.04912  0.64782  1.0000
  C   C404      1.0  0.32821  0.03553  0.62998  1.0000
  C   C405      1.0  0.32957  0.04454  0.60792  1.0000
  C   C406      1.0  0.33602  0.06693  0.60372  1.0000
  H   H324      1.0  0.34400  0.08185  0.65754  1.0000
  C   C407      1.0  0.15951  0.49635  0.67313  1.0000
  H   H325      1.0  0.32557  0.03415  0.59399  1.0000
  H   H326      1.0  0.33680  0.07369  0.58669  1.0000
  C   C408      1.0  0.29899  0.21387  0.55809  1.0000
  C   C409      1.0  0.28716  0.20508  0.57671  1.0000
  C   C410      1.0  0.26799  0.21673  0.58529  1.0000
  C   C411      1.0  0.26044  0.23719  0.57531  1.0000
  C   C412      1.0  0.27218  0.24582  0.55656  1.0000
  C   C413      1.0  0.29145  0.23434  0.54821  1.0000
  H   H327      1.0  0.29279  0.18938  0.58450  1.0000
  H   H328      1.0  0.25905  0.20993  0.59981  1.0000
  H   H329      1.0  0.26663  0.26150  0.54866  1.0000
  H   H330      1.0  0.30066  0.24140  0.53402  1.0000
  C   C414      1.0  0.21746  0.20882  0.53964  1.0000
  H   H331      1.0  0.49812  0.01933  0.63465  1.0000
  H   H332      1.0  0.32210  0.45599  0.73582  1.0000
  C   C415      1.0  0.48730  0.16347  0.60717  1.0000
  C   C416      1.0  0.46649  0.15369  0.61251  1.0000
  C   C417      1.0  0.44854  0.15512  0.59734  1.0000
  C   C418      1.0  0.45123  0.16644  0.57664  1.0000
  C   C419      1.0  0.47206  0.17621  0.57125  1.0000
  C   C420      1.0  0.49003  0.17475  0.58642  1.0000
  H   H333      1.0  0.46421  0.14497  0.62853  1.0000
  H   H334      1.0  0.43261  0.14755  0.60170  1.0000
  H   H335      1.0  0.47426  0.18502  0.55529  1.0000
  H   H336      1.0  0.20983  0.24312  0.54807  1.0000
  C   C421      1.0  0.24914  0.50180  0.59572  1.0000
  C   C422      1.0  0.25733  0.01671  0.64405  1.0000
  C   C423      1.0  0.22797  0.40112  0.54873  1.0000
  C   C424      1.0  0.02766  0.43287  0.64400  1.0000
  C   C425      1.0  0.02394  0.42252  0.51860  1.0000
  H   H337      1.0  0.39959  0.21077  0.54937  1.0000
  H   H338      1.0  0.49509  0.26488  0.60370  1.0000
  C   C426      1.0  0.22979  0.24113  0.51760  1.0000
  C   C427      1.0  0.42323  0.08659  0.52412  1.0000
  C   C428      1.0  0.24667  0.41473  0.55021  1.0000
  C   C429      1.0  0.20664  0.40924  0.55524  1.0000
  C   C430      1.0  0.04763  0.42447  0.63392  1.0000
  C   C431      1.0  0.05064  0.42721  0.61054  1.0000
  P   P14       1.0  0.06853  0.40939  0.65081  1.0000
  C   C432      1.0  0.09530  0.40672  0.63591  1.0000
  C   C433      1.0  0.07284  0.42322  0.67700  1.0000
  C   C434      1.0  0.06626  0.44579  0.67996  1.0000
  C   C435      1.0  0.06907  0.45576  0.70072  1.0000
  C   C436      1.0  0.07909  0.44352  0.71839  1.0000
  C   C437      1.0  0.08643  0.42136  0.71528  1.0000
  C   C438      1.0  0.08343  0.41131  0.69464  1.0000
  C   C439      1.0  0.09754  0.39197  0.61791  1.0000
  C   C440      1.0  0.11857  0.38799  0.60766  1.0000
  C   C441      1.0  0.13753  0.39868  0.61525  1.0000
  C   C442      1.0  0.13552  0.41344  0.63308  1.0000
  C   C443      1.0  0.11448  0.41756  0.64334  1.0000
  C   C444      1.0  0.05898  0.38129  0.65759  1.0000
  C   C445      1.0  0.03619  0.37754  0.66268  1.0000
  C   C446      1.0  0.04435  0.33786  0.66908  1.0000
  C   C447      1.0  0.06710  0.34141  0.66436  1.0000
  C   C448      1.0  0.07444  0.36302  0.65879  1.0000
  C   C449      1.0  0.17346  0.48068  0.58482  1.0000
  H   H339      1.0  0.28278  0.45398  0.62640  1.0000
  H   H340      1.0  0.43570  0.10147  0.55391  1.0000
  H   H341      1.0  0.05871  0.45566  0.66648  1.0000
  H   H342      1.0  0.06325  0.47291  0.70323  1.0000
  H   H343      1.0  0.08114  0.45111  0.73454  1.0000
  H   H344      1.0  0.09424  0.41183  0.72898  1.0000
  H   H345      1.0  0.08937  0.39422  0.69243  1.0000
  H   H346      1.0  0.08319  0.38283  0.61237  1.0000
  H   H347      1.0  0.12042  0.37583  0.59445  1.0000
  H   H348      1.0  0.15040  0.42111  0.63946  1.0000
  H   H349      1.0  0.11349  0.42860  0.65748  1.0000
  C   C450      1.0  0.51174  0.17517  0.51936  1.0000
  H   H350      1.0  0.07915  0.32745  0.66565  1.0000
  H   H351      1.0  0.09227  0.36536  0.65595  1.0000
  H   H352      1.0  0.37719  0.03264  0.54288  1.0000
  H   H353      1.0  0.48656  0.20267  0.64033  1.0000
  C   C451      1.0  0.16392  0.31300  0.72274  1.0000
  H   H354      1.0  0.18731  0.43689  0.56828  1.0000
  H   H355      1.0  0.26933  0.03964  0.75127  1.0000
  H   H356      1.0  0.23480  0.47221  0.52840  1.0000
  C   C452      1.0  0.18408  0.30081  0.72003  1.0000
  H   H357      1.0  0.46819  0.33244  0.61305  1.0000
  H   H358      1.0  0.38842  0.51096  0.74760  1.0000
  C   C453      1.0  0.24407  0.43657  0.55806  1.0000
  C   C454      1.0  0.26793  0.03369  0.63154  1.0000
  H   H359      1.0  0.23032  0.25920  0.51571  1.0000
  C   C455      1.0  0.26699  0.50684  0.60956  1.0000
  C   C456      1.0  0.23509  0.04683  0.76177  1.0000
  H   H360      1.0  0.20891  0.20195  0.55443  1.0000
  H   H361      1.0  0.10583  0.48275  0.68731  1.0000
  S   S72       1.0  0.27851  0.47093  0.75551  1.0000
  H   H362      1.0  0.06564  0.42084  0.60213  1.0000
  C   C457      1.0  0.02890  0.35589  0.66811  1.0000
  H   H363      1.0  0.17663  0.48958  0.67417  1.0000
  H   H364      1.0  0.15385  0.39484  0.60769  1.0000
  C   C458      1.0  0.25032  0.02047  0.66616  1.0000
  C   C459      1.0  0.02236  0.40078  0.71441  1.0000
  C   C460      1.0  0.38917  0.21821  0.56250  1.0000
  C   C461      1.0  0.39504  0.21496  0.58496  1.0000
  C   C462      1.0  0.38118  0.22374  0.60200  1.0000
  C   C463      1.0  0.36147  0.23618  0.59666  1.0000
  C   C464      1.0  0.35559  0.23915  0.57404  1.0000
  P   P15       1.0  0.34275  0.24603  0.61879  1.0000
  C   C465      1.0  0.32360  0.22397  0.62691  1.0000
  C   C466      1.0  0.35933  0.25328  0.64259  1.0000
  C   C467      1.0  0.35169  0.24854  0.66462  1.0000
  C   C468      1.0  0.36468  0.25416  0.68292  1.0000
  C   C469      1.0  0.38534  0.26456  0.67937  1.0000
  C   C470      1.0  0.39301  0.26943  0.65750  1.0000
  C   C471      1.0  0.38006  0.26385  0.63917  1.0000
  C   C472      1.0  0.32966  0.20133  0.62366  1.0000
  C   C473      1.0  0.31500  0.18429  0.63032  1.0000
  C   C474      1.0  0.29413  0.18971  0.64025  1.0000
  C   C475      1.0  0.28793  0.21219  0.64354  1.0000
  C   C476      1.0  0.30264  0.22926  0.63705  1.0000
  C   C477      1.0  0.32692  0.27072  0.60917  1.0000
  C   C478      1.0  0.30689  0.26828  0.59743  1.0000
  C   C479      1.0  0.29405  0.28715  0.59061  1.0000
  C   C480      1.0  0.30130  0.30866  0.59509  1.0000
  C   C481      1.0  0.32135  0.31132  0.60652  1.0000
  C   C482      1.0  0.33414  0.29245  0.61357  1.0000
  C   C483      1.0  0.27346  0.46729  0.61769  1.0000
  C   C484      1.0  0.48750  0.01821  0.71877  1.0000
  H   H365      1.0  0.41000  0.20498  0.58910  1.0000
  H   H366      1.0  0.38561  0.22029  0.61932  1.0000
  H   H367      1.0  0.33997  0.24764  0.56942  1.0000
  H   H368      1.0  0.33578  0.24047  0.66779  1.0000
  H   H369      1.0  0.35875  0.25038  0.69989  1.0000
  H   H370      1.0  0.39541  0.26885  0.69357  1.0000
  H   H371      1.0  0.40903  0.27749  0.65475  1.0000
  H   H372      1.0  0.38621  0.26782  0.62232  1.0000
  H   H373      1.0  0.34568  0.19672  0.61596  1.0000
  H   H374      1.0  0.31986  0.16686  0.62764  1.0000
  H   H375      1.0  0.28278  0.17651  0.64538  1.0000
  H   H376      1.0  0.27164  0.21642  0.65101  1.0000
  H   H377      1.0  0.29762  0.24656  0.63990  1.0000
  H   H378      1.0  0.30113  0.25173  0.59368  1.0000
  H   H379      1.0  0.27834  0.28516  0.58196  1.0000
  H   H380      1.0  0.29126  0.32323  0.58979  1.0000
  H   H381      1.0  0.32688  0.32807  0.61000  1.0000
  H   H382      1.0  0.34952  0.29500  0.62246  1.0000
  C   C485      1.0  0.23007  0.28450  0.64484  1.0000
  C   C486      1.0  0.25300  0.28415  0.63915  1.0000
  C   C487      1.0  0.26657  0.30156  0.64572  1.0000
  C   C488      1.0  0.25728  0.31933  0.65803  1.0000
  C   C489      1.0  0.23429  0.31968  0.66411  1.0000
  C   C490      1.0  0.22066  0.30234  0.65695  1.0000
  P   P16       1.0  0.22199  0.34258  0.68002  1.0000
  C   C491      1.0  0.19933  0.33151  0.69726  1.0000
  C   C492      1.0  0.24298  0.35388  0.69795  1.0000
  C   C493      1.0  0.24351  0.34806  0.72096  1.0000
  C   C494      1.0  0.25977  0.35693  0.73468  1.0000
  C   C495      1.0  0.27586  0.37138  0.72547  1.0000
  C   C496      1.0  0.27551  0.37721  0.70263  1.0000
  C   C497      1.0  0.25907  0.36866  0.68892  1.0000
  C   C498      1.0  0.20182  0.31008  0.70750  1.0000
  C   C499      1.0  0.16152  0.33460  0.71321  1.0000
  C   C500      1.0  0.17912  0.34385  0.70037  1.0000
  C   C501      1.0  0.21138  0.36425  0.66095  1.0000
  C   C502      1.0  0.21077  0.38688  0.66707  1.0000
  C   C503      1.0  0.20368  0.40362  0.65169  1.0000
  C   C504      1.0  0.19693  0.39799  0.63031  1.0000
  C   C505      1.0  0.19686  0.37549  0.62438  1.0000
  C   C506      1.0  0.20381  0.35866  0.63969  1.0000
  H   H383      1.0  0.21940  0.27142  0.63900  1.0000
  H   H384      1.0  0.26000  0.27072  0.62902  1.0000
  H   H385      1.0  0.28424  0.30152  0.64093  1.0000
  H   H386      1.0  0.26806  0.33279  0.66252  1.0000
  H   H387      1.0  0.20265  0.30274  0.66037  1.0000
  H   H388      1.0  0.23140  0.33678  0.72848  1.0000
  C   C507      1.0  0.03237  0.51006  0.63930  1.0000
  H   H389      1.0  0.28861  0.37808  0.73599  1.0000
  H   H390      1.0  0.28791  0.38856  0.69553  1.0000
  H   H391      1.0  0.25899  0.37358  0.67126  1.0000
  H   H392      1.0  0.21732  0.30034  0.70544  1.0000
  H   H393      1.0  0.27433  0.03042  0.61476  1.0000
  H   H394      1.0  0.17671  0.36038  0.69266  1.0000
  H   H395      1.0  0.21600  0.39172  0.68355  1.0000
  H   H396      1.0  0.20408  0.42106  0.65610  1.0000
  H   H397      1.0  0.19207  0.41104  0.61825  1.0000
  H   H398      1.0  0.19175  0.37102  0.60775  1.0000
  H   H399      1.0  0.20329  0.34135  0.63483  1.0000
  C   C508      1.0  0.19534  0.46476  0.61547  1.0000
  C   C509      1.0  0.19440  0.47361  0.59345  1.0000
  H   H400      1.0  0.50731  0.04624  0.70778  1.0000
  C   C510      1.0  0.21802  0.23205  0.53609  1.0000
  C   C511      1.0  0.22699  0.48843  0.53159  1.0000
  H   H401      1.0  0.36443  0.23199  0.53969  1.0000
  H   H402      1.0  0.50593  0.18242  0.58214  1.0000
  H   H403      1.0  0.46748  0.02394  0.66330  1.0000
  C   C512      1.0  0.20398  0.43101  0.56327  1.0000
  H   H404      1.0  0.14472  0.46720  0.68907  1.0000
  H   H405      1.0  0.50439  0.04753  0.66309  1.0000
  H   H406      1.0  0.22798  0.17653  0.52724  1.0000
  H   H407      1.0  0.49482  0.08535  0.64739  1.0000
  H   H408      1.0  0.18570  0.28398  0.72725  1.0000
  H   H409      1.0  0.14997  0.30541  0.73177  1.0000
  H   H410      1.0  0.02465  0.43080  0.66189  1.0000
  H   H411      1.0  0.15065  0.32952  0.51911  1.0000
  C   C513      1.0  0.51157  0.08162  0.65362  1.0000
  C   C514      1.0  0.43635  0.10145  0.53570  1.0000
  C   C515      1.0  0.22672  0.50475  0.51425  1.0000
  C   C516      1.0  0.24861  0.13724  0.63360  1.0000
  C   C517      1.0  0.26736  0.14004  0.61934  1.0000
  C   C518      1.0  0.28672  0.12666  0.62258  1.0000
  C   C519      1.0  0.28733  0.11046  0.63998  1.0000
  C   C520      1.0  0.26857  0.10739  0.65435  1.0000
  C   C521      1.0  0.24914  0.12092  0.65098  1.0000
  P   P17       1.0  0.26916  0.08523  0.67581  1.0000
  C   C522      1.0  0.29627  0.08385  0.68912  1.0000
  C   C523      1.0  0.24767  0.09028  0.69715  1.0000
  C   C524      1.0  0.25331  0.09847  0.71818  1.0000
  C   C525      1.0  0.23664  0.10162  0.73479  1.0000
  C   C526      1.0  0.21425  0.09671  0.73054  1.0000
  C   C527      1.0  0.20849  0.08864  0.70964  1.0000
  C   C528      1.0  0.22511  0.08546  0.69299  1.0000
  C   C529      1.0  0.30928  0.10315  0.69044  1.0000
  C   C530      1.0  0.33019  0.10197  0.70090  1.0000
  C   C531      1.0  0.33812  0.08162  0.71036  1.0000
  C   C532      1.0  0.32505  0.06249  0.70955  1.0000
  C   C533      1.0  0.30417  0.06358  0.69903  1.0000
  C   C534      1.0  0.26429  0.05851  0.66322  1.0000
  C   C535      1.0  0.25397  0.04116  0.67582  1.0000
  C   C536      1.0  0.01481  0.40153  0.52350  1.0000
  H   H412      1.0  0.24112  0.10776  0.75105  1.0000
  H   H413      1.0  0.34905  0.50937  0.76150  1.0000
  C   C537      1.0  0.27147  0.05448  0.64105  1.0000
  C   C538      1.0  0.49551  0.21818  0.63759  1.0000
  H   H414      1.0  0.26693  0.15254  0.60576  1.0000
  H   H415      1.0  0.30130  0.12862  0.61148  1.0000
  H   H416      1.0  0.30241  0.10013  0.64204  1.0000
  H   H417      1.0  0.23433  0.11893  0.66160  1.0000
  H   H418      1.0  0.27054  0.10230  0.72192  1.0000
  C   C539      1.0  0.48438  0.32696  0.60621  1.0000
  H   H419      1.0  0.20138  0.09908  0.74347  1.0000
  H   H420      1.0  0.19114  0.08475  0.70637  1.0000
  H   H421      1.0  0.22040  0.07906  0.67692  1.0000
  H   H422      1.0  0.30342  0.11908  0.68328  1.0000
  C   C540      1.0  0.49237  0.33626  0.58588  1.0000
  H   H423      1.0  0.35445  0.08062  0.71818  1.0000
  H   H424      1.0  0.33124  0.04666  0.71677  1.0000
  H   H425      1.0  0.29440  0.04852  0.69844  1.0000
  H   H426      1.0  0.24915  0.04330  0.69328  1.0000
  C   C541      1.0  0.22823  0.19456  0.52436  1.0000
  H   H427      1.0  0.47446  0.22980  0.61051  1.0000
  C   C542      1.0  0.21768  0.49330  0.55281  1.0000
  H   H428      1.0  0.28041  0.06700  0.63118  1.0000
  H   H429      1.0  0.14570  0.34385  0.71525  1.0000
  C   C543      1.0  0.32465  0.46023  0.75312  1.0000
  H   H430      1.0  0.25988  0.35263  0.75246  1.0000
  H   H431      1.0  0.41228  0.07513  0.53328  1.0000
  H   H432      1.0  0.25095  0.44475  0.60282  1.0000
  C   C544      1.0  0.17591  0.46388  0.62902  1.0000
  C   C545      1.0  0.15525  0.47154  0.62057  1.0000
  C   C546      1.0  0.15400  0.47980  0.59843  1.0000
  H   H433      1.0  0.21108  0.45828  0.62211  1.0000
  P   P18       1.0  0.21943  0.47280  0.57575  1.0000
  C   C547      1.0  0.20047  0.37361  0.75231  1.0000
  C   C548      1.0  0.50039  0.25346  0.61709  1.0000
  C   C549      1.0  0.38325  0.02796  0.52632  1.0000
  H   H434      1.0  0.19223  0.39851  0.55423  1.0000
  H   H435      1.0  0.45847  0.12927  0.53328  1.0000
  H   H436      1.0  0.36005  0.45089  0.75250  1.0000
  H   H437      1.0  0.33269  0.04231  0.66480  1.0000
  H   H438      1.0  0.03879  0.32127  0.67422  1.0000
  H   H439      1.0  0.23015  0.38411  0.54287  1.0000
  S   S73       1.0  0.11239  0.32116  0.75712  1.0000
  S   S74       1.0  0.50915  0.16136  0.62710  1.0000
  H   H440      1.0  0.02405  0.39128  0.66323  1.0000
  C   C550      1.0  0.27908  0.48962  0.62061  1.0000
  H   H441      1.0  0.03644  0.44013  0.57959  1.0000
  H   H442      1.0  0.49113  0.30383  0.63373  1.0000
  C   C551      1.0  0.49737  0.31075  0.61785  1.0000
  H   H443      1.0  0.17693  0.45715  0.64609  1.0000
  H   H444      1.0  0.14023  0.47088  0.63115  1.0000
  H   H445      1.0  0.26326  0.40807  0.54572  1.0000
  H   H446      1.0  0.13791  0.48536  0.59176  1.0000
  H   H447      1.0  0.34041  0.11676  0.70137  1.0000
  C   C552      1.0  0.24321  0.47937  0.59280  1.0000
  H   H448      1.0  0.17210  0.48661  0.56756  1.0000
  C   C553      1.0  0.48865  0.23357  0.62083  1.0000
  C   C554      1.0  0.22272  0.44481  0.56489  1.0000
  C   C555      1.0  0.36948  0.23029  0.55705  1.0000
  C   C556      1.0  0.11961  0.49254  0.68055  1.0000
  H   H449      1.0  0.02399  0.43620  0.70626  1.0000
  H   H450      1.0  0.18946  0.33945  0.75315  1.0000
  S   S75       1.0  0.01932  0.35500  0.72407  1.0000
  H   H451      1.0  0.29865  0.42075  0.74902  1.0000
  H   H452      1.0  0.48235  0.34890  0.57692  1.0000
  H   H453      1.0  0.21023  0.50919  0.63963  1.0000
  H   H454      1.0  0.04701  0.49971  0.64349  1.0000
  H   H455      1.0  0.25845  0.42084  0.75951  1.0000
  H   H456      1.0  0.21303  0.40671  0.75604  1.0000
  H   H457      1.0  0.29249  0.49363  0.63183  1.0000
  H   H458      1.0  0.02117  0.45808  0.52400  1.0000
  H   H459      1.0  0.22907  0.04831  0.74472  1.0000
  C   C557      1.0  0.14158  0.48373  0.68154  1.0000
  H   H460      1.0  0.19293  0.37769  0.73621  1.0000
  C   C558      1.0  0.50573  0.02817  0.70745  1.0000
  H   H461      1.0  0.02216  0.38663  0.51591  1.0000
  C   C559      1.0  0.19860  0.35203  0.76180  1.0000
  C   C560      1.0  0.51435  0.22244  0.65037  1.0000
  C   C561      1.0  0.34618  0.45735  0.76265  1.0000
  C   C562      1.0  0.51343  0.32944  0.57725  1.0000
  S   S76       1.0  0.12521  0.38399  0.76302  1.0000
  Fe  Fe40      1.0  0.43918  0.46690  0.85239  1.0000
  S   S77       1.0  0.40916  0.44450  0.85286  1.0000
  S   S78       1.0  0.47658  0.45675  0.85131  1.0000
  C   C563      1.0  0.14914  0.02280  0.79814  1.0000
  S   S79       1.0  0.37779  0.49055  0.85632  1.0000
  Fe  Fe41      1.0  0.39556  0.46661  0.88045  1.0000
  S   S80       1.0  0.37394  0.45516  0.91051  1.0000
  Fe  Fe42      1.0  0.39335  0.47001  0.82880  1.0000
  S   S81       1.0  0.37745  0.45840  0.79624  1.0000
  S   S82       1.0  0.42663  0.48725  0.88190  1.0000
  S   S83       1.0  0.42452  0.49104  0.82663  1.0000
  Fe  Fe43      1.0  0.06796  0.16810  0.92069  1.0000
  S   S84       1.0  0.07877  0.15177  0.88849  1.0000
  Fe  Fe44      1.0  0.11348  0.19108  0.92615  1.0000
  S   S85       1.0  0.12767  0.17621  0.89440  1.0000
  S   S86       1.0  0.13113  0.21797  0.94574  1.0000
  Fe  Fe45      1.0  0.09415  0.18526  0.87907  1.0000
  S   S87       1.0  0.09517  0.19866  0.84269  1.0000
  Fe  Fe46      1.0  0.11141  0.14406  0.90589  1.0000
  S   S88       1.0  0.13084  0.11055  0.90612  1.0000
  S   S89       1.0  0.08081  0.20215  0.91004  1.0000
  S   S90       1.0  0.09974  0.15829  0.93894  1.0000
  C   C564      1.0  0.12461  0.30902  0.86640  1.0000
  H   H462      1.0  0.02324  0.27516  0.89801  1.0000
  S   S91       1.0  0.06860  0.29700  0.80475  1.0000
  S   S92       1.0  0.10557  0.02980  0.84395  1.0000
  C   C565      1.0  0.13494  0.02038  0.99333  1.0000
  C   C566      1.0  0.16252  0.05976  0.95185  1.0000
  C   C567      1.0  0.14951  0.21390  0.96883  1.0000
  C   C568      1.0  0.15729  0.23282  0.97976  1.0000
  C   C569      1.0  0.21994  0.04859  0.77996  1.0000
  C   C570      1.0  0.17922  0.20908  0.00561  1.0000
  C   C571      1.0  0.17153  0.19017  0.99460  1.0000
  C   C572      1.0  0.15663  0.19252  0.97644  1.0000
  C   C573      1.0  0.07971  0.26371  0.89726  1.0000
  H   H463      1.0  0.11709  0.26171  0.85043  1.0000
  C   C574      1.0  0.32524  0.49043  0.96646  1.0000
  H   H464      1.0  0.15085  0.17781  0.96820  1.0000
  C   C575      1.0  0.12345  0.08834  0.88865  1.0000
  C   C576      1.0  0.13479  0.06746  0.89100  1.0000
  C   C577      1.0  0.12947  0.04938  0.87747  1.0000
  C   C578      1.0  0.11275  0.05209  0.86133  1.0000
  C   C579      1.0  0.10139  0.07297  0.85893  1.0000
  C   C580      1.0  0.10667  0.09103  0.87256  1.0000
  H   H465      1.0  0.14771  0.06523  0.90341  1.0000
  H   H466      1.0  0.13827  0.03336  0.87956  1.0000
  H   H467      1.0  0.08844  0.07518  0.84648  1.0000
  H   H468      1.0  0.09785  0.10702  0.87053  1.0000
  C   C581      1.0  0.08743  0.22597  0.83233  1.0000
  C   C582      1.0  0.07418  0.24079  0.84502  1.0000
  C   C583      1.0  0.06875  0.26248  0.83637  1.0000
  C   C584      1.0  0.07629  0.26954  0.81483  1.0000
  C   C585      1.0  0.08932  0.25460  0.80200  1.0000
  C   C586      1.0  0.09478  0.23290  0.81069  1.0000
  H   H469      1.0  0.06802  0.23541  0.86140  1.0000
  H   H470      1.0  0.05846  0.27380  0.84635  1.0000
  H   H471      1.0  0.09513  0.25972  0.78536  1.0000
  H   H472      1.0  0.10490  0.22149  0.80064  1.0000
  C   C587      1.0  0.38356  0.44637  0.93741  1.0000
  C   C588      1.0  0.36762  0.44159  0.95453  1.0000
  C   C589      1.0  0.37448  0.43400  0.97600  1.0000
  C   C590      1.0  0.39737  0.43060  0.98035  1.0000
  C   C591      1.0  0.41331  0.43556  0.96329  1.0000
  C   C592      1.0  0.40648  0.44385  0.94206  1.0000
  H   H473      1.0  0.34985  0.44361  0.95112  1.0000
  H   H474      1.0  0.36208  0.43004  0.98892  1.0000
  H   H475      1.0  0.43106  0.43291  0.96650  1.0000
  H   H476      1.0  0.41893  0.44792  0.92921  1.0000
  C   C593      1.0  0.34997  0.46290  0.78509  1.0000
  C   C594      1.0  0.12381  0.29987  0.91694  1.0000
  H   H477      1.0  0.09372  0.10571  0.94099  1.0000
  C   C595      1.0  0.33185  0.47132  0.79794  1.0000
  H   H478      1.0  0.17680  0.06010  0.86041  1.0000
  C   C596      1.0  0.09615  0.02013  0.93442  1.0000
  H   H479      1.0  0.33446  0.47576  0.81518  1.0000
  H   H480      1.0  0.12376  0.28168  0.97179  1.0000
  C   C597      1.0  0.13699  0.33684  0.82955  1.0000
  C   C598      1.0  0.47545  0.42014  0.82342  1.0000
  C   C599      1.0  0.48867  0.43434  0.83570  1.0000
  C   C600      1.0  0.17954  0.04306  0.81448  1.0000
  C   C601      1.0  0.22912  0.40429  0.83021  1.0000
  H   H481      1.0  0.45739  0.42297  0.82298  1.0000
  H   H482      1.0  0.14159  0.34762  0.81530  1.0000
  H   H483      1.0  0.19086  0.38414  0.86869  1.0000
  H   H484      1.0  0.47523  0.39126  0.80228  1.0000
  C   C602      1.0  0.36843  0.40616  0.83144  1.0000
  C   C603      1.0  0.12956  0.32230  0.92005  1.0000
  C   C604      1.0  0.18149  0.06481  0.93853  1.0000
  H   H485      1.0  0.36961  0.49076  0.94512  1.0000
  H   H486      1.0  0.41678  0.38107  0.93199  1.0000
  C   C605      1.0  0.46407  0.45719  0.77586  1.0000
  H   H487      1.0  0.15203  0.24943  0.97395  1.0000
  C   C606      1.0  0.11022  0.05822  0.97021  1.0000
  C   C607      1.0  0.38359  0.37798  0.91781  1.0000
  C   C608      1.0  0.43806  0.37626  0.87278  1.0000
  H   H488      1.0  0.15154  0.26115  0.91377  1.0000
  C   C609      1.0  0.46676  0.49753  0.77073  1.0000
  C   C610      1.0  0.09876  0.06237  0.99060  1.0000
  H   H489      1.0  0.10489  0.32875  0.81594  1.0000
  C   C611      1.0  0.21987  0.36315  0.79383  1.0000
  C   C612      1.0  0.44783  0.41703  0.89226  1.0000
  C   C613      1.0  0.07203  0.30301  0.88833  1.0000
  H   H490      1.0  0.18749  0.42204  0.79477  1.0000
  H   H491      1.0  0.20228  0.05159  0.77655  1.0000
  H   H492      1.0  0.43040  0.44439  0.77653  1.0000
  H   H493      1.0  0.07342  0.11282  0.97693  1.0000
  C   C614      1.0  0.33936  0.48997  0.98515  1.0000
  H   H494      1.0  0.25660  0.03741  0.82246  1.0000
  C   C615      1.0  0.22789  0.08059  0.84396  1.0000
  H   H495      1.0  0.05061  0.24366  0.90430  1.0000
  C   C616      1.0  0.02582  0.13104  0.84774  1.0000
  C   C617      1.0  0.22162  0.43388  0.79304  1.0000
  C   C618      1.0  0.14649  0.13173  0.00487  1.0000
  H   H496      1.0  0.47219  0.37685  0.85967  1.0000
  H   H497      1.0  0.34859  0.37351  0.90986  1.0000
  H   H498      1.0  0.16294  0.20770  0.86808  1.0000
  C   C619      1.0  0.09517  0.09369  0.95494  1.0000
  C   C620      1.0  0.32039  0.45676  0.99968  1.0000
  H   H499      1.0  0.03698  0.31327  0.88807  1.0000
  C   C621      1.0  0.08757  0.28501  0.89094  1.0000
  P   P19       1.0  0.20768  0.04335  0.82551  1.0000
  C   C622      1.0  0.10834  0.07412  0.95245  1.0000
  C   C623      1.0  0.19203  0.08891  0.87405  1.0000
  H   H500      1.0  0.07323  0.15837  0.83161  1.0000
  H   H501      1.0  0.07659  0.08511  0.00869  1.0000
  H   H502      1.0  0.03257  0.19451  0.88049  1.0000
  C   C624      1.0  0.22060  0.38524  0.78504  1.0000
  H   H503      1.0  0.24183  0.07780  0.83236  1.0000
  C   C625      1.0  0.05424  0.20453  0.97952  1.0000
  C   C626      1.0  0.04116  0.27800  0.89630  1.0000
  S   S93       1.0  0.06777  0.35188  0.76958  1.0000
  C   C627      1.0  0.06337  0.19297  0.99808  1.0000
  C   C628      1.0  0.26559  0.03904  0.78738  1.0000
  C   C629      1.0  0.13194  0.31514  0.96021  1.0000
  C   C630      1.0  0.20920  0.06659  0.84434  1.0000
  H   H504      1.0  0.20745  0.32981  0.78949  1.0000
  H   H505      1.0  0.21682  0.40202  0.89464  1.0000
  H   H506      1.0  0.22762  0.35876  0.80971  1.0000
  H   H507      1.0  0.13841  0.34708  0.94392  1.0000
  C   C631      1.0  0.31022  0.47383  0.78853  1.0000
  H   H508      1.0  0.39204  0.28366  0.86983  1.0000
  H   H509      1.0  0.40134  0.48827  0.97238  1.0000
  H   H510      1.0  0.47210  0.44083  0.77865  1.0000
  C   C632      1.0  0.05657  0.26022  0.89983  1.0000
  C   C633      1.0  0.13240  0.26405  0.88297  1.0000
  H   H511      1.0  0.21095  0.11705  0.88448  1.0000
  C   C634      1.0  0.08531  0.22997  0.97899  1.0000
  C   C635      1.0  0.04072  0.17427  0.83733  1.0000
  H   H512      1.0  0.29858  0.47416  0.94960  1.0000
  C   C636      1.0  0.19001  0.04926  0.92317  1.0000
  S   S94       1.0  0.40681  0.41851  0.00609  1.0000
  H   H513      1.0  0.03881  0.19889  0.97230  1.0000
  C   C637      1.0  0.30915  0.47391  0.96424  1.0000
  H   H514      1.0  0.16951  0.03139  0.99153  1.0000
  H   H515      1.0  0.18934  0.08094  0.93986  1.0000
  P   P20       1.0  0.39340  0.37677  0.88893  1.0000
  C   C638      1.0  0.20994  0.39350  0.83889  1.0000
  H   H516      1.0  0.04713  0.19094  0.83403  1.0000
  C   C639      1.0  0.21196  0.01519  0.86386  1.0000
  H   H517      1.0  0.03225  0.22591  0.77440  1.0000
  C   C640      1.0  0.37655  0.33912  0.86837  1.0000
  C   C641      1.0  0.11013  0.31231  0.84814  1.0000
  C   C642      1.0  0.35303  0.42224  0.83952  1.0000
  C   C643      1.0  0.15186  0.33307  0.84728  1.0000
  C   C644      1.0  0.09438  0.21863  0.99772  1.0000
  H   H518      1.0  0.43440  0.36095  0.86434  1.0000
  C   C645      1.0  0.21420  0.01714  0.84036  1.0000
  C   C646      1.0  0.22023  0.40267  0.87669  1.0000
  C   C647      1.0  0.04830  0.13424  0.84147  1.0000
  H   H519      1.0  0.29631  0.48012  0.79873  1.0000
  P   P21       1.0  0.23413  0.40682  0.80027  1.0000
  H   H520      1.0  0.15772  0.31572  0.87883  1.0000
  C   C648      1.0  0.41988  0.47889  0.00171  1.0000
  C   C649      1.0  0.44064  0.45917  0.77459  1.0000
  C   C650      1.0  0.23889  0.41413  0.86811  1.0000
  H   H521      1.0  0.45139  0.43327  0.89901  1.0000
  H   H522      1.0  0.48094  0.41266  0.87759  1.0000
  C   C651      1.0  0.17955  0.02866  0.92117  1.0000
  S   S95       1.0  0.03565  0.16397  0.94153  1.0000
  C   C652      1.0  0.39300  0.34740  0.88241  1.0000
  C   C653      1.0  0.42637  0.40812  0.89499  1.0000
  H   H523      1.0  0.39280  0.38026  0.84000  1.0000
  H   H524      1.0  0.33846  0.43752  0.86896  1.0000
  C   C654      1.0  0.40162  0.48892  0.99049  1.0000
  C   C655      1.0  0.13381  0.32981  0.94160  1.0000
  C   C656      1.0  0.21060  0.10287  0.87345  1.0000
  C   C657      1.0  0.17195  0.23046  0.99810  1.0000
  H   H525      1.0  0.19799  0.38626  0.82781  1.0000
  H   H526      1.0  0.35807  0.33108  0.98947  1.0000
  H   H527      1.0  0.36226  0.37997  0.97994  1.0000
  H   H528      1.0  0.09428  0.24378  0.97109  1.0000
  C   C658      1.0  0.47713  0.47635  0.77383  1.0000
  H   H529      1.0  0.20455  0.05325  0.91269  1.0000
  H   H530      1.0  0.09740  0.15833  0.99044  1.0000
  H   H531      1.0  0.17013  0.45877  0.78391  1.0000
  H   H532      1.0  0.20623  0.02927  0.87364  1.0000
  C   C659      1.0  0.08561  0.08205  0.99306  1.0000
  H   H533      1.0  0.17713  0.17359  0.00018  1.0000
  C   C660      1.0  0.40836  0.30948  0.88776  1.0000
  C   C661      1.0  0.12116  0.28548  0.93586  1.0000
  C   C662      1.0  0.20176  0.47573  0.78143  1.0000
  C   C663      1.0  0.08331  0.20021  0.00770  1.0000
  H   H534      1.0  0.33508  0.37516  0.94933  1.0000
  H   H535      1.0  0.34449  0.43369  0.82787  1.0000
  C   C664      1.0  0.36818  0.37885  0.96266  1.0000
  H   H536      1.0  0.12485  0.13009  0.97635  1.0000
  H   H537      1.0  0.13042  0.33413  0.90600  1.0000
  C   C665      1.0  0.34953  0.42431  0.86264  1.0000
  H   H538      1.0  0.13668  0.22613  0.84110  1.0000
  C   C666      1.0  0.35899  0.32463  0.00661  1.0000
  C   C667      1.0  0.43023  0.48030  0.77144  1.0000
  H   H539      1.0  0.29431  0.44424  0.97911  1.0000
  C   C668      1.0  0.38375  0.49895  0.00269  1.0000
  C   C669      1.0  0.02483  0.25190  0.79796  1.0000
  H   H540      1.0  0.09429  0.30375  0.84754  1.0000
  C   C670      1.0  0.45953  0.38523  0.87005  1.0000
  C   C671      1.0  0.22856  0.09865  0.85849  1.0000
  C   C672      1.0  0.26364  0.40541  0.79241  1.0000
  C   C673      1.0  0.27979  0.39590  0.80701  1.0000
  C   C674      1.0  0.30270  0.39609  0.80101  1.0000
  H   H541      1.0  0.41206  0.48131  0.77091  1.0000
  H   H542      1.0  0.13456  0.07801  0.80298  1.0000
  H   H543      1.0  0.28317  0.03474  0.79017  1.0000
  H   H544      1.0  0.36365  0.30990  0.85285  1.0000
  C   C675      1.0  0.36126  0.41016  0.87770  1.0000
  H   H545      1.0  0.03107  0.20718  0.91953  1.0000
  H   H546      1.0  0.15874  0.11967  0.99835  1.0000
  C   C676      1.0  0.24319  0.41519  0.84495  1.0000
  H   H547      1.0  0.49528  0.47474  0.77506  1.0000
  H   H548      1.0  0.17795  0.09236  0.88545  1.0000
  H   H549      1.0  0.19421  0.49178  0.77641  1.0000
  C   C677      1.0  0.23496  0.45285  0.78990  1.0000
  C   C678      1.0  0.15185  0.03914  0.94974  1.0000
  C   C679      1.0  0.14787  0.25385  0.89789  1.0000
  H   H550      1.0  0.27482  0.38859  0.82311  1.0000
  H   H551      1.0  0.31521  0.38948  0.81260  1.0000
  C   C680      1.0  0.15699  0.02219  0.00117  1.0000
  C   C681      1.0  0.12546  0.29303  0.95735  1.0000
  H   H552      1.0  0.41334  0.41759  0.90381  1.0000
  H   H553      1.0  0.37190  0.40543  0.81353  1.0000
  H   H554      1.0  0.42063  0.29799  0.89535  1.0000
  C   C682      1.0  0.42152  0.38737  0.88585  1.0000
  H   H555      1.0  0.24988  0.42249  0.87940  1.0000
  H   H556      1.0  0.25730  0.42478  0.83851  1.0000
  C   C683      1.0  0.08378  0.09768  0.97521  1.0000
  C   C684      1.0  0.22750  0.04529  0.80208  1.0000
  H   H557      1.0  0.25303  0.45170  0.79197  1.0000
  H   H558      1.0  0.16991  0.22531  0.90457  1.0000
  C   C685      1.0  0.13995  0.23397  0.85689  1.0000
  C   C686      1.0  0.15876  0.23356  0.89254  1.0000
  C   C687      1.0  0.12874  0.25406  0.86232  1.0000
  H   H559      1.0  0.16816  0.34083  0.84673  1.0000
  H   H560      1.0  0.13532  0.32093  0.97690  1.0000
  C   C688      1.0  0.36060  0.37562  0.92306  1.0000
  C   C689      1.0  0.40865  0.33237  0.89239  1.0000
  C   C690      1.0  0.11623  0.32632  0.82994  1.0000
  C   C691      1.0  0.37629  0.31620  0.86379  1.0000
  C   C692      1.0  0.12742  0.13765  0.99244  1.0000
  C   C693      1.0  0.38025  0.39202  0.84648  1.0000
  C   C694      1.0  0.35866  0.30148  0.01112  1.0000
  C   C695      1.0  0.14580  0.31902  0.86553  1.0000
  H   H561      1.0  0.40298  0.38238  0.97109  1.0000
  C   C696      1.0  0.05568  0.15582  0.83608  1.0000
  C   C697      1.0  0.51210  0.43024  0.83630  1.0000
  P   P22       1.0  0.12701  0.03273  0.96642  1.0000
  C   C698      1.0  0.39224  0.30141  0.87340  1.0000
  C   C699      1.0  0.06525  0.22294  0.96989  1.0000
  C   C700      1.0  0.39117  0.38032  0.95765  1.0000
  H   H562      1.0  0.42111  0.33839  0.90371  1.0000
  H   H563      1.0  0.11903  0.04221  0.79065  1.0000
  C   C701      1.0  0.48561  0.40214  0.81177  1.0000
  C   C702      1.0  0.20863  0.34668  0.78236  1.0000
  C   C703      1.0  0.13612  0.04260  0.79668  1.0000
  C   C704      1.0  0.30675  0.45706  0.98082  1.0000
  H   H564      1.0  0.15603  0.07207  0.96352  1.0000
  C   C705      1.0  0.04890  0.29942  0.89066  1.0000
  H   H565      1.0  0.11593  0.26830  0.93401  1.0000
  H   H566      1.0  0.09144  0.24976  0.90010  1.0000
  C   C706      1.0  0.19140  0.07073  0.85972  1.0000
  P   P23       1.0  0.11741  0.28992  0.88943  1.0000
  C   C707      1.0  0.39889  0.37985  0.93535  1.0000
  C   C708      1.0  0.25050  0.04067  0.80562  1.0000
  C   C709      1.0  0.33664  0.47314  0.00188  1.0000
  C   C710      1.0  0.46447  0.40546  0.88003  1.0000
  C   C711      1.0  0.37652  0.39372  0.86975  1.0000
  C   C712      1.0  0.15480  0.22362  0.87206  1.0000
  H   H567      1.0  0.11692  0.07137  0.93652  1.0000
  H   H568      1.0  0.07778  0.31980  0.88436  1.0000
  H   H569      1.0  0.05850  0.23147  0.95511  1.0000
  H   H570      1.0  0.35905  0.41283  0.89550  1.0000
  H   H571      1.0  0.36382  0.35023  0.86108  1.0000
  C   C713      1.0  0.35291  0.37633  0.94540  1.0000
  C   C714      1.0  0.20567  0.39250  0.86207  1.0000
  C   C715      1.0  0.22509  0.47361  0.78378  1.0000
  C   C716      1.0  0.50904  0.39805  0.81229  1.0000
  H   H572      1.0  0.17311  0.07893  0.81736  1.0000
  H   H573      1.0  0.24293  0.10954  0.85804  1.0000
  H   H574      1.0  0.09376  0.03781  0.93034  1.0000
  H   H575      1.0  0.06017  0.12010  0.84125  1.0000
  C   C717      1.0  0.19813  0.43631  0.79153  1.0000
  C   C718      1.0  0.01650  0.20966  0.90903  1.0000
  C   C719      1.0  0.17071  0.02299  0.80711  1.0000
  H   H576      1.0  0.23568  0.48797  0.78055  1.0000
  H   H577      1.0  0.43326  0.47057  0.99223  1.0000
  H   H578      1.0  0.09975  0.05046  0.00455  1.0000
  H   H579      1.0  0.35744  0.28996  0.99745  1.0000
  C   C720      1.0  0.18824  0.45713  0.78560  1.0000
  C   C721      1.0  0.11195  0.15379  0.00042  1.0000
  H   H580      1.0  0.05490  0.17823  0.00462  1.0000
  H   H581      1.0  0.15901  0.41629  0.76871  1.0000
  H   H582      1.0  0.17768  0.24517  0.00638  1.0000
  C   C722      1.0  0.16661  0.06307  0.81227  1.0000
  C   C723      1.0  0.44315  0.49974  0.76992  1.0000
  C   C724      1.0  0.30643  0.46827  0.76609  1.0000
  C   C725      1.0  0.14485  0.06274  0.80373  1.0000
  H   H583      1.0  0.51147  0.38967  0.90605  1.0000
  Fe  Fe47      1.0  0.07772  0.31506  0.77140  1.0000
  H   H584      1.0  0.11023  0.22414  0.00391  1.0000
  H   H585      1.0  0.03189  0.26514  0.78731  1.0000
  H   H586      1.0  0.32662  0.50351  0.95357  1.0000
  H   H587      1.0  0.01884  0.14639  0.89958  1.0000
  C   C726      1.0  0.16063  0.02358  0.93442  1.0000
  C   C727      1.0  0.01606  0.25695  0.81920  1.0000
  H   H588      1.0  0.01638  0.27410  0.82483  1.0000
  C   C728      1.0  0.01718  0.20232  0.88692  1.0000
  H   H589      1.0  0.38233  0.50587  0.90830  1.0000
  C   C729      1.0  0.02507  0.22978  0.79074  1.0000
  H   H590      1.0  0.02025  0.11439  0.85251  1.0000
  C   C730      1.0  0.37236  0.50859  0.94310  1.0000
  Fe  Fe48      1.0  0.41004  0.50985  0.85601  1.0000
  H   H591      1.0  0.18581  0.01654  0.90923  1.0000
  C   C731      1.0  0.27060  0.41365  0.77118  1.0000
  C   C732      1.0  0.30954  0.40517  0.78018  1.0000
  C   C733      1.0  0.01661  0.21265  0.80479  1.0000
  H   H592      1.0  0.01723  0.19555  0.79904  1.0000
  C   C734      1.0  0.01796  0.17117  0.84317  1.0000
  H   H593      1.0  0.31845  0.44378  0.01262  1.0000
  P   P24       1.0  0.35985  0.51156  0.98836  1.0000
  H   H594      1.0  0.47714  0.51220  0.76938  1.0000
  C   C735      1.0  0.21168  0.39010  0.76374  1.0000
  H   H595      1.0  0.32730  0.40595  0.77571  1.0000
  C   C736      1.0  0.25785  0.04191  0.76546  1.0000
  C   C737      1.0  0.29344  0.41359  0.76516  1.0000
  Fe  Fe49      1.0  0.16718  0.91422  0.03670  1.0000
  S   S96       1.0  0.16614  0.88422  0.06094  1.0000
  Fe  Fe50      1.0  0.18363  0.94547  0.07263  1.0000
  S   S97       1.0  0.18350  0.91798  0.09883  1.0000
  S   S98       1.0  0.19102  0.98190  0.08005  1.0000
  Fe  Fe51      1.0  0.19975  0.89596  0.07250  1.0000
  S   S99       1.0  0.23067  0.87575  0.08528  1.0000
  Fe  Fe52      1.0  0.15015  0.90860  0.08503  1.0000
  S   S100      1.0  0.12132  0.90433  0.11041  1.0000
  S   S101      1.0  0.20182  0.92442  0.04670  1.0000
  S   S102      1.0  0.14919  0.93764  0.06031  1.0000
  Fe  Fe53      1.0  0.49879  0.70313  0.22196  1.0000
  Fe  Fe54      1.0  0.47077  0.74150  0.20001  1.0000
  S   S103      1.0  0.44899  0.74696  0.23078  1.0000
  S   S104      1.0  0.46891  0.75641  0.16462  1.0000
  Fe  Fe55      1.0  0.44813  0.70916  0.23243  1.0000
  C   C738      1.0  0.11046  0.98720  0.09241  1.0000
  S   S105      1.0  0.50269  0.74065  0.21977  1.0000
  S   S106      1.0  0.46803  0.70414  0.20059  1.0000
  Fe  Fe56      1.0  0.34840  0.73347  0.06660  1.0000
  S   S107      1.0  0.33083  0.75963  0.08735  1.0000
  S   S108      1.0  0.34669  0.69558  0.07081  1.0000
  Fe  Fe57      1.0  0.37424  0.76777  0.03802  1.0000
  S   S109      1.0  0.35933  0.79712  0.05719  1.0000
  Fe  Fe58      1.0  0.36495  0.77523  0.08816  1.0000
  S   S110      1.0  0.37515  0.78697  0.12233  1.0000
  Fe  Fe59      1.0  0.32617  0.77984  0.05518  1.0000
  S   S111      1.0  0.29317  0.79732  0.04361  1.0000
  S   S112      1.0  0.38277  0.74781  0.06940  1.0000
  S   S113      1.0  0.34079  0.75181  0.03394  1.0000
  Fe  Fe60      1.0  0.34385  0.59699  0.20123  1.0000
  S   S114      1.0  0.31667  0.62285  0.20645  1.0000
  S   S115      1.0  0.38008  0.60025  0.21167  1.0000
  Fe  Fe61      1.0  0.31255  0.56566  0.17880  1.0000
  S   S116      1.0  0.28254  0.58969  0.18195  1.0000
  C   C739      1.0  0.22337  0.00167  0.14623  1.0000
  Fe  Fe62      1.0  0.30704  0.61635  0.17120  1.0000
  S   S117      1.0  0.29647  0.64895  0.15339  1.0000
  Fe  Fe63      1.0  0.29365  0.59500  0.21735  1.0000
  H   H596      1.0  0.25246  0.56091  0.24874  1.0000
  S   S118      1.0  0.33598  0.59197  0.16499  1.0000
  S   S119      1.0  0.32214  0.56927  0.21507  1.0000
  S   S120      1.0  0.02889  0.85962  0.08559  1.0000
  C   C740      1.0  0.31392  0.66159  0.13261  1.0000
  C   C741      1.0  0.32535  0.64877  0.11651  1.0000
  C   C742      1.0  0.33618  0.65946  0.09808  1.0000
  C   C743      1.0  0.33587  0.68299  0.09579  1.0000
  C   C744      1.0  0.32558  0.69582  0.11261  1.0000
  C   C745      1.0  0.31438  0.68512  0.13080  1.0000
  H   H597      1.0  0.32490  0.63063  0.11766  1.0000
  H   H598      1.0  0.34420  0.64944  0.08518  1.0000
  H   H599      1.0  0.32527  0.71395  0.11103  1.0000
  H   H600      1.0  0.30559  0.69508  0.14322  1.0000
  C   C746      1.0  0.40505  0.67012  0.22749  1.0000
  H   H601      1.0  0.47793  0.51991  0.21648  1.0000
  H   H602      1.0  0.25218  0.68254  0.22455  1.0000
  C   C747      1.0  0.38971  0.62731  0.21703  1.0000
  C   C748      1.0  0.41084  0.62964  0.22682  1.0000
  C   C749      1.0  0.41850  0.65102  0.23206  1.0000
  C   C750      1.0  0.13699  0.00184  0.15303  1.0000
  C   C751      1.0  0.02267  0.80634  0.02569  1.0000
  C   C752      1.0  0.44216  0.76308  0.15326  1.0000
  C   C753      1.0  0.42404  0.76996  0.16697  1.0000
  C   C754      1.0  0.40357  0.77719  0.15728  1.0000
  C   C755      1.0  0.40076  0.77672  0.13393  1.0000
  C   C756      1.0  0.41860  0.76897  0.12030  1.0000
  C   C757      1.0  0.43936  0.76260  0.12991  1.0000
  H   H603      1.0  0.42606  0.77051  0.18495  1.0000
  H   H604      1.0  0.38989  0.78320  0.16792  1.0000
  H   H605      1.0  0.41667  0.76871  0.10230  1.0000
  H   H606      1.0  0.45335  0.75748  0.11919  1.0000
  C   C758      1.0  0.09548  0.89241  0.10310  1.0000
  C   C759      1.0  0.07721  0.89287  0.11849  1.0000
  C   C760      1.0  0.05655  0.88325  0.11328  1.0000
  C   C761      1.0  0.05414  0.87274  0.09276  1.0000
  C   C762      1.0  0.07237  0.87239  0.07737  1.0000
  C   C763      1.0  0.09288  0.88235  0.08240  1.0000
  H   H607      1.0  0.07905  0.90061  0.13455  1.0000
  H   H608      1.0  0.04263  0.88362  0.12524  1.0000
  H   H609      1.0  0.07063  0.86434  0.06145  1.0000
  H   H610      1.0  0.10679  0.88191  0.07041  1.0000
  C   C764      1.0  0.24772  0.85378  0.07345  1.0000
  C   C765      1.0  0.24105  0.84182  0.05490  1.0000
  C   C766      1.0  0.25504  0.82438  0.04640  1.0000
  C   C767      1.0  0.27592  0.81873  0.05609  1.0000
  C   C768      1.0  0.28243  0.83042  0.07489  1.0000
  C   C769      1.0  0.26835  0.84775  0.08353  1.0000
  H   H611      1.0  0.22497  0.84573  0.04735  1.0000
  C   C770      1.0  0.07062  0.99460  0.09932  1.0000
  H   H612      1.0  0.29839  0.82626  0.08263  1.0000
  H   H613      1.0  0.27350  0.85666  0.09806  1.0000
  C   C771      1.0  0.26687  0.95143  0.10675  1.0000
  C   C772      1.0  0.14765  0.99906  0.03398  1.0000
  C   C773      1.0  0.32026  0.87490  0.10599  1.0000
  H   H614      1.0  0.49600  0.54874  0.09197  1.0000
  C   C774      1.0  0.46374  0.59670  0.09304  1.0000
  H   H615      1.0  0.36356  0.62774  0.14641  1.0000
  C   C775      1.0  0.20376  0.98911  0.10554  1.0000
  C   C776      1.0  0.20985  0.97275  0.12173  1.0000
  C   C777      1.0  0.21943  0.97902  0.14201  1.0000
  H   H616      1.0  0.11273  0.99470  0.17968  1.0000
  P   P25       1.0  0.04781  0.76230  0.25699  1.0000
  H   H617      1.0  0.20724  0.95524  0.11867  1.0000
  H   H618      1.0  0.22387  0.96620  0.15445  1.0000
  H   H619      1.0  0.12005  0.59267  0.16651  1.0000
  C   C778      1.0  0.24812  0.54063  0.19060  1.0000
  C   C779      1.0  0.43709  0.98016  0.25452  1.0000
  C   C780      1.0  0.21762  0.90581  0.14873  1.0000
  C   C781      1.0  0.38689  0.65205  0.13348  1.0000
  C   C782      1.0  0.40405  0.65684  0.11763  1.0000
  C   C783      1.0  0.41045  0.64048  0.10203  1.0000
  P   P26       1.0  0.41795  0.68358  0.11759  1.0000
  C   C784      1.0  0.40137  0.70235  0.13494  1.0000
  C   C785      1.0  0.44622  0.68072  0.12836  1.0000
  C   C786      1.0  0.45650  0.69929  0.13754  1.0000
  C   C787      1.0  0.47848  0.69741  0.14538  1.0000
  H   H620      1.0  0.02554  0.73081  0.22787  1.0000
  H   H621      1.0  0.30786  0.85721  0.13549  1.0000
  C   C788      1.0  0.45851  0.66036  0.12694  1.0000
  C   C789      1.0  0.38347  0.71505  0.12570  1.0000
  C   C790      1.0  0.37019  0.72905  0.13929  1.0000
  C   C791      1.0  0.37456  0.73029  0.16220  1.0000
  C   C792      1.0  0.39199  0.71726  0.17165  1.0000
  C   C793      1.0  0.40525  0.70319  0.15812  1.0000
  C   C794      1.0  0.41998  0.69562  0.08945  1.0000
  C   C795      1.0  0.40599  0.68846  0.07241  1.0000
  C   C796      1.0  0.40829  0.69730  0.05050  1.0000
  C   C797      1.0  0.42437  0.71353  0.04550  1.0000
  C   C798      1.0  0.43784  0.72126  0.06249  1.0000
  C   C799      1.0  0.43559  0.71247  0.08439  1.0000
  H   H622      1.0  0.16430  0.54222  0.13829  1.0000
  H   H623      1.0  0.38112  0.66434  0.14549  1.0000
  H   H624      1.0  0.42327  0.64398  0.08936  1.0000
  H   H625      1.0  0.44753  0.71527  0.13886  1.0000
  H   H626      1.0  0.48601  0.71177  0.15285  1.0000
  H   H627      1.0  0.45115  0.64591  0.11988  1.0000
  H   H628      1.0  0.37965  0.71413  0.10804  1.0000
  H   H629      1.0  0.35683  0.73931  0.13186  1.0000
  H   H630      1.0  0.36473  0.74165  0.17258  1.0000
  H   H631      1.0  0.39545  0.71821  0.18943  1.0000
  H   H632      1.0  0.41848  0.69306  0.16585  1.0000
  H   H633      1.0  0.39285  0.67654  0.07605  1.0000
  H   H634      1.0  0.39701  0.69217  0.03758  1.0000
  H   H635      1.0  0.42581  0.72075  0.02867  1.0000
  H   H636      1.0  0.44960  0.73454  0.05877  1.0000
  H   H637      1.0  0.44580  0.71917  0.09734  1.0000
  H   H638      1.0  0.25939  0.63556  0.19969  1.0000
  C   C800      1.0  0.46813  0.61579  0.17801  1.0000
  H   H639      1.0  0.37921  0.73102  0.25464  1.0000
  H   H640      1.0  0.16298  0.00247  0.12696  1.0000
  H   H641      1.0  0.02585  0.68954  0.22695  1.0000
  H   H642      1.0  0.45487  0.66646  0.06006  1.0000
  C   C801      1.0  0.03634  0.72127  0.23921  1.0000
  C   C802      1.0  0.06787  0.97220  0.10674  1.0000
  H   H643      1.0  0.42114  0.61486  0.23066  1.0000
  C   C803      1.0  0.48326  0.53258  0.20423  1.0000
  S   S121      1.0  0.41251  0.69680  0.23651  1.0000
  H   H644      1.0  0.34861  0.96529  0.15820  1.0000
  C   C804      1.0  0.21206  0.54494  0.22117  1.0000
  H   H645      1.0  0.24966  0.81506  0.03224  1.0000
  H   H646      1.0  0.48385  0.58074  0.06722  1.0000
  C   C805      1.0  0.10778  0.96494  0.09965  1.0000
  C   C806      1.0  0.08670  0.95751  0.10694  1.0000
  C   C807      1.0  0.32857  0.56733  0.03233  1.0000
  C   C808      1.0  0.42919  0.94950  0.23010  1.0000
  H   H647      1.0  0.48434  0.60758  0.18022  1.0000
  C   C809      1.0  0.12393  0.96453  0.16343  1.0000
  H   H648      1.0  0.04644  0.77349  0.17437  1.0000
  H   H649      1.0  0.37524  0.59873  0.11916  1.0000
  H   H650      1.0  0.08510  0.94020  0.11264  1.0000
  H   H651      1.0  0.44204  0.66578  0.18948  1.0000
  H   H652      1.0  0.07670  0.93709  0.18709  1.0000
  H   H653      1.0  0.12737  0.56265  0.13900  1.0000
  C   C810      1.0  0.15160  0.99224  0.13693  1.0000
  H   H654      1.0  0.23523  0.57092  0.17487  1.0000
  C   C811      1.0  0.24545  0.52469  0.20798  1.0000
  H   H655      1.0  0.02902  0.81585  0.05973  1.0000
  C   C812      1.0  0.46528  0.63781  0.18536  1.0000
  C   C813      1.0  0.23602  0.91473  0.18312  1.0000
  C   C814      1.0  0.25409  0.92357  0.17066  1.0000
  C   C815      1.0  0.25774  0.98737  0.08830  1.0000
  C   C816      1.0  0.25033  0.97629  0.06956  1.0000
  C   C817      1.0  0.25138  0.95287  0.06921  1.0000
  C   C818      1.0  0.25955  0.94044  0.08771  1.0000
  H   H656      1.0  0.23622  0.91469  0.20131  1.0000
  H   H657      1.0  0.26826  0.92980  0.17957  1.0000
  C   C819      1.0  0.28169  0.67928  0.24503  1.0000
  H   H658      1.0  0.24320  0.98584  0.05557  1.0000
  H   H659      1.0  0.24543  0.94441  0.05471  1.0000
  H   H660      1.0  0.25991  0.92225  0.08725  1.0000
  C   C820      1.0  0.01662  0.81491  0.04664  1.0000
  H   H661      1.0  0.47910  0.64622  0.19299  1.0000
  H   H662      1.0  0.29669  0.70637  0.04399  1.0000
  C   C821      1.0  0.23662  0.64400  0.17277  1.0000
  H   H663      1.0  0.18820  0.61708  0.16268  1.0000
  H   H664      1.0  0.12696  0.99279  0.08692  1.0000
  C   C822      1.0  0.49043  0.67701  0.14430  1.0000
  H   H665      1.0  0.23498  0.91451  0.11809  1.0000
  C   C823      1.0  0.30603  0.67884  0.20437  1.0000
  H   H666      1.0  0.35534  0.52953  0.09571  1.0000
  C   C824      1.0  0.09186  0.00206  0.09226  1.0000
  H   H667      1.0  0.05645  0.00635  0.09890  1.0000
  H   H668      1.0  0.36275  0.57663  0.03805  1.0000
  H   H669      1.0  0.50272  0.57799  0.16078  1.0000
  C   C825      1.0  0.36139  0.54842  0.01622  1.0000
  C   C826      1.0  0.46365  0.57785  0.12974  1.0000
  H   H670      1.0  0.50720  0.67558  0.15109  1.0000
  C   C827      1.0  0.38292  0.54528  0.16039  1.0000
  C   C828      1.0  0.44062  0.96917  0.23423  1.0000
  C   C829      1.0  0.47777  0.56078  0.12106  1.0000
  H   H671      1.0  0.15962  0.56227  0.22693  1.0000
  H   H672      1.0  0.33547  0.67468  0.22449  1.0000
  S   S122      1.0  0.47855  0.70488  0.25449  1.0000
  C   C830      1.0  0.23287  0.55880  0.18853  1.0000
  H   H673      1.0  0.16306  0.96179  0.12116  1.0000
  C   C831      1.0  0.49998  0.67795  0.02563  1.0000
  H   H674      1.0  0.24712  0.65713  0.16566  1.0000
  H   H675      1.0  0.11371  0.98719  0.03596  1.0000
  H   H676      1.0  0.13833  0.93721  0.14435  1.0000
  C   C832      1.0  0.03252  0.91824  0.06517  1.0000
  C   C833      1.0  0.04942  0.73213  0.25481  1.0000
  C   C834      1.0  0.49703  0.56537  0.17287  1.0000
  C   C835      1.0  0.33616  0.53010  0.12688  1.0000
  H   H677      1.0  0.04321  0.90757  0.05481  1.0000
  H   H678      1.0  0.45222  0.97595  0.22169  1.0000
  C   C836      1.0  0.02838  0.94555  0.09470  1.0000
  H   H679      1.0  0.51075  0.64170  0.22029  1.0000
  C   C837      1.0  0.02149  0.80860  0.21194  1.0000
  C   C838      1.0  0.39170  0.55424  0.17968  1.0000
  C   C839      1.0  0.23071  0.61410  0.20041  1.0000
  C   C840      1.0  0.29463  0.89125  0.13353  1.0000
  H   H680      1.0  0.48293  0.54645  0.13148  1.0000
  C   C841      1.0  0.11566  0.77168  0.26123  1.0000
  C   C842      1.0  0.42924  0.61625  0.16634  1.0000
  C   C843      1.0  0.35195  0.56525  0.02963  1.0000
  C   C844      1.0  0.04740  0.91797  0.18055  1.0000
  C   C845      1.0  0.42651  0.63820  0.17379  1.0000
  H   H681      1.0  0.48007  0.68230  0.08809  1.0000
  C   C846      1.0  0.35373  0.70669  0.26209  1.0000
  C   C847      1.0  0.04346  0.94477  0.14125  1.0000
  H   H682      1.0  0.19373  0.55150  0.16480  1.0000
  C   C848      1.0  0.28372  0.70319  0.07789  1.0000
  C   C849      1.0  0.28831  0.71491  0.05778  1.0000
  C   C850      1.0  0.28301  0.73785  0.05583  1.0000
  C   C851      1.0  0.27330  0.74910  0.07404  1.0000
  C   C852      1.0  0.26846  0.73743  0.09424  1.0000
  C   C853      1.0  0.27415  0.71444  0.09619  1.0000
  P   P27       1.0  0.25847  0.75256  0.11846  1.0000
  C   C854      1.0  0.24118  0.73499  0.13655  1.0000
  C   C855      1.0  0.28365  0.76091  0.13220  1.0000
  C   C856      1.0  0.29405  0.74643  0.14809  1.0000
  C   C857      1.0  0.31413  0.75239  0.15799  1.0000
  C   C858      1.0  0.32423  0.77263  0.15175  1.0000
  C   C859      1.0  0.31430  0.78686  0.13555  1.0000
  C   C860      1.0  0.29416  0.78098  0.12567  1.0000
  C   C861      1.0  0.24045  0.73807  0.15985  1.0000
  C   C862      1.0  0.22761  0.72396  0.17390  1.0000
  C   C863      1.0  0.21503  0.70702  0.16474  1.0000
  C   C864      1.0  0.21503  0.70440  0.14149  1.0000
  C   C865      1.0  0.22791  0.71843  0.12741  1.0000
  C   C866      1.0  0.24091  0.77653  0.11033  1.0000
  C   C867      1.0  0.22699  0.77558  0.09158  1.0000
  C   C868      1.0  0.21384  0.79433  0.08495  1.0000
  C   C869      1.0  0.21421  0.81400  0.09720  1.0000
  C   C870      1.0  0.22756  0.81489  0.11619  1.0000
  C   C871      1.0  0.24066  0.79615  0.12292  1.0000
  H   H683      1.0  0.28859  0.68557  0.07963  1.0000
  C   C872      1.0  0.06305  0.93464  0.17569  1.0000
  H   H684      1.0  0.38161  0.55451  0.19506  1.0000
  H   H685      1.0  0.27020  0.76704  0.07253  1.0000
  H   H686      1.0  0.27188  0.70527  0.11197  1.0000
  H   H687      1.0  0.28692  0.73034  0.15252  1.0000
  H   H688      1.0  0.32216  0.74103  0.17006  1.0000
  H   H689      1.0  0.34020  0.77699  0.15883  1.0000
  H   H690      1.0  0.32281  0.80197  0.12997  1.0000
  H   H691      1.0  0.28731  0.79170  0.11235  1.0000
  H   H692      1.0  0.24990  0.75127  0.16719  1.0000
  H   H693      1.0  0.22738  0.72619  0.19190  1.0000
  H   H694      1.0  0.20514  0.69605  0.17564  1.0000
  H   H695      1.0  0.20505  0.69149  0.13433  1.0000
  H   H696      1.0  0.22762  0.71625  0.10942  1.0000
  H   H697      1.0  0.22655  0.76050  0.08186  1.0000
  H   H698      1.0  0.20362  0.79377  0.07013  1.0000
  H   H699      1.0  0.20444  0.82874  0.09179  1.0000
  H   H700      1.0  0.22801  0.83033  0.12540  1.0000
  H   H701      1.0  0.25080  0.79715  0.13776  1.0000
  H   H702      1.0  0.20368  0.89856  0.14021  1.0000
  C   C873      1.0  0.44448  0.64898  0.18322  1.0000
  C   C874      1.0  0.29400  0.95294  0.14782  1.0000
  C   C875      1.0  0.48053  0.65850  0.13489  1.0000
  C   C876      1.0  0.38423  0.66781  0.21718  1.0000
  C   C877      1.0  0.28256  0.68085  0.20429  1.0000
  H   H703      1.0  0.32940  0.99396  0.18187  1.0000
  H   H704      1.0  0.20050  0.80043  0.01628  1.0000
  H   H705      1.0  0.28490  0.88935  0.14898  1.0000
  H   H706      1.0  0.20004  0.62102  0.23344  1.0000
  C   C878      1.0  0.04215  0.93235  0.08054  1.0000
  C   C879      1.0  0.03646  0.69781  0.23865  1.0000
  C   C880      1.0  0.04958  0.68504  0.25370  1.0000
  C   C881      1.0  0.38336  0.61486  0.11869  1.0000
  C   C882      1.0  0.31732  0.67659  0.22472  1.0000
  S   S123      1.0  0.23604  0.00857  0.17182  1.0000
  H   H707      1.0  0.37392  0.68259  0.21339  1.0000
  H   H708      1.0  0.22888  0.88129  0.02616  1.0000
  C   C883      1.0  0.04708  0.76862  0.21038  1.0000
  H   H709      1.0  0.07319  0.96105  0.15277  1.0000
  P   P28       1.0  0.04063  0.96218  0.11611  1.0000
  C   C884      1.0  0.26597  0.97506  0.10681  1.0000
  C   C885      1.0  0.18126  0.59103  0.22726  1.0000
  C   C886      1.0  0.40011  0.61957  0.10256  1.0000
  C   C887      1.0  0.06106  0.94808  0.15617  1.0000
  H   H710      1.0  0.01743  0.90201  0.16984  1.0000
  C   C888      1.0  0.14029  0.56684  0.15070  1.0000
  H   H711      1.0  0.36619  0.53836  0.16102  1.0000
  C   C889      1.0  0.30715  0.91356  0.10125  1.0000
  C   C890      1.0  0.17553  0.61497  0.25942  1.0000
  H   H712      1.0  0.41927  0.57109  0.19407  1.0000
  C   C891      1.0  0.47400  0.56064  0.17524  1.0000
  H   H713      1.0  0.28711  0.74713  0.04045  1.0000
  P   P29       1.0  0.19507  0.58467  0.20073  1.0000
  C   C892      1.0  0.31765  0.95166  0.14673  1.0000
  C   C893      1.0  0.48511  0.56193  0.09861  1.0000
  H   H714      1.0  0.31839  0.62954  0.25472  1.0000
  C   C894      1.0  0.45634  0.59555  0.11546  1.0000
  H   H715      1.0  0.20377  0.89902  0.18179  1.0000
  H   H716      1.0  0.27102  0.98421  0.12121  1.0000
  H   H717      1.0  0.40492  0.60707  0.09038  1.0000
  H   H718      1.0  0.15279  0.99042  0.04938  1.0000
  H   H719      1.0  0.32981  0.89662  0.07817  1.0000
  C   C895      1.0  0.45010  0.60475  0.16841  1.0000
  C   C896      1.0  0.24358  0.63183  0.19188  1.0000
  C   C897      1.0  0.47821  0.57993  0.08464  1.0000
  C   C898      1.0  0.48571  0.68077  0.07079  1.0000
  H   H720      1.0  0.05728  0.75335  0.20946  1.0000
  C   C899      1.0  0.17777  0.56064  0.16543  1.0000
  H   H721      1.0  0.12208  0.95328  0.09970  1.0000
  H   H722      1.0  0.23666  0.60435  0.21480  1.0000
  C   C900      1.0  0.29413  0.91164  0.12112  1.0000
  S   S124      1.0  0.31040  0.52976  0.16653  1.0000
  H   H723      1.0  0.38878  0.53832  0.12549  1.0000
  C   C901      1.0  0.21776  0.90591  0.17216  1.0000
  H   H724      1.0  0.26519  0.97078  0.16209  1.0000
  C   C902      1.0  0.41313  0.56349  0.17908  1.0000
  H   H725      1.0  0.27391  0.68189  0.18842  1.0000
  H   H726      1.0  0.31546  0.67830  0.18860  1.0000
  C   C903      1.0  0.32003  0.89519  0.09366  1.0000
  C   C904      1.0  0.03968  0.77675  0.23123  1.0000
  C   C905      1.0  0.21490  0.56132  0.20403  1.0000
  C   C906      1.0  0.20749  0.01182  0.10983  1.0000
  C   C907      1.0  0.13807  0.95520  0.14695  1.0000
  H   H727      1.0  0.33013  0.86061  0.10002  1.0000
  P   P30       1.0  0.27722  0.93528  0.13077  1.0000
  H   H728      1.0  0.41017  0.64663  0.17314  1.0000
  H   H729      1.0  0.21136  0.64791  0.14744  1.0000
  C   C908      1.0  0.47866  0.67031  0.03254  1.0000
  C   C909      1.0  0.15283  0.58912  0.18132  1.0000
  H   H730      1.0  0.11353  0.95367  0.17387  1.0000
  C   C910      1.0  0.13618  0.58375  0.16619  1.0000
  C   C911      1.0  0.02964  0.91485  0.16601  1.0000
  P   P31       1.0  0.45354  0.57631  0.15849  1.0000
  C   C912      1.0  0.21058  0.60860  0.19016  1.0000
  H   H731      1.0  0.30731  0.92922  0.09159  1.0000
  H   H732      1.0  0.14941  0.60231  0.19319  1.0000
  H   H733      1.0  0.33553  0.54823  0.12760  1.0000
  C   C913      1.0  0.21652  0.63871  0.16247  1.0000
  C   C914      1.0  0.42620  0.56344  0.15919  1.0000
  C   C915      1.0  0.20347  0.62112  0.17115  1.0000
  H   H734      1.0  0.41486  0.60823  0.15940  1.0000
  C   C916      1.0  0.37678  0.63113  0.13409  1.0000
  C   C917      1.0  0.04120  0.78010  0.19046  1.0000
  H   H735      1.0  0.43452  0.65266  0.24015  1.0000
  C   C918      1.0  0.37658  0.64649  0.21192  1.0000
  C   C919      1.0  0.30769  0.87298  0.12599  1.0000
  H   H736      1.0  0.44977  0.53963  0.19298  1.0000
  C   C920      1.0  0.23548  0.91494  0.13620  1.0000
  C   C921      1.0  0.16109  0.55533  0.15030  1.0000
  C   C922      1.0  0.28338  0.96917  0.16133  1.0000
  C   C923      1.0  0.25376  0.92419  0.14704  1.0000
  C   C924      1.0  0.12348  0.98774  0.16658  1.0000
  C   C925      1.0  0.41409  0.94087  0.24621  1.0000
  C   C926      1.0  0.29610  0.98385  0.17356  1.0000
  H   H737      1.0  0.42681  0.55395  0.12417  1.0000
  H   H738      1.0  0.36049  0.64488  0.20405  1.0000
  C   C927      1.0  0.15196  0.96905  0.13381  1.0000
  H   H739      1.0  0.44460  0.60818  0.12161  1.0000
  C   C928      1.0  0.47158  0.67179  0.05501  1.0000
  H   H740      1.0  0.48978  0.64262  0.13417  1.0000
  C   C929      1.0  0.33037  0.96628  0.15913  1.0000
  H   H741      1.0  0.06028  0.93227  0.08165  1.0000
  H   H742      1.0  0.43198  0.94099  0.21440  1.0000
  H   H743      1.0  0.32634  0.93954  0.13626  1.0000
  H   H744      1.0  0.40515  0.92567  0.24298  1.0000
  C   C930      1.0  0.46728  0.54390  0.19085  1.0000
  H   H745      1.0  0.02340  0.80876  0.17582  1.0000
  C   C931      1.0  0.17371  0.57752  0.18113  1.0000
  C   C932      1.0  0.41728  0.55427  0.13981  1.0000
  C   C933      1.0  0.02834  0.80003  0.19124  1.0000
  H   H746      1.0  0.09437  0.74698  0.24769  1.0000
  H   H747      1.0  0.03981  0.80041  0.02260  1.0000
  C   C934      1.0  0.02236  0.98604  0.12207  1.0000
  S   S125      1.0  0.27087  0.60642  0.24697  1.0000
  C   C935      1.0  0.50699  0.68823  0.06414  1.0000
  C   C936      1.0  0.16419  0.57708  0.23580  1.0000
  H   H748      1.0  0.19844  0.54631  0.23338  1.0000
  H   H749      1.0  0.46721  0.66363  0.02069  1.0000
  H   H750      1.0  0.26221  0.53899  0.17882  1.0000
  H   H751      1.0  0.45808  0.61045  0.08211  1.0000
  C   C937      1.0  0.12565  0.99730  0.02642  1.0000
  H   H752      1.0  0.02843  0.98523  0.15790  1.0000
  H   H753      1.0  0.04897  0.90749  0.19561  1.0000
  H   H754      1.0  0.32126  0.58027  0.04287  1.0000
  C   C938      1.0  0.27039  0.68112  0.22461  1.0000
  C   C939      1.0  0.39565  0.54540  0.14042  1.0000
  C   C940      1.0  0.02760  0.92822  0.14647  1.0000
  H   H755      1.0  0.27201  0.67995  0.26055  1.0000
  C   C941      1.0  0.18684  0.61005  0.23926  1.0000
  H   H756      1.0  0.29648  0.55425  0.02361  1.0000
  C   C942      1.0  0.31960  0.98241  0.17249  1.0000
  Fe  Fe64      1.0  0.48065  0.74272  0.25100  1.0000
  C   C943      1.0  0.02722  0.79710  0.23188  1.0000
  C   C944      1.0  0.30525  0.67641  0.24518  1.0000
  C   C945      1.0  0.25738  0.90048  0.03440  1.0000
  H   H757      1.0  0.44604  0.99542  0.25729  1.0000
  H   H758      1.0  0.16564  0.82218  0.02628  1.0000
  H   H759      1.0  0.25640  0.00553  0.08883  1.0000
  H   H760      1.0  0.04932  0.66684  0.25354  1.0000
  H   H761      1.0  0.34601  0.59805  0.25336  1.0000
  C   C946      1.0  0.50601  0.53790  0.20221  1.0000
  C   C947      1.0  0.24801  0.59382  0.26227  1.0000
  C   C948      1.0  0.22735  0.52677  0.22318  1.0000
  C   C949      1.0  0.09481  0.76255  0.25665  1.0000
  C   C950      1.0  0.27791  0.90926  0.02710  1.0000
  H   H762      1.0  0.18039  0.01259  0.02729  1.0000
  C   C951      1.0  0.24463  0.88798  0.01995  1.0000
  H   H763      1.0  0.22537  0.51450  0.23678  1.0000
  H   H764      1.0  0.28761  0.99657  0.18360  1.0000
  H   H765      1.0  0.28775  0.91880  0.03847  1.0000
  H   H766      1.0  0.02178  0.80409  0.24771  1.0000
  C   C952      1.0  0.31461  0.55267  0.02147  1.0000
  C   C953      1.0  0.15319  0.58186  0.25615  1.0000
  C   C954      1.0  0.01991  0.99372  0.14409  1.0000
  C   C955      1.0  0.32542  0.51725  0.14374  1.0000
  H   H767      1.0  0.25141  0.90303  0.05143  1.0000
  C   C956      1.0  0.35059  0.61372  0.26069  1.0000
  C   C957      1.0  0.51406  0.68696  0.04166  1.0000
  C   C958      1.0  0.34736  0.51945  0.10881  1.0000
  H   H768      1.0  0.13109  0.76301  0.25608  1.0000
  H   H769      1.0  0.51057  0.84378  0.24410  1.0000
  C   C959      1.0  0.17940  0.83033  0.01737  1.0000
  C   C960      1.0  0.51290  0.55425  0.18648  1.0000
  C   C961      1.0  0.16326  0.01157  0.02144  1.0000
  H   H770      1.0  0.37955  0.54696  0.01433  1.0000
  H   H771      1.0  0.16217  0.86257  0.01549  1.0000
  H   H772      1.0  0.36291  0.69366  0.25315  1.0000
  C   C962      1.0  0.33512  0.63175  0.26114  1.0000
  C   C963      1.0  0.24264  0.57127  0.26011  1.0000
  C   C964      1.0  0.36295  0.72802  0.26268  1.0000
  H   H773      1.0  0.14065  0.57062  0.26312  1.0000
  C   C965      1.0  0.07476  0.77360  0.26341  1.0000
  C   C966      1.0  0.07971  0.66407  0.47413  1.0000
  C   C967      1.0  0.41049  0.95183  0.26649  1.0000
  P   P32       1.0  0.41040  0.00975  0.45576  1.0000
  S   S126      1.0  0.50101  0.88116  0.37701  1.0000
  Fe  Fe65      1.0  0.45210  0.87346  0.42075  1.0000
  S   S127      1.0  0.44693  0.88914  0.38623  1.0000
  S   S128      1.0  0.42262  0.87408  0.44589  1.0000
  Fe  Fe66      1.0  0.46966  0.86106  0.37334  1.0000
  S   S129      1.0  0.45907  0.84544  0.34029  1.0000
  Fe  Fe67      1.0  0.47846  0.90785  0.39224  1.0000
  S   S130      1.0  0.48560  0.94451  0.38339  1.0000
  S   S131      1.0  0.47226  0.84407  0.40750  1.0000
  S   S132      1.0  0.48238  0.89407  0.42746  1.0000
  Fe  Fe68      1.0  0.15114  0.57720  0.38059  1.0000
  S   S133      1.0  0.11383  0.57828  0.37504  1.0000
  S   S134      1.0  0.16587  0.57288  0.41585  1.0000
  Fe  Fe69      1.0  0.16198  0.57232  0.32972  1.0000
  S   S135      1.0  0.12496  0.57303  0.32098  1.0000
  S   S136      1.0  0.18895  0.56217  0.30323  1.0000
  Fe  Fe70      1.0  0.12138  0.60116  0.34540  1.0000
  S   S137      1.0  0.10000  0.63349  0.34177  1.0000
  Fe  Fe71      1.0  0.12005  0.54997  0.35125  1.0000
  S   S138      1.0  0.15883  0.60214  0.35238  1.0000
  S   S139      1.0  0.15688  0.54735  0.35848  1.0000
  C   C968      1.0  0.01842  0.77019  0.31913  1.0000
  C   C969      1.0  0.45876  0.99410  0.31613  1.0000
  S   S140      1.0  0.49212  0.76078  0.28252  1.0000
  H   H774      1.0  0.23885  0.62445  0.27901  1.0000
  H   H775      1.0  0.06052  0.80347  0.27866  1.0000
  C   C970      1.0  0.12384  0.58474  0.49582  1.0000
  C   C971      1.0  0.07534  0.63665  0.32546  1.0000
  C   C972      1.0  0.06237  0.65671  0.32662  1.0000
  C   C973      1.0  0.04298  0.66010  0.31350  1.0000
  C   C974      1.0  0.03651  0.64351  0.29889  1.0000
  C   C975      1.0  0.04950  0.62348  0.29772  1.0000
  C   C976      1.0  0.06869  0.61997  0.31106  1.0000
  H   H776      1.0  0.06742  0.66973  0.33765  1.0000
  H   H777      1.0  0.03320  0.67562  0.31448  1.0000
  C   C977      1.0  0.04397  0.51478  0.32044  1.0000
  H   H778      1.0  0.07857  0.60452  0.30992  1.0000
  C   C978      1.0  0.21175  0.57502  0.28804  1.0000
  H   H779      1.0  0.42045  0.99195  0.50111  1.0000
  H   H780      1.0  0.47750  0.92762  0.33294  1.0000
  C   C979      1.0  0.21720  0.59759  0.29028  1.0000
  H   H781      1.0  0.39855  0.94504  0.27871  1.0000
  C   C980      1.0  0.21466  0.51634  0.45482  1.0000
  H   H782      1.0  0.20749  0.60788  0.30180  1.0000
  C   C981      1.0  0.46829  0.82147  0.32484  1.0000
  C   C982      1.0  0.45797  0.81724  0.30431  1.0000
  C   C983      1.0  0.46477  0.79869  0.29126  1.0000
  C   C984      1.0  0.48222  0.78418  0.29847  1.0000
  C   C985      1.0  0.49253  0.78842  0.31902  1.0000
  C   C986      1.0  0.48548  0.80675  0.33224  1.0000
  H   H783      1.0  0.44460  0.82842  0.29840  1.0000
  C   C987      1.0  0.10097  0.51839  0.41195  1.0000
  H   H784      1.0  0.26863  0.64706  0.34773  1.0000
  H   H785      1.0  0.49331  0.80938  0.34814  1.0000
  C   C988      1.0  0.43119  0.00028  0.37485  1.0000
  C   C989      1.0  0.45398  0.00498  0.37161  1.0000
  C   C990      1.0  0.47048  0.98780  0.37472  1.0000
  C   C991      1.0  0.46433  0.96578  0.38078  1.0000
  C   C992      1.0  0.44158  0.96127  0.38461  1.0000
  C   C993      1.0  0.42516  0.97855  0.38199  1.0000
  C   C994      1.0  0.37857  0.99642  0.42492  1.0000
  H   H786      1.0  0.48808  0.99152  0.37212  1.0000
  H   H787      1.0  0.43663  0.94451  0.38969  1.0000
  H   H788      1.0  0.40763  0.97503  0.38530  1.0000
  H   H789      1.0  0.18645  0.52335  0.47703  1.0000
  C   C995      1.0  0.47744  0.00728  0.31993  1.0000
  C   C996      1.0  0.39792  0.85654  0.48144  1.0000
  C   C997      1.0  0.41674  0.85336  0.46707  1.0000
  C   C998      1.0  0.42993  0.83370  0.46955  1.0000
  C   C999      1.0  0.42412  0.81730  0.48605  1.0000
  S   S141      1.0  0.09449  0.52189  0.35313  1.0000
  H   H790      1.0  0.38760  0.87167  0.47967  1.0000
  H   H791      1.0  0.44443  0.83110  0.45860  1.0000
  C   C1000     1.0  0.23508  0.60692  0.27736  1.0000
  C   C1001     1.0  0.16533  0.62211  0.47446  1.0000
  C   C1002     1.0  0.17463  0.60039  0.47697  1.0000
  C   C1003     1.0  0.17465  0.58558  0.45884  1.0000
  C   C1004     1.0  0.16542  0.59228  0.43804  1.0000
  C   C1005     1.0  0.15614  0.61399  0.43554  1.0000
  C   C1006     1.0  0.15622  0.62882  0.45361  1.0000
  H   H792      1.0  0.18177  0.59503  0.49286  1.0000
  H   H793      1.0  0.18194  0.56886  0.46090  1.0000
  H   H794      1.0  0.14910  0.61941  0.41961  1.0000
  H   H795      1.0  0.14932  0.64565  0.45134  1.0000
  C   C1007     1.0  0.11662  0.79206  0.27225  1.0000
  C   C1008     1.0  0.39159  0.73638  0.43049  1.0000
  C   C1009     1.0  0.40243  0.72151  0.44553  1.0000
  C   C1010     1.0  0.42569  0.72262  0.44836  1.0000
  C   C1011     1.0  0.43808  0.73883  0.43643  1.0000
  C   C1012     1.0  0.42716  0.75434  0.42190  1.0000
  C   C1013     1.0  0.40394  0.75259  0.41851  1.0000
  P   P33       1.0  0.44297  0.77548  0.40667  1.0000
  C   C1014     1.0  0.45140  0.76348  0.38015  1.0000
  C   C1015     1.0  0.42602  0.80096  0.40388  1.0000
  C   C1016     1.0  0.41118  0.80729  0.42138  1.0000
  C   C1017     1.0  0.39885  0.82754  0.41986  1.0000
  C   C1018     1.0  0.42885  0.81559  0.38524  1.0000
  C   C1019     1.0  0.47065  0.74935  0.37882  1.0000
  Fe  Fe72      1.0  0.50236  0.86590  0.41177  1.0000
  C   C1020     1.0  0.10270  0.67892  0.44329  1.0000
  H   H796      1.0  0.49090  0.00076  0.33045  1.0000
  C   C1021     1.0  0.43826  0.76713  0.36095  1.0000
  C   C1022     1.0  0.46661  0.78355  0.42304  1.0000
  C   C1023     1.0  0.48734  0.78879  0.41269  1.0000
  C   C1024     1.0  0.28740  0.65024  0.29344  1.0000
  C   C1025     1.0  0.49074  0.91555  0.32863  1.0000
  C   C1026     1.0  0.11377  0.59374  0.47649  1.0000
  C   C1027     1.0  0.46370  0.78654  0.44623  1.0000
  H   H797      1.0  0.37359  0.73542  0.42815  1.0000
  H   H798      1.0  0.39282  0.70907  0.45493  1.0000
  H   H799      1.0  0.43414  0.71096  0.45987  1.0000
  H   H800      1.0  0.45611  0.73938  0.43871  1.0000
  H   H801      1.0  0.39532  0.76393  0.40682  1.0000
  H   H802      1.0  0.40952  0.79696  0.43653  1.0000
  H   H803      1.0  0.44114  0.81181  0.37214  1.0000
  H   H804      1.0  0.48060  0.74562  0.39356  1.0000
  C   C1028     1.0  0.51319  0.92059  0.33228  1.0000
  H   H805      1.0  0.41884  0.84708  0.36938  1.0000
  H   H806      1.0  0.09742  0.81936  0.28683  1.0000
  H   H807      1.0  0.42286  0.77719  0.36164  1.0000
  H   H808      1.0  0.48968  0.78784  0.39467  1.0000
  C   C1029     1.0  0.07583  0.79431  0.27401  1.0000
  H   H809      1.0  0.02180  0.57590  0.35536  1.0000
  H   H810      1.0  0.11903  0.68054  0.43503  1.0000
  H   H811      1.0  0.44762  0.78335  0.45441  1.0000
  C   C1030     1.0  0.50193  0.79937  0.44857  1.0000
  C   C1031     1.0  0.50249  0.87865  0.31605  1.0000
  C   C1032     1.0  0.27498  0.64306  0.31235  1.0000
  H   H812      1.0  0.11753  0.58637  0.46034  1.0000
  C   C1033     1.0  0.42370  0.92810  0.33590  1.0000
  H   H813      1.0  0.03378  0.68831  0.39073  1.0000
  H   H814      1.0  0.44102  0.94322  0.30763  1.0000
  H   H815      1.0  0.22089  0.54445  0.27128  1.0000
  C   C1034     1.0  0.27821  0.65279  0.33309  1.0000
  H   H816      1.0  0.28505  0.64203  0.27765  1.0000
  C   C1035     1.0  0.41640  0.83579  0.38373  1.0000
  H   H817      1.0  0.13547  0.57050  0.49458  1.0000
  H   H818      1.0  0.36250  0.76778  0.49908  1.0000
  H   H819      1.0  0.43433  0.80213  0.48791  1.0000
  C   C1036     1.0  0.39232  0.00389  0.29467  1.0000
  H   H820      1.0  0.13278  0.79916  0.27572  1.0000
  C   C1037     1.0  0.09969  0.61284  0.47780  1.0000
  H   H821      1.0  0.04427  0.67354  0.47299  1.0000
  C   C1038     1.0  0.12208  0.52806  0.41294  1.0000
  H   H822      1.0  0.39504  0.63822  0.28457  1.0000
  C   C1039     1.0  0.02758  0.76747  0.27932  1.0000
  C   C1040     1.0  0.42219  0.97140  0.27093  1.0000
  C   C1041     1.0  0.04906  0.53740  0.31703  1.0000
  C   C1042     1.0  0.39220  0.84020  0.49802  1.0000
  S   S142      1.0  0.16440  0.64139  0.49677  1.0000
  H   H823      1.0  0.07205  0.68567  0.28157  1.0000
  C   C1043     1.0  0.47731  0.74006  0.35834  1.0000
  C   C1044     1.0  0.29417  0.66946  0.33502  1.0000
  C   C1045     1.0  0.39159  0.94906  0.35069  1.0000
  H   H824      1.0  0.11589  0.65931  0.47108  1.0000
  C   C1046     1.0  0.06060  0.67465  0.46468  1.0000
  C   C1047     1.0  0.33294  0.70236  0.27279  1.0000
  C   C1048     1.0  0.18286  0.69727  0.49516  1.0000
  H   H825      1.0  0.18332  0.68478  0.48221  1.0000
  H   H826      1.0  0.02709  0.65743  0.41874  1.0000
  C   C1049     1.0  0.15885  0.60081  0.26794  1.0000
  H   H827      1.0  0.38278  0.97925  0.42981  1.0000
  C   C1050     1.0  0.08354  0.68896  0.43365  1.0000
  C   C1051     1.0  0.46460  0.74445  0.33915  1.0000
  H   H828      1.0  0.04770  0.62510  0.47030  1.0000
  H   H829      1.0  0.32087  0.75510  0.29141  1.0000
  C   C1052     1.0  0.39527  0.96626  0.33468  1.0000
  H   H830      1.0  0.31978  0.68871  0.31822  1.0000
  H   H831      1.0  0.46798  0.89037  0.31812  1.0000
  H   H832      1.0  0.49245  0.72960  0.35721  1.0000
  H   H833      1.0  0.22572  0.52781  0.46278  1.0000
  C   C1053     1.0  0.37219  0.61606  0.26908  1.0000
  C   C1054     1.0  0.49946  0.87619  0.48636  1.0000
  H   H834      1.0  0.02365  0.77014  0.33645  1.0000
  C   C1055     1.0  0.14151  0.51445  0.41419  1.0000
  C   C1056     1.0  0.40149  0.84181  0.40107  1.0000
  H   H835      1.0  0.37799  0.95076  0.36294  1.0000
  C   C1057     1.0  0.03180  0.55377  0.31668  1.0000
  H   H836      1.0  0.43482  0.91341  0.33663  1.0000
  C   C1058     1.0  0.19256  0.51385  0.46282  1.0000
  H   H837      1.0  0.29707  0.67658  0.35123  1.0000
  H   H838      1.0  0.50598  0.77730  0.32486  1.0000
  C   C1059     1.0  0.06215  0.71915  0.27025  1.0000
  H   H839      1.0  0.47171  0.87647  0.51013  1.0000
  H   H840      1.0  0.38438  0.60229  0.26794  1.0000
  H   H841      1.0  0.04489  0.61067  0.28627  1.0000
  H   H842      1.0  0.45668  0.79576  0.27552  1.0000
  H   H843      1.0  0.47003  0.73767  0.32314  1.0000
  H   H844      1.0  0.29620  0.65996  0.51258  1.0000
  C   C1060     1.0  0.06253  0.68701  0.44445  1.0000
  C   C1061     1.0  0.36128  0.75255  0.50939  1.0000
  C   C1062     1.0  0.09670  0.80341  0.27856  1.0000
  P   P34       1.0  0.41703  0.98564  0.29700  1.0000
  H   H845      1.0  0.38792  0.83264  0.43369  1.0000
  C   C1063     1.0  0.32089  0.72012  0.28288  1.0000
  C   C1064     1.0  0.34117  0.65234  0.26990  1.0000
  C   C1065     1.0  0.30679  0.67653  0.31617  1.0000
  C   C1066     1.0  0.30308  0.66740  0.29508  1.0000
  C   C1067     1.0  0.37820  0.63634  0.27831  1.0000
  H   H846      1.0  0.43539  0.76145  0.32548  1.0000
  H   H847      1.0  0.39254  0.85788  0.40036  1.0000
  H   H848      1.0  0.09231  0.61968  0.46253  1.0000
  C   C1068     1.0  0.02283  0.61135  0.36000  1.0000
  H   H849      1.0  0.37761  0.84282  0.50888  1.0000
  H   H850      1.0  0.26314  0.62961  0.31100  1.0000
  H   H851      1.0  0.06651  0.54223  0.31508  1.0000
  H   H852      1.0  0.12205  0.79171  0.51287  1.0000
  C   C1069     1.0  0.42722  0.94510  0.31963  1.0000
  H   H853      1.0  0.49098  0.86593  0.47449  1.0000
  H   H854      1.0  0.30427  0.71752  0.29013  1.0000
  C   C1070     1.0  0.44768  0.95294  0.44076  1.0000
  C   C1071     1.0  0.43559  0.93594  0.45171  1.0000
  C   C1072     1.0  0.41605  0.94128  0.46404  1.0000
  C   C1073     1.0  0.40864  0.96369  0.46557  1.0000
  C   C1074     1.0  0.42087  0.98097  0.45487  1.0000
  C   C1075     1.0  0.44028  0.97535  0.44214  1.0000
  C   C1076     1.0  0.36263  0.65432  0.27910  1.0000
  H   H855      1.0  0.47872  0.79719  0.47672  1.0000
  H   H856      1.0  0.21842  0.70328  0.49268  1.0000
  H   H857      1.0  0.15768  0.52247  0.41433  1.0000
  C   C1077     1.0  0.44505  0.75792  0.34048  1.0000
  H   H858      1.0  0.15074  0.60416  0.28401  1.0000
  H   H859      1.0  0.45813  0.97757  0.32400  1.0000
  H   H860      1.0  0.35845  0.76192  0.27384  1.0000
  C   C1078     1.0  0.33013  0.74150  0.28342  1.0000
  H   H861      1.0  0.36750  0.66966  0.28679  1.0000
  C   C1079     1.0  0.44106  0.00256  0.30278  1.0000
  H   H862      1.0  0.38428  0.98101  0.33487  1.0000
  C   C1080     1.0  0.22471  0.56197  0.27295  1.0000
  H   H863      1.0  0.03615  0.57121  0.31388  1.0000
  C   C1081     1.0  0.50500  0.79638  0.42553  1.0000
  C   C1082     1.0  0.40521  0.82040  0.50032  1.0000
  H   H864      1.0  0.32501  0.75362  0.51100  1.0000
  C   C1083     1.0  0.03920  0.62641  0.48648  1.0000
  H   H865      1.0  0.02076  0.64745  0.36073  1.0000
  H   H866      1.0  0.46255  0.94868  0.43074  1.0000
  H   H867      1.0  0.44115  0.91855  0.45036  1.0000
  H   H868      1.0  0.40653  0.92791  0.47212  1.0000
  H   H869      1.0  0.39318  0.96748  0.47480  1.0000
  H   H870      1.0  0.44960  0.98805  0.43290  1.0000
  C   C1084     1.0  0.03443  0.76772  0.30176  1.0000
  H   H871      1.0  0.18024  0.62934  0.26889  1.0000
  P   P35       1.0  0.32057  0.67505  0.27108  1.0000
  C   C1085     1.0  0.40742  0.00490  0.50256  1.0000
  C   C1086     1.0  0.09571  0.62319  0.49849  1.0000
  C   C1087     1.0  0.40587  0.93007  0.35139  1.0000
  H   H872      1.0  0.40332  0.91701  0.36415  1.0000
  H   H873      1.0  0.03710  0.61002  0.37109  1.0000
  H   H874      1.0  0.05202  0.76557  0.30591  1.0000
  C   C1088     1.0  0.01707  0.68162  0.39310  1.0000
  C   C1089     1.0  0.37716  0.00187  0.27703  1.0000
  C   C1090     1.0  0.04955  0.63709  0.50419  1.0000
  C   C1091     1.0  0.41306  0.96437  0.31891  1.0000
  C   C1092     1.0  0.36246  0.00036  0.40833  1.0000
  C   C1093     1.0  0.48129  0.79441  0.45893  1.0000
  C   C1094     1.0  0.35123  0.74540  0.27345  1.0000
  C   C1095     1.0  0.48542  0.89463  0.32038  1.0000
  P   P36       1.0  0.07756  0.64793  0.50005  1.0000
  H   H875      1.0  0.49778  0.86222  0.31059  1.0000
  C   C1096     1.0  0.10085  0.66676  0.46361  1.0000
  H   H876      1.0  0.12353  0.54615  0.41225  1.0000
  H   H877      1.0  0.04777  0.69520  0.43720  1.0000
  H   H878      1.0  0.14753  0.69354  0.50236  1.0000
  H   H879      1.0  0.35458  0.98637  0.40063  1.0000
  H   H880      1.0  0.08504  0.69839  0.41789  1.0000
  H   H881      1.0  0.08601  0.52898  0.40994  1.0000
  C   C1097     1.0  0.48864  0.88215  0.50642  1.0000
  C   C1098     1.0  0.20264  0.70770  0.50106  1.0000
  C   C1099     1.0  0.01785  0.61723  0.48959  1.0000
  H   H882      1.0  0.07156  0.72710  0.28311  1.0000
  C   C1100     1.0  0.16263  0.70231  0.50649  1.0000
  C   C1101     1.0  0.06240  0.69569  0.26952  1.0000
  H   H883      1.0  0.21734  0.53890  0.50473  1.0000
  H   H884      1.0  0.39714  0.74820  0.51218  1.0000
  H   H885      1.0  0.51445  0.84443  0.34756  1.0000
  H   H886      1.0  0.37980  0.98927  0.26447  1.0000
  C   C1102     1.0  0.41318  0.86317  0.66646  1.0000
  Fe  Fe73      1.0  0.18880  0.60551  0.57312  1.0000
  S   S143      1.0  0.19110  0.63465  0.59597  1.0000
  S   S144      1.0  0.18815  0.56862  0.58480  1.0000
  C   C1103     1.0  0.48454  0.96454  0.64281  1.0000
  S   S145      1.0  0.17882  0.66755  0.55307  1.0000
  Fe  Fe74      1.0  0.21040  0.65221  0.56776  1.0000
  S   S146      1.0  0.24149  0.67114  0.57941  1.0000
  Fe  Fe75      1.0  0.15958  0.64789  0.57954  1.0000
  S   S147      1.0  0.13163  0.66308  0.60139  1.0000
  S   S148      1.0  0.21023  0.62171  0.54561  1.0000
  S   S149      1.0  0.15592  0.61786  0.55835  1.0000
  Fe  Fe76      1.0  0.36419  0.79135  0.59868  1.0000
  S   S150      1.0  0.37581  0.82175  0.57925  1.0000
  S   S151      1.0  0.37815  0.78009  0.63254  1.0000
  Fe  Fe77      1.0  0.32639  0.78136  0.56586  1.0000
  S   S152      1.0  0.33508  0.81183  0.54405  1.0000
  S   S153      1.0  0.29702  0.76013  0.55363  1.0000
  Fe  Fe78      1.0  0.37146  0.80164  0.54825  1.0000
  Fe  Fe79      1.0  0.33887  0.82995  0.57648  1.0000
  S   S154      1.0  0.32881  0.86650  0.58066  1.0000
  S   S155      1.0  0.36287  0.77004  0.56804  1.0000
  S   S156      1.0  0.32716  0.80076  0.59787  1.0000
  S   S157      1.0  0.50374  0.83873  0.72075  1.0000
  Fe  Fe80      1.0  0.44756  0.86403  0.74421  1.0000
  S   S158      1.0  0.46259  0.87585  0.71139  1.0000
  C   C1104     1.0  0.09868  0.69618  0.55488  1.0000
  Fe  Fe81      1.0  0.46917  0.83910  0.70544  1.0000
  S   S159      1.0  0.46463  0.82712  0.66996  1.0000
  Fe  Fe82      1.0  0.49607  0.87486  0.72880  1.0000
  S   S160      1.0  0.45155  0.82713  0.73712  1.0000
  Fe  Fe83      1.0  0.31342  0.98821  0.66754  1.0000
  S   S161      1.0  0.28078  0.96982  0.67206  1.0000
  Fe  Fe84      1.0  0.33130  0.96818  0.71158  1.0000
  S   S162      1.0  0.29975  0.94930  0.71974  1.0000
  S   S163      1.0  0.36093  0.96659  0.73496  1.0000
  Fe  Fe85      1.0  0.30224  0.94025  0.68328  1.0000
  S   S164      1.0  0.29732  0.90386  0.67502  1.0000
  Fe  Fe86      1.0  0.28094  0.98043  0.70815  1.0000
  S   S165      1.0  0.24893  0.99613  0.72415  1.0000
  S   S166      1.0  0.33477  0.95742  0.67593  1.0000
  S   S167      1.0  0.31247  0.00061  0.70289  1.0000
  S   S168      1.0  0.02704  0.65129  0.58509  1.0000
  C   C1105     1.0  0.40097  0.90194  0.75343  1.0000
  S   S169      1.0  0.24913  0.52633  0.66291  1.0000
  H   H887      1.0  0.25505  0.99717  0.57984  1.0000
  C   C1106     1.0  0.37478  0.94057  0.74135  1.0000
  C   C1107     1.0  0.38497  0.92727  0.72467  1.0000
  C   C1108     1.0  0.39824  0.90804  0.73071  1.0000
  H   H888      1.0  0.38302  0.93216  0.70722  1.0000
  H   H889      1.0  0.40612  0.89784  0.71791  1.0000
  C   C1109     1.0  0.32256  0.87610  0.60790  1.0000
  C   C1110     1.0  0.32519  0.89888  0.61248  1.0000
  C   C1111     1.0  0.31851  0.90738  0.63343  1.0000
  C   C1112     1.0  0.30829  0.89333  0.64958  1.0000
  C   C1113     1.0  0.30592  0.87051  0.64512  1.0000
  C   C1114     1.0  0.31336  0.86181  0.62448  1.0000
  H   H890      1.0  0.33226  0.91000  0.59969  1.0000
  H   H891      1.0  0.32064  0.92493  0.63684  1.0000
  H   H892      1.0  0.29802  0.85959  0.65753  1.0000
  H   H893      1.0  0.31113  0.84428  0.62109  1.0000
  C   C1115     1.0  0.40152  0.79430  0.64304  1.0000
  C   C1116     1.0  0.40608  0.79290  0.66612  1.0000
  C   C1117     1.0  0.42488  0.80353  0.67482  1.0000
  C   C1118     1.0  0.43974  0.81499  0.66031  1.0000
  C   C1119     1.0  0.43525  0.81622  0.63724  1.0000
  C   C1120     1.0  0.41607  0.80624  0.62868  1.0000
  H   H894      1.0  0.39514  0.78339  0.67726  1.0000
  H   H895      1.0  0.42820  0.80236  0.69262  1.0000
  H   H896      1.0  0.44669  0.82493  0.62588  1.0000
  H   H897      1.0  0.41296  0.80722  0.61086  1.0000
  C   C1121     1.0  0.05922  0.58114  0.54678  1.0000
  S   S170      1.0  0.48024  0.86560  0.76238  1.0000
  C   C1122     1.0  0.15330  0.78154  0.56899  1.0000
  C   C1123     1.0  0.10263  0.65869  0.59758  1.0000
  C   C1124     1.0  0.08666  0.67174  0.60950  1.0000
  C   C1125     1.0  0.06342  0.66944  0.60611  1.0000
  C   C1126     1.0  0.05600  0.65396  0.59082  1.0000
  C   C1127     1.0  0.07200  0.64041  0.57943  1.0000
  C   C1128     1.0  0.09520  0.64280  0.58273  1.0000
  H   H898      1.0  0.09229  0.68398  0.62114  1.0000
  H   H899      1.0  0.05129  0.67985  0.61509  1.0000
  H   H900      1.0  0.06651  0.62812  0.56789  1.0000
  H   H901      1.0  0.10737  0.63262  0.57363  1.0000
  C   C1129     1.0  0.25625  0.69628  0.57203  1.0000
  C   C1130     1.0  0.27150  0.70476  0.58737  1.0000
  C   C1131     1.0  0.28397  0.72423  0.58220  1.0000
  C   C1132     1.0  0.28156  0.73551  0.56142  1.0000
  C   C1133     1.0  0.26621  0.72710  0.54612  1.0000
  C   C1134     1.0  0.25371  0.70763  0.55132  1.0000
  H   H902      1.0  0.27370  0.69618  0.60344  1.0000
  H   H903      1.0  0.29528  0.73056  0.59439  1.0000
  H   H904      1.0  0.13163  0.80795  0.58186  1.0000
  H   H905      1.0  0.24240  0.70114  0.53921  1.0000
  C   C1135     1.0  0.23121  0.53794  0.64191  1.0000
  C   C1136     1.0  0.23533  0.55970  0.63334  1.0000
  C   C1137     1.0  0.22213  0.56937  0.61606  1.0000
  C   C1138     1.0  0.20451  0.55742  0.60727  1.0000
  C   C1139     1.0  0.20015  0.53575  0.61606  1.0000
  C   C1140     1.0  0.50999  0.70355  0.73911  1.0000
  H   H906      1.0  0.24902  0.56904  0.63993  1.0000
  H   H907      1.0  0.22573  0.58601  0.60942  1.0000
  H   H908      1.0  0.18658  0.52634  0.60944  1.0000
  H   H909      1.0  0.49127  0.89985  0.53726  1.0000
  C   C1141     1.0  0.48730  0.74364  0.74976  1.0000
  C   C1142     1.0  0.35531  0.70265  0.58612  1.0000
  C   C1143     1.0  0.16215  0.71783  0.52373  1.0000
  H   H910      1.0  0.23849  0.79738  0.51909  1.0000
  C   C1144     1.0  0.49529  0.87853  0.65463  1.0000
  H   H911      1.0  0.06400  0.59609  0.53730  1.0000
  C   C1145     1.0  0.34341  0.72282  0.59005  1.0000
  C   C1146     1.0  0.34372  0.73253  0.61115  1.0000
  C   C1147     1.0  0.35552  0.72192  0.62865  1.0000
  C   C1148     1.0  0.36645  0.70121  0.62525  1.0000
  C   C1149     1.0  0.36620  0.69147  0.60412  1.0000
  C   C1150     1.0  0.39670  0.63698  0.54215  1.0000
  H   H912      1.0  0.44794  0.99094  0.67880  1.0000
  C   C1151     1.0  0.18308  0.93258  0.57703  1.0000
  H   H913      1.0  0.12129  0.65676  0.52043  1.0000
  H   H914      1.0  0.04823  0.59281  0.69170  1.0000
  C   C1152     1.0  0.04433  0.58293  0.56513  1.0000
  H   H915      1.0  0.40335  0.69375  0.57153  1.0000
  C   C1153     1.0  0.20220  0.72329  0.51822  1.0000
  C   C1154     1.0  0.38227  0.93739  0.64053  1.0000
  H   H916      1.0  0.33416  0.73134  0.57673  1.0000
  H   H917      1.0  0.33525  0.74860  0.61379  1.0000
  H   H918      1.0  0.35629  0.72990  0.64476  1.0000
  H   H919      1.0  0.37537  0.69289  0.63894  1.0000
  H   H920      1.0  0.37462  0.67536  0.60190  1.0000
  H   H921      1.0  0.39491  0.62108  0.53400  1.0000
  H   H922      1.0  0.25530  0.00037  0.63691  1.0000
  C   C1155     1.0  0.05387  0.61436  0.63197  1.0000
  H   H923      1.0  0.50276  0.71276  0.70465  1.0000
  C   C1156     1.0  0.32255  0.67324  0.53246  1.0000
  C   C1157     1.0  0.29031  0.65361  0.54789  1.0000
  H   H924      1.0  0.48933  0.94820  0.63650  1.0000
  H   H925      1.0  0.10347  0.70671  0.56848  1.0000
  H   H926      1.0  0.07072  0.62099  0.63111  1.0000
  H   H927      1.0  0.14651  0.72102  0.53287  1.0000
  C   C1158     1.0  0.41304  0.55932  0.70811  1.0000
  H   H928      1.0  0.24270  0.00707  0.67611  1.0000
  C   C1159     1.0  0.48960  0.00477  0.64156  1.0000
  C   C1160     1.0  0.10533  0.61359  0.51795  1.0000
  H   H929      1.0  0.20343  0.77578  0.51914  1.0000
  H   H930      1.0  0.15769  0.58730  0.62666  1.0000
  C   C1161     1.0  0.15333  0.57135  0.65967  1.0000
  C   C1162     1.0  0.50487  0.89596  0.66608  1.0000
  H   H931      1.0  0.35055  0.85304  0.65392  1.0000
  H   H932      1.0  0.14293  0.52792  0.57615  1.0000
  C   C1163     1.0  0.03793  0.56367  0.57755  1.0000
  H   H933      1.0  0.10606  0.58735  0.62168  1.0000
  H   H934      1.0  0.14243  0.73845  0.58322  1.0000
  H   H935      1.0  0.46578  0.86714  0.63844  1.0000
  C   C1164     1.0  0.48548  0.99487  0.71922  1.0000
  C   C1165     1.0  0.07010  0.68204  0.53086  1.0000
  H   H936      1.0  0.33183  0.67961  0.51792  1.0000
  H   H937      1.0  0.27096  0.52420  0.61237  1.0000
  H   H938      1.0  0.43613  0.66790  0.56716  1.0000
  P   P37       1.0  0.18134  0.74735  0.55287  1.0000
  C   C1166     1.0  0.46128  0.98853  0.66644  1.0000
  C   C1167     1.0  0.23996  0.96532  0.75912  1.0000
  C   C1168     1.0  0.38612  0.83147  0.73745  1.0000
  H   H939      1.0  0.45837  0.52907  0.68880  1.0000
  H   H940      1.0  0.43079  0.86555  0.66984  1.0000
  H   H941      1.0  0.21128  0.71464  0.57531  1.0000
  C   C1169     1.0  0.06761  0.56008  0.54046  1.0000
  H   H942      1.0  0.37589  0.86639  0.62369  1.0000
  H   H943      1.0  0.34968  0.88788  0.68888  1.0000
  H   H944      1.0  0.14622  0.52619  0.61733  1.0000
  C   C1170     1.0  0.39814  0.79433  0.75045  1.0000
  H   H945      1.0  0.11140  0.81421  0.54606  1.0000
  C   C1171     1.0  0.08224  0.56107  0.65784  1.0000
  S   S171      1.0  0.39816  0.79875  0.52015  1.0000
  H   H946      1.0  0.19257  0.60595  0.63606  1.0000
  C   C1172     1.0  0.21999  0.76377  0.57274  1.0000
  C   C1173     1.0  0.11958  0.59462  0.51653  1.0000
  H   H947      1.0  0.48290  0.74848  0.71417  1.0000
  H   H948      1.0  0.21784  0.73066  0.52293  1.0000
  H   H949      1.0  0.06692  0.52438  0.54707  1.0000
  C   C1174     1.0  0.03841  0.63792  0.52516  1.0000
  H   H950      1.0  0.19011  0.57655  0.70253  1.0000
  H   H951      1.0  0.36557  0.93610  0.63367  1.0000
  H   H952      1.0  0.26201  0.79724  0.55300  1.0000
  H   H953      1.0  0.43206  0.63152  0.54842  1.0000
  H   H954      1.0  0.29506  0.99382  0.59129  1.0000
  C   C1175     1.0  0.04580  0.54248  0.57064  1.0000
  C   C1176     1.0  0.18187  0.72871  0.52946  1.0000
  H   H955      1.0  0.16970  0.52724  0.65725  1.0000
  C   C1177     1.0  0.38085  0.74146  0.51681  1.0000
  C   C1178     1.0  0.46177  0.93389  0.71624  1.0000
  C   C1179     1.0  0.01705  0.62883  0.52821  1.0000
  H   H956      1.0  0.26409  0.73564  0.53002  1.0000
  H   H957      1.0  0.37735  0.91084  0.66524  1.0000
  H   H958      1.0  0.20065  0.54761  0.54201  1.0000
  C   C1180     1.0  0.29517  0.81868  0.68529  1.0000
  C   C1181     1.0  0.29827  0.65630  0.56955  1.0000
  C   C1182     1.0  0.39894  0.85515  0.68364  1.0000
  H   H959      1.0  0.21523  0.75472  0.58798  1.0000
  H   H960      1.0  0.25037  0.77576  0.58717  1.0000
  H   H961      1.0  0.13191  0.68171  0.55059  1.0000
  S   S172      1.0  0.41650  0.87768  0.76239  1.0000
  C   C1183     1.0  0.03451  0.52883  0.62477  1.0000
  H   H962      1.0  0.33756  0.92027  0.71078  1.0000
  H   H963      1.0  0.49992  0.92863  0.67981  1.0000
  H   H964      1.0  0.04614  0.56505  0.66167  1.0000
  H   H965      1.0  0.18206  0.93197  0.55890  1.0000
  C   C1184     1.0  0.44578  0.53555  0.70050  1.0000
  C   C1185     1.0  0.42621  0.96143  0.73134  1.0000
  C   C1186     1.0  0.19336  0.59270  0.66994  1.0000
  C   C1187     1.0  0.34688  0.86400  0.71682  1.0000
  C   C1188     1.0  0.19537  0.71501  0.58448  1.0000
  H   H966      1.0  0.08106  0.54919  0.64450  1.0000
  C   C1189     1.0  0.21348  0.52599  0.63325  1.0000
  C   C1190     1.0  0.35828  0.71452  0.53822  1.0000
  C   C1191     1.0  0.15401  0.71402  0.60756  1.0000
  C   C1192     1.0  0.17190  0.70010  0.61470  1.0000
  C   C1193     1.0  0.19255  0.70058  0.60316  1.0000
  H   H967      1.0  0.13774  0.71283  0.61600  1.0000
  H   H968      1.0  0.16945  0.68832  0.62867  1.0000
  H   H969      1.0  0.20624  0.68934  0.60833  1.0000
  C   C1194     1.0  0.26680  0.87572  0.59506  1.0000
  C   C1195     1.0  0.25729  0.85718  0.60610  1.0000
  C   C1196     1.0  0.24026  0.86037  0.62229  1.0000
  C   C1197     1.0  0.23291  0.88213  0.62759  1.0000
  C   C1198     1.0  0.24302  0.90088  0.61718  1.0000
  C   C1199     1.0  0.25977  0.89749  0.60056  1.0000
  P   P38       1.0  0.23276  0.92884  0.62361  1.0000
  C   C1200     1.0  0.25213  0.94942  0.61265  1.0000
  C   C1201     1.0  0.20556  0.93177  0.61075  1.0000
  C   C1202     1.0  0.20406  0.93084  0.58730  1.0000
  C   C1203     1.0  0.13611  0.79796  0.56742  1.0000
  C   C1204     1.0  0.23249  0.98417  0.74660  1.0000
  C   C1205     1.0  0.16475  0.93535  0.61352  1.0000
  C   C1206     1.0  0.18571  0.93361  0.62384  1.0000
  C   C1207     1.0  0.27467  0.94790  0.61919  1.0000
  C   C1208     1.0  0.29009  0.96372  0.61128  1.0000
  C   C1209     1.0  0.28305  0.98138  0.59700  1.0000
  C   C1210     1.0  0.26051  0.98327  0.59067  1.0000
  C   C1211     1.0  0.24501  0.96743  0.59857  1.0000
  C   C1212     1.0  0.23155  0.93347  0.65345  1.0000
  C   C1213     1.0  0.24185  0.91819  0.66863  1.0000
  C   C1214     1.0  0.24194  0.92260  0.69156  1.0000
  C   C1215     1.0  0.23183  0.94232  0.69951  1.0000
  C   C1216     1.0  0.22187  0.95783  0.68451  1.0000
  C   C1217     1.0  0.22190  0.95355  0.66152  1.0000
  H   H970      1.0  0.28004  0.87322  0.58251  1.0000
  H   H971      1.0  0.26329  0.84038  0.60214  1.0000
  H   H972      1.0  0.23284  0.84598  0.63079  1.0000
  H   H973      1.0  0.21954  0.88437  0.64001  1.0000
  H   H974      1.0  0.26759  0.91148  0.59180  1.0000
  H   H975      1.0  0.20913  0.60049  0.67364  1.0000
  C   C1218     1.0  0.02590  0.58913  0.61831  1.0000
  H   H976      1.0  0.47547  0.92296  0.71105  1.0000
  H   H977      1.0  0.27783  0.82218  0.69024  1.0000
  H   H978      1.0  0.18627  0.93341  0.64199  1.0000
  H   H979      1.0  0.28022  0.93456  0.63067  1.0000
  H   H980      1.0  0.30746  0.96256  0.61659  1.0000
  Fe  Fe87      1.0  0.17723  0.63615  0.53260  1.0000
  C   C1219     1.0  0.39950  0.01076  0.52395  1.0000
  H   H981      1.0  0.22758  0.96950  0.59388  1.0000
  H   H982      1.0  0.25063  0.90324  0.66286  1.0000
  H   H983      1.0  0.25056  0.91103  0.70304  1.0000
  H   H984      1.0  0.23226  0.94586  0.71723  1.0000
  H   H985      1.0  0.08543  0.60471  0.70479  1.0000
  H   H986      1.0  0.21474  0.96602  0.65000  1.0000
  C   C1220     1.0  0.30013  0.80341  0.66834  1.0000
  C   C1221     1.0  0.17770  0.72948  0.57754  1.0000
  C   C1222     1.0  0.13598  0.53940  0.60960  1.0000
  C   C1223     1.0  0.11122  0.57438  0.58868  1.0000
  C   C1224     1.0  0.49573  0.98337  0.63422  1.0000
  C   C1225     1.0  0.07642  0.69639  0.54773  1.0000
  C   C1226     1.0  0.38604  0.78488  0.73330  1.0000
  C   C1227     1.0  0.40498  0.86705  0.64481  1.0000
  P   P39       1.0  0.35776  0.84040  0.70133  1.0000
  C   C1228     1.0  0.33261  0.87977  0.75168  1.0000
  C   C1229     1.0  0.32250  0.79924  0.66170  1.0000
  C   C1230     1.0  0.16265  0.56864  0.68113  1.0000
  C   C1231     1.0  0.18264  0.57920  0.68618  1.0000
  H   H987      1.0  0.38629  0.76684  0.73146  1.0000
  C   C1232     1.0  0.33191  0.90113  0.74144  1.0000
  H   H988      1.0  0.05100  0.53307  0.61811  1.0000
  H   H989      1.0  0.40023  0.57127  0.70233  1.0000
  H   H990      1.0  0.40048  0.55879  0.74212  1.0000
  H   H991      1.0  0.35708  0.80727  0.66629  1.0000
  H   H992      1.0  0.12024  0.55828  0.55771  1.0000
  H   H993      1.0  0.38668  0.84952  0.73910  1.0000
  C   C1233     1.0  0.30250  0.66197  0.52934  1.0000
  C   C1234     1.0  0.50164  0.98146  0.70831  1.0000
  H   H994      1.0  0.15478  0.55788  0.69379  1.0000
  C   C1235     1.0  0.11553  0.51413  0.67148  1.0000
  C   C1236     1.0  0.13403  0.54025  0.58623  1.0000
  H   H995      1.0  0.50031  0.96331  0.70895  1.0000
  C   C1237     1.0  0.20689  0.76319  0.55336  1.0000
  C   C1238     1.0  0.21344  0.77577  0.53416  1.0000
  C   C1239     1.0  0.20774  0.53098  0.53895  1.0000
  C   C1240     1.0  0.34525  0.88533  0.70644  1.0000
  C   C1241     1.0  0.33871  0.72571  0.53048  1.0000
  H   H996      1.0  0.12041  0.58888  0.68822  1.0000
  C   C1242     1.0  0.12474  0.80151  0.54725  1.0000
  H   H997      1.0  0.36442  0.79100  0.70533  1.0000
  H   H998      1.0  0.39183  0.96446  0.61797  1.0000
  H   H999      1.0  0.03766  0.59938  0.56960  1.0000
  C   C1243     1.0  0.06244  0.56998  0.66751  1.0000
  H   H1000     1.0  0.16213  0.77909  0.58467  1.0000
  C   C1244     1.0  0.45732  0.93571  0.73926  1.0000
  C   C1245     1.0  0.01547  0.54206  0.61905  1.0000
  C   C1246     1.0  0.47317  0.88079  0.64725  1.0000
  C   C1247     1.0  0.39713  0.95334  0.63167  1.0000
  H   H1001     1.0  0.36201  0.64665  0.53813  1.0000
  C   C1248     1.0  0.49216  0.91541  0.67076  1.0000
  C   C1249     1.0  0.46957  0.91748  0.66415  1.0000
  C   C1250     1.0  0.46040  0.90020  0.65183  1.0000
  P   P40       1.0  0.45302  0.94257  0.67055  1.0000
  C   C1251     1.0  0.42540  0.94083  0.65853  1.0000
  C   C1252     1.0  0.44826  0.94554  0.70049  1.0000
  C   C1253     1.0  0.43034  0.95928  0.70830  1.0000
  H   H1002     1.0  0.32374  0.67000  0.58973  1.0000
  C   C1254     1.0  0.41868  0.95503  0.64055  1.0000
  C   C1255     1.0  0.13349  0.52705  0.66312  1.0000
  C   C1256     1.0  0.44598  0.52832  0.72304  1.0000
  C   C1257     1.0  0.38889  0.92319  0.65835  1.0000
  C   C1258     1.0  0.41032  0.92494  0.66737  1.0000
  C   C1259     1.0  0.37371  0.79871  0.71838  1.0000
  H   H1003     1.0  0.14716  0.93622  0.58217  1.0000
  H   H1004     1.0  0.20508  0.00818  0.74214  1.0000
  C   C1260     1.0  0.37941  0.72255  0.53117  1.0000
  C   C1261     1.0  0.43950  0.94941  0.74682  1.0000
  H   H1005     1.0  0.44338  0.90142  0.64581  1.0000
  H   H1006     1.0  0.41909  0.96792  0.69666  1.0000
  H   H1007     1.0  0.50912  0.98133  0.62178  1.0000
  C   C1262     1.0  0.11472  0.68195  0.54485  1.0000
  C   C1263     1.0  0.37632  0.85090  0.67927  1.0000
  C   C1264     1.0  0.12148  0.55758  0.57581  1.0000
  C   C1265     1.0  0.39799  0.81761  0.75263  1.0000
  H   H1008     1.0  0.41523  0.91378  0.68118  1.0000
  C   C1266     1.0  0.16412  0.58513  0.64350  1.0000
  H   H1009     1.0  0.42993  0.96742  0.63338  1.0000
  H   H1010     1.0  0.30834  0.84194  0.70829  1.0000
  C   C1267     1.0  0.33986  0.81037  0.67190  1.0000
  H   H1011     1.0  0.21917  0.92871  0.57698  1.0000
  C   C1268     1.0  0.34022  0.74459  0.51612  1.0000
  C   C1269     1.0  0.06082  0.54075  0.55232  1.0000
  C   C1270     1.0  0.37803  0.65158  0.54453  1.0000
  C   C1271     1.0  0.36803  0.85559  0.65765  1.0000
  H   H1012     1.0  0.27444  0.64539  0.54562  1.0000
  C   C1272     1.0  0.14787  0.77233  0.53010  1.0000
  C   C1273     1.0  0.41991  0.66332  0.56084  1.0000
  C   C1274     1.0  0.10441  0.58329  0.68234  1.0000
  C   C1275     1.0  0.15679  0.72852  0.58892  1.0000
  H   H1013     1.0  0.40582  0.85193  0.70013  1.0000
  C   C1276     1.0  0.15898  0.76829  0.55048  1.0000
  H   H1014     1.0  0.04215  0.63745  0.65712  1.0000
  C   C1277     1.0  0.21719  0.52606  0.51796  1.0000
  H   H1015     1.0  0.28668  0.79496  0.66021  1.0000
  C   C1278     1.0  0.11338  0.57373  0.61203  1.0000
  H   H1016     1.0  0.10213  0.58825  0.58055  1.0000
  S   S173      1.0  0.31983  0.00729  0.63427  1.0000
  H   H1017     1.0  0.21471  0.97342  0.69078  1.0000
  C   C1279     1.0  0.46738  0.96693  0.65922  1.0000
  C   C1280     1.0  0.41320  0.55213  0.73065  1.0000
  C   C1281     1.0  0.15550  0.51777  0.66368  1.0000
  C   C1282     1.0  0.04807  0.59694  0.61805  1.0000
  H   H1018     1.0  0.04604  0.64549  0.53931  1.0000
  H   H1019     1.0  0.34041  0.84474  0.74753  1.0000
  C   C1283     1.0  0.03780  0.62364  0.64667  1.0000
  H   H1020     1.0  0.10224  0.62102  0.53415  1.0000
  C   C1284     1.0  0.10341  0.56745  0.66536  1.0000
  C   C1285     1.0  0.16343  0.93493  0.59013  1.0000
  H   H1021     1.0  0.41621  0.87251  0.63134  1.0000
  C   C1286     1.0  0.33798  0.90379  0.71878  1.0000
  C   C1287     1.0  0.18400  0.59580  0.64872  1.0000
  C   C1288     1.0  0.42930  0.55099  0.69302  1.0000
  C   C1289     1.0  0.31257  0.82982  0.69556  1.0000
  C   C1290     1.0  0.38235  0.86344  0.64046  1.0000
  C   C1291     1.0  0.33984  0.86118  0.73936  1.0000
  H   H1022     1.0  0.47879  0.75935  0.75385  1.0000
  H   H1023     1.0  0.09844  0.52070  0.67148  1.0000
  H   H1024     1.0  0.39484  0.71484  0.53716  1.0000
  H   H1025     1.0  0.32652  0.78757  0.64846  1.0000
  H   H1026     1.0  0.04006  0.52728  0.57902  1.0000
  C   C1292     1.0  0.23317  0.78812  0.53408  1.0000
  H   H1027     1.0  0.06393  0.70734  0.55560  1.0000
  H   H1028     1.0  0.14948  0.93683  0.62370  1.0000
  H   H1029     1.0  0.06088  0.58991  0.60702  1.0000
  C   C1293     1.0  0.08456  0.59236  0.69180  1.0000
  H   H1030     1.0  0.41199  0.97160  0.73719  1.0000
  C   C1294     1.0  0.41762  0.64285  0.55028  1.0000
  C   C1295     1.0  0.33507  0.82567  0.68894  1.0000
  P   P41       1.0  0.12886  0.55565  0.65274  1.0000
  C   C1296     1.0  0.06360  0.58566  0.68445  1.0000
  C   C1297     1.0  0.37372  0.82216  0.72028  1.0000
  C   C1298     1.0  0.12539  0.55595  0.62270  1.0000
  C   C1299     1.0  0.31817  0.66776  0.57276  1.0000
  C   C1300     1.0  0.48968  0.73753  0.72737  1.0000
  C   C1301     1.0  0.24636  0.78819  0.55324  1.0000
  C   C1302     1.0  0.23976  0.77607  0.57255  1.0000
  H   H1031     1.0  0.46746  0.92601  0.75118  1.0000
  H   H1032     1.0  0.42908  0.55648  0.67553  1.0000
  H   H1033     1.0  0.50488  0.86313  0.65167  1.0000
  C   C1303     1.0  0.42953  0.53638  0.73825  1.0000
  C   C1304     1.0  0.13070  0.78878  0.52858  1.0000
  C   C1305     1.0  0.40129  0.67793  0.56327  1.0000
  C   C1306     1.0  0.01603  0.61524  0.64772  1.0000
  C   C1307     1.0  0.21119  0.99377  0.75185  1.0000
  H   H1034     1.0  0.32685  0.91568  0.75102  1.0000
  P   P42       1.0  0.01800  0.56657  0.60065  1.0000
  C   C1308     1.0  0.38018  0.67219  0.55513  1.0000
  C   C1309     1.0  0.33030  0.67661  0.55424  1.0000
  H   H1035     1.0  0.32219  0.72045  0.53618  1.0000
  H   H1036     1.0  0.28851  0.65016  0.58390  1.0000
  Fe  Fe88      1.0  0.48533  0.82943  0.75322  1.0000
  P   P43       1.0  0.35617  0.69120  0.55828  1.0000
  H   H1037     1.0  0.25627  0.95770  0.75533  1.0000
  H   H1038     1.0  0.07905  0.55875  0.52612  1.0000
  C   C1310     1.0  0.50092  0.71744  0.72205  1.0000
  H   H1039     1.0  0.45886  0.51631  0.72842  1.0000
  H   H1040     1.0  0.20103  0.51908  0.57253  1.0000
  H   H1041     1.0  0.23976  0.51557  0.58793  1.0000
  C   C1311     1.0  0.10845  0.66744  0.52810  1.0000
  H   H1042     1.0  0.12794  0.58802  0.53135  1.0000
  H   H1043     1.0  0.47150  0.98711  0.72818  1.0000
  C   C1312     1.0  0.49967  0.89537  0.52166  1.0000
  H   H1044     1.0  0.40606  0.00207  0.53874  1.0000
  H   H1045     1.0  0.05283  0.68273  0.52534  1.0000
  H   H1046     1.0  0.40782  0.78365  0.76192  1.0000
  C   C1313     1.0  0.20797  0.51470  0.55628  1.0000
  C   C1314     1.0  0.47235  0.00735  0.65764  1.0000
  C   C1315     1.0  0.08582  0.66664  0.52170  1.0000
  C   C1316     1.0  0.50789  0.70970  0.76170  1.0000
  H   H1047     1.0  0.15249  0.76297  0.51531  1.0000
  S   S174      1.0  0.40616  0.54806  0.85738  1.0000
  Fe  Fe89      1.0  0.45590  0.69177  0.91581  1.0000
  S   S175      1.0  0.44503  0.67866  0.88260  1.0000
  S   S176      1.0  0.43029  0.69296  0.94485  1.0000
  C   C1317     1.0  0.28916  0.81917  0.97811  1.0000
  S   S177      1.0  0.49765  0.68231  0.86555  1.0000
  Fe  Fe90      1.0  0.46718  0.70544  0.86691  1.0000
  S   S178      1.0  0.45334  0.72695  0.83765  1.0000
  Fe  Fe91      1.0  0.47628  0.65670  0.88393  1.0000
  S   S179      1.0  0.48145  0.61933  0.87712  1.0000
  S   S180      1.0  0.47576  0.71980  0.90012  1.0000
  S   S181      1.0  0.48598  0.66808  0.91805  1.0000
  Fe  Fe92      1.0  0.15096  0.96509  0.87926  1.0000
  S   S182      1.0  0.11396  0.97247  0.87554  1.0000
  S   S183      1.0  0.17089  0.96685  0.91158  1.0000
  Fe  Fe93      1.0  0.15917  0.96331  0.82790  1.0000
  S   S184      1.0  0.12237  0.97032  0.82042  1.0000
  S   S185      1.0  0.18881  0.95349  0.80436  1.0000
  C   C1318     1.0  0.48960  0.74701  0.96356  1.0000
  Fe  Fe94      1.0  0.11454  0.94615  0.84898  1.0000
  S   S186      1.0  0.08556  0.92143  0.85219  1.0000
  S   S187      1.0  0.16104  0.99085  0.85291  1.0000
  S   S188      1.0  0.15121  0.93698  0.85482  1.0000
  H   H1048     1.0  0.50681  0.73455  0.93409  1.0000
  H   H1049     1.0  0.12568  0.89465  0.85746  1.0000
  H   H1050     1.0  0.44216  0.64701  0.96102  1.0000
  C   C1319     1.0  0.08786  0.98157  0.92634  1.0000
  H   H1051     1.0  0.30355  0.80168  0.94991  1.0000
  P   P44       1.0  0.13387  0.85154  0.83597  1.0000
  C   C1320     1.0  0.13956  0.85076  0.90462  1.0000
  C   C1321     1.0  0.15162  0.82683  0.83195  1.0000
  C   C1322     1.0  0.06794  0.91061  0.83135  1.0000
  C   C1323     1.0  0.05109  0.89550  0.83801  1.0000
  C   C1324     1.0  0.03730  0.88573  0.82207  1.0000
  C   C1325     1.0  0.04066  0.89048  0.79913  1.0000
  C   C1326     1.0  0.05722  0.90594  0.79250  1.0000
  C   C1327     1.0  0.07064  0.91612  0.80850  1.0000
  H   H1052     1.0  0.04897  0.89102  0.85560  1.0000
  C   C1328     1.0  0.22633  0.95627  0.77663  1.0000
  H   H1053     1.0  0.36813  0.53835  0.82347  1.0000
  H   H1054     1.0  0.08330  0.92792  0.80311  1.0000
  C   C1329     1.0  0.16465  0.95192  0.93696  1.0000
  C   C1330     1.0  0.14942  0.93441  0.93771  1.0000
  C   C1331     1.0  0.14602  0.92181  0.95777  1.0000
  C   C1332     1.0  0.15766  0.92668  0.97732  1.0000
  C   C1333     1.0  0.17255  0.94454  0.97674  1.0000
  C   C1334     1.0  0.17605  0.95707  0.95660  1.0000
  H   H1055     1.0  0.14050  0.93045  0.92276  1.0000
  H   H1056     1.0  0.13436  0.90813  0.95815  1.0000
  H   H1057     1.0  0.18158  0.94848  0.99169  1.0000
  H   H1058     1.0  0.18786  0.97063  0.95616  1.0000
  C   C1335     1.0  0.20509  0.96592  0.78200  1.0000
  C   C1336     1.0  0.08465  0.00459  0.92200  1.0000
  C   C1337     1.0  0.47692  0.68512  0.80178  1.0000
  C   C1338     1.0  0.11927  0.00797  0.00622  1.0000
  C   C1339     1.0  0.17307  0.82537  0.84151  1.0000
  Fe  Fe95      1.0  0.50507  0.69501  0.89972  1.0000
  H   H1059     1.0  0.03352  0.98946  0.87712  1.0000
  C   C1340     1.0  0.42191  0.71567  0.96208  1.0000
  C   C1341     1.0  0.43159  0.73681  0.95993  1.0000
  C   C1342     1.0  0.42453  0.75421  0.97429  1.0000
  H   H1060     1.0  0.10602  0.95621  0.94562  1.0000
  C   C1343     1.0  0.39790  0.72956  0.99286  1.0000
  C   C1344     1.0  0.40505  0.71217  0.97861  1.0000
  H   H1061     1.0  0.44465  0.73964  0.94739  1.0000
  H   H1062     1.0  0.43224  0.77045  0.97265  1.0000
  C   C1345     1.0  0.44430  0.54749  0.78373  1.0000
  H   H1063     1.0  0.39739  0.69591  0.98036  1.0000
  C   C1346     1.0  0.46643  0.74939  0.82258  1.0000
  C   C1347     1.0  0.45385  0.76211  0.80676  1.0000
  C   C1348     1.0  0.46380  0.77950  0.79375  1.0000
  C   C1349     1.0  0.48654  0.78429  0.79638  1.0000
  C   C1350     1.0  0.49893  0.77198  0.81263  1.0000
  C   C1351     1.0  0.48904  0.75450  0.82554  1.0000
  H   H1064     1.0  0.43633  0.75835  0.80441  1.0000
  H   H1065     1.0  0.33879  0.52283  0.79940  1.0000
  C   C1352     1.0  0.13494  0.87318  0.90983  1.0000
  H   H1066     1.0  0.49900  0.74476  0.83748  1.0000
  C   C1353     1.0  0.42711  0.56747  0.86406  1.0000
  C   C1354     1.0  0.42151  0.59056  0.86381  1.0000
  C   C1355     1.0  0.43775  0.60663  0.86841  1.0000
  C   C1356     1.0  0.45991  0.59975  0.87302  1.0000
  C   C1357     1.0  0.46547  0.57664  0.87349  1.0000
  C   C1358     1.0  0.44911  0.56056  0.86929  1.0000
  H   H1067     1.0  0.40449  0.59607  0.85992  1.0000
  H   H1068     1.0  0.43317  0.62432  0.86809  1.0000
  H   H1069     1.0  0.48255  0.57114  0.87708  1.0000
  H   H1070     1.0  0.45361  0.54284  0.86970  1.0000
  C   C1359     1.0  0.21648  0.91798  0.93803  1.0000
  C   C1360     1.0  0.20178  0.90748  0.92382  1.0000
  C   C1361     1.0  0.19834  0.88443  0.92630  1.0000
  C   C1362     1.0  0.20961  0.87185  0.94299  1.0000
  C   C1363     1.0  0.22455  0.88224  0.95727  1.0000
  C   C1364     1.0  0.22780  0.90547  0.95474  1.0000
  P   P45       1.0  0.23765  0.86592  0.97974  1.0000
  C   C1365     1.0  0.21512  0.85179  0.99471  1.0000
  C   C1366     1.0  0.25851  0.84578  0.96977  1.0000
  H   H1071     1.0  0.43457  0.84398  0.89604  1.0000
  H   H1072     1.0  0.39974  0.84217  0.95987  1.0000
  H   H1073     1.0  0.14231  0.82655  0.87860  1.0000
  H   H1074     1.0  0.12309  0.92307  0.79308  1.0000
  C   C1367     1.0  0.26062  0.84069  0.94693  1.0000
  H   H1075     1.0  0.18031  0.00738  0.80854  1.0000
  H   H1076     1.0  0.40180  0.84951  0.83058  1.0000
  H   H1077     1.0  0.43725  0.75349  0.90972  1.0000
  C   C1368     1.0  0.22347  0.97590  0.86273  1.0000
  H   H1078     1.0  0.37022  0.94466  0.77691  1.0000
  H   H1079     1.0  0.10227  0.00611  0.00037  1.0000
  C   C1369     1.0  0.46420  0.57905  0.81097  1.0000
  H   H1080     1.0  0.23156  0.81883  0.99584  1.0000
  H   H1081     1.0  0.39041  0.74582  0.84251  1.0000
  H   H1082     1.0  0.17765  0.86198  0.81369  1.0000
  C   C1370     1.0  0.37989  0.55448  0.93703  1.0000
  C   C1371     1.0  0.21672  0.82873  0.00023  1.0000
  H   H1083     1.0  0.19271  0.91737  0.91119  1.0000
  H   H1084     1.0  0.18662  0.87644  0.91551  1.0000
  H   H1085     1.0  0.20637  0.85409  0.94508  1.0000
  H   H1086     1.0  0.23856  0.91415  0.96591  1.0000
  H   H1087     1.0  0.05566  0.82953  0.85482  1.0000
  C   C1372     1.0  0.07543  0.84233  0.80226  1.0000
  H   H1088     1.0  0.36998  0.55755  0.97155  1.0000
  C   C1373     1.0  0.11470  0.98953  0.95501  1.0000
  H   H1089     1.0  0.24991  0.84892  0.93459  1.0000
  H   H1090     1.0  0.47307  0.75447  0.99507  1.0000
  C   C1374     1.0  0.40772  0.75064  0.99090  1.0000
  H   H1091     1.0  0.18092  0.99176  0.77250  1.0000
  C   C1375     1.0  0.13483  0.90952  0.79744  1.0000
  H   H1092     1.0  0.41726  0.71842  0.90407  1.0000
  H   H1093     1.0  0.47132  0.59117  0.82192  1.0000
  C   C1376     1.0  0.25256  0.88385  0.99809  1.0000
  C   C1377     1.0  0.37962  0.51711  0.92218  1.0000
  H   H1094     1.0  0.39414  0.71427  0.87033  1.0000
  C   C1378     1.0  0.50614  0.63889  0.97158  1.0000
  H   H1095     1.0  0.05985  0.90989  0.77483  1.0000
  C   C1379     1.0  0.08979  0.83891  0.84671  1.0000
  C   C1380     1.0  0.49889  0.67628  0.79889  1.0000
  H   H1096     1.0  0.32789  0.87770  0.76924  1.0000
  C   C1381     1.0  0.42605  0.83439  0.90922  1.0000
  H   H1097     1.0  0.19072  0.77440  0.82238  1.0000
  C   C1382     1.0  0.39032  0.91499  0.76990  1.0000
  H   H1098     1.0  0.27846  0.82092  0.92218  1.0000
  C   C1383     1.0  0.42421  0.77046  0.87996  1.0000
  H   H1099     1.0  0.41816  0.86371  0.92861  1.0000
  Fe  Fe96      1.0  0.12401  0.99613  0.84752  1.0000
  C   C1384     1.0  0.50704  0.70995  0.96118  1.0000
  H   H1100     1.0  0.50392  0.60919  0.95186  1.0000
  H   H1101     1.0  0.48494  0.76301  0.95568  1.0000
  C   C1385     1.0  0.13476  0.85992  0.86490  1.0000
  C   C1386     1.0  0.17984  0.78901  0.82505  1.0000
  H   H1102     1.0  0.17901  0.83892  0.85149  1.0000
  C   C1387     1.0  0.47161  0.62581  0.95588  1.0000
  C   C1388     1.0  0.09773  0.84692  0.80726  1.0000
  C   C1389     1.0  0.37257  0.54601  0.95801  1.0000
  H   H1103     1.0  0.40749  0.82509  0.76578  1.0000
  C   C1390     1.0  0.15692  0.90991  0.78907  1.0000
  C   C1391     1.0  0.22614  0.97780  0.83944  1.0000
  H   H1104     1.0  0.22637  0.95983  0.87127  1.0000
  C   C1392     1.0  0.45637  0.54043  0.80283  1.0000
  C   C1393     1.0  0.40526  0.81021  0.94442  1.0000
  C   C1394     1.0  0.50126  0.70528  0.98375  1.0000
  C   C1395     1.0  0.17748  0.85312  0.01141  1.0000
  C   C1396     1.0  0.50169  0.73091  0.95133  1.0000
  H   H1105     1.0  0.11085  0.89196  0.81821  1.0000
  H   H1106     1.0  0.40334  0.82619  0.86558  1.0000
  H   H1107     1.0  0.51070  0.75442  0.87752  1.0000
  C   C1397     1.0  0.21657  0.99460  0.87495  1.0000
  C   C1398     1.0  0.06753  0.83419  0.84159  1.0000
  C   C1399     1.0  0.40011  0.74783  0.85750  1.0000
  C   C1400     1.0  0.12992  0.88886  0.89269  1.0000
  H   H1108     1.0  0.27977  0.88958  0.97406  1.0000
  H   H1109     1.0  0.27197  0.83889  0.00294  1.0000
  C   C1401     1.0  0.45209  0.58629  0.79213  1.0000
  C   C1402     1.0  0.16543  0.87499  0.80929  1.0000
  C   C1403     1.0  0.14315  0.87435  0.81763  1.0000
  C   C1404     1.0  0.45991  0.64440  0.96448  1.0000
  H   H1110     1.0  0.09490  0.83768  0.86403  1.0000
  H   H1111     1.0  0.16230  0.92376  0.77825  1.0000
  C   C1405     1.0  0.45592  0.81437  0.84437  1.0000
  H   H1112     1.0  0.19356  0.88159  0.99589  1.0000
  C   C1406     1.0  0.18709  0.80650  0.83812  1.0000
  C   C1407     1.0  0.48302  0.74222  0.98579  1.0000
  C   C1408     1.0  0.46083  0.67306  0.81423  1.0000
  C   C1409     1.0  0.36180  0.51649  0.77180  1.0000
  C   C1410     1.0  0.48887  0.72148  0.99591  1.0000
  H   H1113     1.0  0.43460  0.85040  0.80428  1.0000
  H   H1114     1.0  0.10913  0.85190  0.79373  1.0000
  C   C1411     1.0  0.42666  0.75226  0.89525  1.0000
  C   C1412     1.0  0.50452  0.65529  0.80892  1.0000
  C   C1413     1.0  0.41694  0.84563  0.92776  1.0000
  C   C1414     1.0  0.41546  0.73228  0.89203  1.0000
  H   H1115     1.0  0.04302  0.83283  0.81547  1.0000
  C   C1415     1.0  0.45487  0.82763  0.82463  1.0000
  H   H1116     1.0  0.47107  0.80441  0.84745  1.0000
  H   H1117     1.0  0.38287  0.57226  0.93458  1.0000
  C   C1416     1.0  0.50154  0.76755  0.88639  1.0000
  C   C1417     1.0  0.43540  0.84029  0.81971  1.0000
  C   C1418     1.0  0.43750  0.81390  0.85954  1.0000
  P   P46       1.0  0.43831  0.79643  0.88491  1.0000
  C   C1419     1.0  0.28580  0.90548  0.00525  1.0000
  H   H1118     1.0  0.46912  0.82789  0.81296  1.0000
  H   H1119     1.0  0.40724  0.54046  0.80980  1.0000
  H   H1120     1.0  0.45419  0.64303  0.83402  1.0000
  C   C1420     1.0  0.36877  0.52294  0.96122  1.0000
  H   H1121     1.0  0.46207  0.67518  0.98206  1.0000
  H   H1122     1.0  0.39219  0.91033  0.78745  1.0000
  H   H1123     1.0  0.07918  0.96953  0.91649  1.0000
  H   H1124     1.0  0.22323  0.99919  0.81015  1.0000
  H   H1125     1.0  0.12574  0.90615  0.89657  1.0000
  C   C1421     1.0  0.13928  0.84408  0.88225  1.0000
  H   H1126     1.0  0.18953  0.89350  0.78899  1.0000
  S   S189      1.0  0.50055  0.80475  0.77930  1.0000
  C   C1422     1.0  0.41793  0.82664  0.85440  1.0000
  H   H1127     1.0  0.44413  0.68037  0.81699  1.0000
  C   C1423     1.0  0.46650  0.65210  0.82389  1.0000
  H   H1128     1.0  0.01814  0.88783  0.88585  1.0000
  C   C1424     1.0  0.41692  0.83977  0.83458  1.0000
  H   H1129     1.0  0.41303  0.78090  0.92585  1.0000
  C   C1425     1.0  0.47130  0.66034  0.97650  1.0000
  C   C1426     1.0  0.42452  0.81095  0.90794  1.0000
  H   H1130     1.0  0.30181  0.91214  0.99961  1.0000
  H   H1131     1.0  0.23235  0.94169  0.78616  1.0000
  C   C1427     1.0  0.49441  0.65744  0.98071  1.0000
  C   C1428     1.0  0.22152  0.99829  0.82829  1.0000
  H   H1132     1.0  0.38914  0.54658  0.90291  1.0000
  H   H1133     1.0  0.14231  0.00718  0.79276  1.0000
  P   P47       1.0  0.50884  0.67826  0.99634  1.0000
  C   C1429     1.0  0.46711  0.78970  0.89237  1.0000
  C   C1430     1.0  0.41098  0.76801  0.86089  1.0000
  C   C1431     1.0  0.40228  0.73001  0.87310  1.0000
  C   C1432     1.0  0.47761  0.80088  0.90968  1.0000
  C   C1433     1.0  0.32399  0.53583  0.00800  1.0000
  C   C1434     1.0  0.35600  0.52404  0.79320  1.0000
  C   C1435     1.0  0.27310  0.83509  0.98524  1.0000
  C   C1436     1.0  0.47923  0.77297  0.88085  1.0000
  H   H1134     1.0  0.40931  0.78135  0.84835  1.0000
  H   H1135     1.0  0.47220  0.70158  0.79509  1.0000
  H   H1136     1.0  0.46871  0.81386  0.91890  1.0000
  C   C1437     1.0  0.15860  0.79042  0.81531  1.0000
  C   C1438     1.0  0.19529  0.86385  0.00024  1.0000
  H   H1137     1.0  0.06271  0.98577  0.84706  1.0000
  H   H1138     1.0  0.47128  0.76391  0.86775  1.0000
  C   C1439     1.0  0.41417  0.79895  0.92584  1.0000
  C   C1440     1.0  0.02980  0.98057  0.86205  1.0000
  C   C1441     1.0  0.04628  0.97850  0.84513  1.0000
  H   H1139     1.0  0.30008  0.81079  0.99031  1.0000
  C   C1442     1.0  0.10297  0.97406  0.94274  1.0000
  H   H1140     1.0  0.13499  0.87839  0.92714  1.0000
  H   H1141     1.0  0.39755  0.80075  0.95828  1.0000
  C   C1443     1.0  0.48833  0.64321  0.82119  1.0000
  C   C1444     1.0  0.40658  0.83354  0.94536  1.0000
  C   C1445     1.0  0.49985  0.79525  0.91537  1.0000
  H   H1142     1.0  0.12707  0.98324  0.96691  1.0000
  H   H1143     1.0  0.06957  0.84422  0.78514  1.0000
  H   H1144     1.0  0.47566  0.55049  0.83091  1.0000
  C   C1446     1.0  0.37772  0.93438  0.76393  1.0000
  H   H1145     1.0  0.45752  0.52287  0.80790  1.0000
  C   C1447     1.0  0.12988  0.88227  0.87037  1.0000
  S   S190      1.0  0.39971  0.77272  0.00908  1.0000
  H   H1146     1.0  0.14308  0.83853  0.91796  1.0000
  C   C1448     1.0  0.10506  0.84539  0.82957  1.0000
  H   H1147     1.0  0.21422  0.99285  0.89299  1.0000
  C   C1449     1.0  0.29105  0.81403  0.95539  1.0000
  H   H1148     1.0  0.15286  0.00752  0.93246  1.0000
  C   C1450     1.0  0.17225  0.89276  0.79511  1.0000
  C   C1451     1.0  0.14455  0.80928  0.81865  1.0000
  C   C1452     1.0  0.38343  0.54003  0.91914  1.0000
  H   H1149     1.0  0.49283  0.62726  0.82929  1.0000
  C   C1453     1.0  0.12797  0.89187  0.81169  1.0000
  H   H1150     1.0  0.20362  0.80548  0.84552  1.0000
  H   H1151     1.0  0.02455  0.87399  0.82747  1.0000
  H   H1152     1.0  0.05484  0.96440  0.81313  1.0000
  H   H1153     1.0  0.15302  0.77691  0.80507  1.0000
  C   C1454     1.0  0.40082  0.52608  0.77753  1.0000
  C   C1455     1.0  0.46655  0.55613  0.81613  1.0000
  S   S191      1.0  0.15334  0.90955  0.00173  1.0000
  C   C1456     1.0  0.27324  0.89275  0.99082  1.0000
  C   C1457     1.0  0.04180  0.96656  0.82592  1.0000
  S   S192      1.0  0.02529  0.87702  0.77812  1.0000
  C   C1458     1.0  0.06039  0.83590  0.81939  1.0000
  C   C1459     1.0  0.39477  0.53384  0.79891  1.0000
  H   H1154     1.0  0.46290  0.61397  0.94580  1.0000
  H   H1155     1.0  0.12824  0.81003  0.81082  1.0000
  C   C1460     1.0  0.37248  0.53272  0.80674  1.0000
  H   H1156     1.0  0.21860  0.93598  0.93639  1.0000
  H   H1157     1.0  0.45399  0.78894  0.78144  1.0000
  C   C1461     1.0  0.27686  0.82485  0.93981  1.0000
  C   C1462     1.0  0.51180  0.77856  0.90375  1.0000
  H   H1158     1.0  0.23109  0.96320  0.82986  1.0000
  H   H1159     1.0  0.01812  0.94703  0.80874  1.0000
  H   H1160     1.0  0.43246  0.57658  0.76433  1.0000
  H   H1161     1.0  0.31285  0.52464  0.99981  1.0000
  C   C1463     1.0  0.49474  0.62315  0.95930  1.0000
  H   H1162     1.0  0.43558  0.95023  0.76463  1.0000
  P   P48       1.0  0.42970  0.52732  0.76745  1.0000
  H   H1163     1.0  0.44994  0.60411  0.78839  1.0000
  H   H1164     1.0  0.38488  0.72661  0.00548  1.0000
  C   C1464     1.0  0.44221  0.57059  0.77851  1.0000
  C   C1465     1.0  0.19751  0.98464  0.76930  1.0000
  H   H1165     1.0  0.50782  0.80380  0.92882  1.0000
  H   H1166     1.0  0.49416  0.73473  0.78408  1.0000
  C   C1466     1.0  0.02081  0.95682  0.82347  1.0000
  C   C1467     1.0  0.34749  0.53342  0.00548  1.0000
  C   C1468     1.0  0.49616  0.72970  0.76685  1.0000
  H   H1167     1.0  0.07366  0.01041  0.90863  1.0000
  C   C1469     1.0  0.19900  0.81813  0.01174  1.0000
  C   C1470     1.0  0.11092  0.01275  0.95139  1.0000
  H   H1168     1.0  0.48339  0.71817  0.01307  1.0000
  C   C1471     1.0  0.38413  0.51740  0.76400  1.0000
  Fe  Fe97      1.0  0.55259  0.35612  0.10302  1.0000
  S   S193      1.0  0.55278  0.36103  0.14022  1.0000
  Fe  Fe98      1.0  0.60391  0.35925  0.09800  1.0000
  S   S194      1.0  0.60771  0.36563  0.13490  1.0000
  S   S195      1.0  0.63597  0.35912  0.07616  1.0000
  Fe  Fe99      1.0  0.58323  0.33768  0.14085  1.0000
  S   S196      1.0  0.59122  0.30631  0.16275  1.0000
  Fe  Fe100     1.0  0.57727  0.38855  0.13155  1.0000
  S   S197      1.0  0.56927  0.42314  0.14552  1.0000
  S   S198      1.0  0.58097  0.33032  0.10394  1.0000
  S   S199      1.0  0.57544  0.38466  0.09424  1.0000
  Fe  Fe101     1.0  0.89298  0.07803  0.17770  1.0000
  S   S200      1.0  0.92679  0.07451  0.19436  1.0000
  S   S201      1.0  0.85642  0.07679  0.19124  1.0000
  Fe  Fe102     1.0  0.91496  0.07874  0.12992  1.0000
  S   S202      1.0  0.95020  0.07543  0.14318  1.0000
  S   S203      1.0  0.90643  0.07394  0.09314  1.0000
  Fe  Fe103     1.0  0.93603  0.04952  0.16742  1.0000
  Fe  Fe104     1.0  0.93866  0.10063  0.16885  1.0000
  S   S204      1.0  0.95734  0.13278  0.17658  1.0000
  S   S205      1.0  0.90171  0.05131  0.15279  1.0000
  S   S206      1.0  0.90402  0.10574  0.15369  1.0000
  C   C1472     1.0  0.74616  0.09031  0.25448  1.0000
  C   C1473     1.0  0.81322  0.07725  0.24551  1.0000
  C   C1474     1.0  0.66663  0.42287  0.02972  1.0000
  C   C1475     1.0  0.63796  0.36108  0.24028  1.0000
  S   S207      1.0  0.63923  0.49570  0.17487  1.0000
  C   C1476     1.0  0.98495  0.13741  0.18658  1.0000
  C   C1477     1.0  0.99647  0.01574  0.10928  1.0000
  C   C1478     1.0  0.65872  0.34629  0.15086  1.0000
  H   H1169     1.0  0.73735  0.38953  0.06832  1.0000
  C   C1479     1.0  0.72209  0.10752  0.22626  1.0000
  C   C1480     1.0  0.52239  0.50823  0.10668  1.0000
  H   H1170     1.0  0.98041  0.17342  0.18474  1.0000
  C   C1481     1.0  0.99188  0.15966  0.18904  1.0000
  H   H1171     1.0  0.99493  0.10261  0.19048  1.0000
  C   C1482     1.0  0.90384  0.09477  0.07145  1.0000
  C   C1483     1.0  0.89864  0.08808  0.04972  1.0000
  C   C1484     1.0  0.89509  0.10409  0.03221  1.0000
  C   C1485     1.0  0.89649  0.12699  0.03633  1.0000
  C   C1486     1.0  0.90219  0.13368  0.05794  1.0000
  C   C1487     1.0  0.90600  0.11766  0.07541  1.0000
  H   H1172     1.0  0.89716  0.07041  0.04646  1.0000
  C   C1488     1.0  0.66722  0.32925  0.02281  1.0000
  H   H1173     1.0  0.90345  0.15138  0.06123  1.0000
  H   H1174     1.0  0.91018  0.12304  0.09200  1.0000
  C   C1489     1.0  0.84548  0.07981  0.21915  1.0000
  C   C1490     1.0  0.85882  0.08632  0.23685  1.0000
  H   H1175     1.0  0.74221  0.16672  0.05902  1.0000
  H   H1176     1.0  0.87642  0.08975  0.23373  1.0000
  C   C1491     1.0  0.99406  0.02319  0.13124  1.0000
  C   C1492     1.0  0.64124  0.34185  0.05265  1.0000
  C   C1493     1.0  0.62464  0.32834  0.04412  1.0000
  H   H1177     1.0  0.81220  0.06996  0.21020  1.0000
  S   S208      1.0  0.52135  0.35200  0.08218  1.0000
  C   C1494     1.0  0.56457  0.38323  0.19356  1.0000
  C   C1495     1.0  0.66258  0.34213  0.04195  1.0000
  H   H1178     1.0  0.60816  0.32797  0.05215  1.0000
  C   C1496     1.0  0.73934  0.36584  0.04164  1.0000
  C   C1497     1.0  0.77179  0.10921  0.04766  1.0000
  H   H1179     1.0  0.67564  0.35236  0.04845  1.0000
  C   C1498     1.0  0.58936  0.44330  0.15216  1.0000
  C   C1499     1.0  0.58194  0.46551  0.15595  1.0000
  C   C1500     1.0  0.59715  0.48190  0.16221  1.0000
  C   C1501     1.0  0.61990  0.47612  0.16512  1.0000
  C   C1502     1.0  0.62736  0.45396  0.16115  1.0000
  C   C1503     1.0  0.61220  0.43762  0.15457  1.0000
  H   H1180     1.0  0.56430  0.47002  0.15414  1.0000
  C   C1504     1.0  0.82648  0.08401  0.26319  1.0000
  H   H1181     1.0  0.64491  0.44933  0.16347  1.0000
  H   H1182     1.0  0.61808  0.42056  0.15181  1.0000
  C   C1505     1.0  0.59006  0.28363  0.23758  1.0000
  C   C1506     1.0  0.59889  0.26964  0.22094  1.0000
  C   C1507     1.0  0.59929  0.27708  0.19828  1.0000
  C   C1508     1.0  0.59066  0.29845  0.19180  1.0000
  C   C1509     1.0  0.58188  0.31253  0.20843  1.0000
  C   C1510     1.0  0.58168  0.30516  0.23120  1.0000
  C   C1511     1.0  0.64829  0.45570  0.04620  1.0000
  H   H1183     1.0  0.60637  0.26615  0.18567  1.0000
  H   H1184     1.0  0.57522  0.32902  0.20374  1.0000
  H   H1185     1.0  0.57488  0.31616  0.24394  1.0000
  C   C1512     1.0  0.84244  0.18050  0.02178  1.0000
  C   C1513     1.0  0.79092  0.15068  0.25823  1.0000
  C   C1514     1.0  0.00001  0.11978  0.19219  1.0000
  H   H1186     1.0  0.66501  0.33905  0.13538  1.0000
  H   H1187     1.0  0.59352  0.36876  0.24999  1.0000
  H   H1188     1.0  0.98688  0.02398  0.09598  1.0000
  P   P49       1.0  0.54089  0.25185  0.14644  1.0000
  C   C1515     1.0  0.54365  0.25103  0.17667  1.0000
  C   C1516     1.0  0.56810  0.25682  0.13333  1.0000
  C   C1517     1.0  0.58798  0.24973  0.14405  1.0000
  C   C1518     1.0  0.60899  0.25391  0.13397  1.0000
  C   C1519     1.0  0.61029  0.26493  0.11299  1.0000
  C   C1520     1.0  0.59058  0.27153  0.10195  1.0000
  C   C1521     1.0  0.56955  0.26749  0.11202  1.0000
  C   C1522     1.0  0.53899  0.27026  0.18926  1.0000
  C   C1523     1.0  0.64997  0.51095  0.11429  1.0000
  C   C1524     1.0  0.54039  0.26922  0.21269  1.0000
  H   H1189     1.0  0.84004  0.19978  0.07497  1.0000
  H   H1190     1.0  0.79583  0.07310  0.24871  1.0000
  C   C1525     1.0  0.66155  0.36907  0.15469  1.0000
  H   H1191     1.0  0.63564  0.50198  0.12120  1.0000
  H   H1192     1.0  0.84884  0.08731  0.05156  1.0000
  H   H1193     1.0  0.83536  0.02498  0.16314  1.0000
  C   C1526     1.0  0.83386  0.15909  0.02581  1.0000
  C   C1527     1.0  0.53104  0.22502  0.13772  1.0000
  H   H1194     1.0  0.58738  0.24142  0.16039  1.0000
  H   H1195     1.0  0.62426  0.24906  0.14267  1.0000
  H   H1196     1.0  0.62655  0.26863  0.10540  1.0000
  H   H1197     1.0  0.59162  0.28028  0.08578  1.0000
  H   H1198     1.0  0.55449  0.27296  0.10325  1.0000
  H   H1199     1.0  0.70654  0.10773  0.21702  1.0000
  C   C1528     1.0  0.55166  0.22999  0.21130  1.0000
  S   S209      1.0  0.89050  0.14781  0.01535  1.0000
  H   H1200     1.0  0.77980  0.09302  0.04450  1.0000
  C   C1529     1.0  0.66144  0.44604  0.02905  1.0000
  H   H1201     1.0  0.78350  0.16306  0.06078  1.0000
  C   C1530     1.0  0.55169  0.37750  0.21261  1.0000
  C   C1531     1.0  0.62933  0.31535  0.02504  1.0000
  S   S210      1.0  0.95411  0.01588  0.17504  1.0000
  C   C1532     1.0  0.77691  0.51151  0.09489  1.0000
  C   C1533     1.0  0.75047  0.15064  0.05591  1.0000
  C   C1534     1.0  0.65182  0.36996  0.25659  1.0000
  C   C1535     1.0  0.82944  0.16707  0.06532  1.0000
  P   P50       1.0  0.81515  0.12493  0.05294  1.0000
  C   C1536     1.0  0.78480  0.12780  0.05251  1.0000
  C   C1537     1.0  0.72623  0.09055  0.24241  1.0000
  H   H1202     1.0  0.73839  0.09702  0.04291  1.0000
  H   H1203     1.0  0.65816  0.38675  0.25477  1.0000
  C   C1538     1.0  0.01348  0.16429  0.19704  1.0000
  H   H1204     1.0  0.75926  0.21983  0.19123  1.0000
  H   H1205     1.0  0.53459  0.28616  0.18113  1.0000
  H   H1206     1.0  0.59774  0.38764  0.17951  1.0000
  H   H1207     1.0  0.66284  0.39192  0.04923  1.0000
  C   C1539     1.0  0.84082  0.08901  0.03543  1.0000
  H   H1208     1.0  0.71947  0.13386  0.05006  1.0000
  H   H1209     1.0  0.76356  0.22971  0.24981  1.0000
  C   C1540     1.0  0.82429  0.11453  0.08018  1.0000
  C   C1541     1.0  0.80909  0.10483  0.09576  1.0000
  C   C1542     1.0  0.81655  0.09712  0.11684  1.0000
  C   C1543     1.0  0.83920  0.09889  0.12244  1.0000
  C   C1544     1.0  0.85436  0.10847  0.10700  1.0000
  C   C1545     1.0  0.84693  0.11638  0.08604  1.0000
  H   H1210     1.0  0.59119  0.49886  0.16532  1.0000
  C   C1546     1.0  0.73108  0.36008  0.02082  1.0000
  H   H1211     1.0  0.78326  0.18687  0.20073  1.0000
  C   C1547     1.0  0.79562  0.12258  0.19713  1.0000
  H   H1212     1.0  0.82451  0.16216  0.08231  1.0000
  C   C1548     1.0  0.86733  0.02746  0.22851  1.0000
  H   H1213     1.0  0.89632  0.04294  0.24212  1.0000
  C   C1549     1.0  0.58577  0.37240  0.23397  1.0000
  C   C1550     1.0  0.62938  0.33949  0.24407  1.0000
  H   H1214     1.0  0.82155  0.13291  0.24753  1.0000
  C   C1551     1.0  0.84937  0.08835  0.25868  1.0000
  H   H1215     1.0  0.69367  0.16270  0.26080  1.0000
  C   C1552     1.0  0.65870  0.40971  0.04799  1.0000
  C   C1553     1.0  0.83809  0.18847  0.06123  1.0000
  H   H1216     1.0  0.64326  0.31579  0.16287  1.0000
  H   H1217     1.0  0.79154  0.10320  0.09174  1.0000
  H   H1218     1.0  0.80483  0.08964  0.12883  1.0000
  H   H1219     1.0  0.84516  0.09267  0.13863  1.0000
  H   H1220     1.0  0.87200  0.10954  0.11118  1.0000
  H   H1221     1.0  0.85889  0.12374  0.07421  1.0000
  C   C1554     1.0  0.73902  0.17657  0.23655  1.0000
  H   H1222     1.0  0.54821  0.24847  0.24185  1.0000
  C   C1555     1.0  0.73257  0.21074  0.21445  1.0000
  H   H1223     1.0  0.78168  0.11134  0.19949  1.0000
  H   H1224     1.0  0.55637  0.38800  0.17806  1.0000
  H   H1225     1.0  0.55446  0.21600  0.17858  1.0000
  H   H1226     1.0  0.61783  0.33257  0.23251  1.0000
  H   H1227     1.0  0.53351  0.37731  0.21169  1.0000
  C   C1556     1.0  0.83157  0.13050  0.17906  1.0000
  H   H1228     1.0  0.52048  0.44483  0.14688  1.0000
  H   H1229     1.0  0.55672  0.21446  0.21989  1.0000
  H   H1230     1.0  0.81803  0.16998  0.21745  1.0000
  H   H1231     1.0  0.66008  0.22385  0.24352  1.0000
  P   P51       1.0  0.77656  0.14784  0.23196  1.0000
  H   H1232     1.0  0.64459  0.26254  0.24855  1.0000
  H   H1233     1.0  0.01185  0.41134  0.24997  1.0000
  C   C1557     1.0  0.73766  0.13213  0.05082  1.0000
  C   C1558     1.0  0.76164  0.10744  0.25101  1.0000
  C   C1559     1.0  0.81276  0.11699  0.18170  1.0000
  C   C1560     1.0  0.79719  0.14185  0.21006  1.0000
  H   H1234     1.0  0.81207  0.10154  0.17257  1.0000
  C   C1561     1.0  0.83318  0.14980  0.19169  1.0000
  H   H1235     1.0  0.73418  0.13753  0.20997  1.0000
  H   H1236     1.0  0.77485  0.50717  0.05920  1.0000
  H   H1237     1.0  0.85560  0.03529  0.24026  1.0000
  H   H1238     1.0  0.72179  0.22501  0.20983  1.0000
  H   H1239     1.0  0.68582  0.43738  0.21616  1.0000
  H   H1240     1.0  0.84808  0.15991  0.18999  1.0000
  C   C1562     1.0  0.53066  0.19523  0.11061  1.0000
  H   H1241     1.0  0.86111  0.06211  0.02155  1.0000
  H   H1242     1.0  0.67010  0.37943  0.14214  1.0000
  C   C1563     1.0  0.84461  0.19517  0.03946  1.0000
  C   C1564     1.0  0.76734  0.18905  0.20954  1.0000
  H   H1243     1.0  0.71383  0.07779  0.24591  1.0000
  H   H1244     1.0  0.70870  0.19707  0.23847  1.0000
  H   H1245     1.0  0.51720  0.40527  0.07560  1.0000
  C   C1565     1.0  0.82737  0.15213  0.04763  1.0000
  C   C1566     1.0  0.81609  0.15546  0.20715  1.0000
  C   C1567     1.0  0.55028  0.23095  0.18788  1.0000
  C   C1568     1.0  0.53864  0.21586  0.11738  1.0000
  C   C1569     1.0  0.82415  0.10567  0.03131  1.0000
  H   H1246     1.0  0.70792  0.41334  0.05032  1.0000
  H   H1247     1.0  0.55231  0.36789  0.24769  1.0000
  H   H1248     1.0  0.52894  0.41866  0.17815  1.0000
  C   C1570     1.0  0.73769  0.12450  0.22251  1.0000
  C   C1571     1.0  0.63760  0.34270  0.18590  1.0000
  C   C1572     1.0  0.74831  0.11141  0.04678  1.0000
  C   C1573     1.0  0.64021  0.44235  0.06410  1.0000
  C   C1574     1.0  0.90535  0.02244  0.21392  1.0000
  S   S211      1.0  0.64741  0.17715  0.26095  1.0000
  H   H1249     1.0  0.67374  0.49317  0.13539  1.0000
  H   H1250     1.0  0.85173  0.21155  0.03628  1.0000
  H   H1251     1.0  0.73290  0.16451  0.24903  1.0000
  C   C1575     1.0  0.82264  0.07527  0.22366  1.0000
  H   H1252     1.0  0.55079  0.22451  0.10674  1.0000
  C   C1576     1.0  0.84616  0.03751  0.13067  1.0000
  C   C1577     1.0  0.75723  0.12499  0.23545  1.0000
  C   C1578     1.0  0.76010  0.17321  0.22585  1.0000
  C   C1579     1.0  0.72524  0.19508  0.23067  1.0000
  C   C1580     1.0  0.75367  0.20779  0.20399  1.0000
  H   H1253     1.0  0.60544  0.25308  0.22554  1.0000
  H   H1254     1.0  0.84528  0.12557  0.16782  1.0000
  C   C1581     1.0  0.52116  0.27393  0.13795  1.0000
  H   H1255     1.0  0.54525  0.30052  0.14030  1.0000
  H   H1256     1.0  0.63922  0.40891  0.07884  1.0000
  H   H1257     1.0  0.52598  0.51298  0.16325  1.0000
  C   C1582     1.0  0.86179  0.03538  0.11298  1.0000
  C   C1583     1.0  0.54668  0.24910  0.22371  1.0000
  H   H1258     1.0  0.53675  0.18816  0.09499  1.0000
  C   C1584     1.0  0.52020  0.50725  0.14728  1.0000
  C   C1585     1.0  0.77394  0.14849  0.05687  1.0000
  C   C1586     1.0  0.52816  0.29627  0.13623  1.0000
  C   C1587     1.0  0.64655  0.33318  0.16637  1.0000
  H   H1259     1.0  0.68593  0.49841  0.26140  1.0000
  H   H1260     1.0  0.77677  0.10719  0.26091  1.0000
  H   H1261     1.0  0.53716  0.28416  0.22232  1.0000
  H   H1262     1.0  0.98249  0.03699  0.13501  1.0000
  H   H1263     1.0  0.86190  0.04764  0.09918  1.0000
  C   C1588     1.0  0.71412  0.39844  0.04198  1.0000
  H   H1264     1.0  0.83395  0.05125  0.13051  1.0000
  H   H1265     1.0  0.65403  0.39658  0.17599  1.0000
  C   C1589     1.0  0.65245  0.37869  0.17414  1.0000
  C   C1590     1.0  0.66560  0.23372  0.25734  1.0000
  H   H1266     1.0  0.77353  0.19724  0.02668  1.0000
  H   H1267     1.0  0.60420  0.42142  0.21691  1.0000
  C   C1591     1.0  0.64544  0.41937  0.06497  1.0000
  H   H1268     1.0  0.63000  0.44976  0.07738  1.0000
  H   H1269     1.0  0.64443  0.47357  0.04571  1.0000
  H   H1270     1.0  0.89096  0.09876  0.01559  1.0000
  H   H1271     1.0  0.61682  0.46039  0.21606  1.0000
  H   H1272     1.0  0.62753  0.33227  0.19697  1.0000
  C   C1592     1.0  0.66108  0.41141  0.21709  1.0000
  C   C1593     1.0  0.58807  0.38299  0.19446  1.0000
  C   C1594     1.0  0.67152  0.50600  0.12230  1.0000
  C   C1595     1.0  0.63802  0.40654  0.21727  1.0000
  S   S212      1.0  0.58677  0.20819  0.26037  1.0000
  C   C1596     1.0  0.73089  0.38504  0.05220  1.0000
  C   C1597     1.0  0.64088  0.36545  0.19032  1.0000
  H   H1273     1.0  0.89082  0.01706  0.10038  1.0000
  C   C1598     1.0  0.84784  0.07454  0.01841  1.0000
  H   H1274     1.0  0.79258  0.50190  0.09642  1.0000
  H   H1275     1.0  0.75234  0.35544  0.04950  1.0000
  H   H1276     1.0  0.92313  0.02609  0.21441  1.0000
  C   C1599     1.0  0.89029  0.03183  0.22955  1.0000
  H   H1277     1.0  0.67366  0.39794  0.21663  1.0000
  P   P52       1.0  0.62924  0.37767  0.21578  1.0000
  C   C1600     1.0  0.84690  0.02245  0.14908  1.0000
  C   C1601     1.0  0.59888  0.37731  0.21462  1.0000
  H   H1278     1.0  0.61636  0.30500  0.01853  1.0000
  C   C1602     1.0  0.87809  0.01807  0.11363  1.0000
  C   C1603     1.0  0.65683  0.25545  0.26022  1.0000
  C   C1604     1.0  0.70549  0.39255  0.02119  1.0000
  C   C1605     1.0  0.62913  0.44665  0.21690  1.0000
  C   C1606     1.0  0.85940  0.01377  0.21181  1.0000
  C   C1607     1.0  0.62208  0.42441  0.21724  1.0000
  C   C1608     1.0  0.81279  0.14155  0.26100  1.0000
  C   C1609     1.0  0.66805  0.43369  0.21676  1.0000
  C   C1610     1.0  0.56228  0.37217  0.23284  1.0000
  H   H1279     1.0  0.65739  0.46861  0.21555  1.0000
  C   C1611     1.0  0.65207  0.45130  0.21656  1.0000
  H   H1280     1.0  0.00337  0.01776  0.16570  1.0000
  H   H1281     1.0  0.51877  0.33040  0.12718  1.0000
  H   H1282     1.0  0.68363  0.32979  0.01465  1.0000
  H   H1283     1.0  0.64343  0.38237  0.01671  1.0000
  C   C1612     1.0  0.65060  0.31579  0.01423  1.0000
  C   C1613     1.0  0.51490  0.18373  0.12398  1.0000
  C   C1614     1.0  0.51488  0.21355  0.15085  1.0000
  H   H1284     1.0  0.66771  0.45682  0.01561  1.0000
  Fe  Fe105     1.0  0.90948  0.40926  0.46351  1.0000
  S   S213      1.0  0.89940  0.44497  0.47037  1.0000
  S   S214      1.0  0.94659  0.39895  0.46627  1.0000
  Fe  Fe106     1.0  0.86019  0.39538  0.45932  1.0000
  S   S215      1.0  0.84658  0.43054  0.46541  1.0000
  S   S216      1.0  0.84270  0.36270  0.45094  1.0000
  Fe  Fe107     1.0  0.87475  0.44219  0.44251  1.0000
  S   S217      1.0  0.87604  0.47140  0.41704  1.0000
  Fe  Fe108     1.0  0.87229  0.43099  0.49295  1.0000
  S   S218      1.0  0.88667  0.40709  0.43412  1.0000
  S   S219      1.0  0.88404  0.39529  0.48842  1.0000
  Fe  Fe109     1.0  0.69227  0.26548  0.43947  1.0000
  S   S220      1.0  0.69438  0.23157  0.45681  1.0000
  S   S221      1.0  0.66801  0.27625  0.41201  1.0000
  Fe  Fe110     1.0  0.73097  0.28495  0.46606  1.0000
  S   S222      1.0  0.73594  0.25233  0.48543  1.0000
  S   S223      1.0  0.74698  0.31901  0.47281  1.0000
  Fe  Fe111     1.0  0.73168  0.23533  0.45252  1.0000
  S   S224      1.0  0.75427  0.20512  0.44519  1.0000
  Fe  Fe112     1.0  0.69814  0.25059  0.48853  1.0000
  S   S225      1.0  0.72953  0.26795  0.43270  1.0000
  S   S226      1.0  0.69320  0.28452  0.47158  1.0000
  Fe  Fe113     1.0  0.78163  0.08909  0.31040  1.0000
  S   S227      1.0  0.75612  0.06196  0.31553  1.0000
  S   S228      1.0  0.81568  0.08715  0.29120  1.0000
  Fe  Fe114     1.0  0.75602  0.12054  0.34346  1.0000
  S   S229      1.0  0.72888  0.09567  0.35117  1.0000
  S   S230      1.0  0.75306  0.15765  0.35141  1.0000
  Fe  Fe115     1.0  0.75669  0.06934  0.35242  1.0000
  S   S231      1.0  0.75997  0.04118  0.37929  1.0000
  Fe  Fe116     1.0  0.72991  0.09004  0.31409  1.0000
  S   S232      1.0  0.69619  0.08780  0.29749  1.0000
  S   S233      1.0  0.78415  0.09490  0.34764  1.0000
  S   S234      1.0  0.75511  0.11646  0.30611  1.0000
  H   H1285     1.0  0.55376  0.13575  0.41787  1.0000
  S   S235      1.0  0.57099  0.22759  0.30954  1.0000
  C   C1615     1.0  0.53751  0.16872  0.41899  1.0000
  S   S236      1.0  0.59607  0.17776  0.30647  1.0000
  H   H1286     1.0  0.52470  0.12243  0.38322  1.0000
  Fe  Fe117     1.0  0.56648  0.19586  0.29061  1.0000
  H   H1287     1.0  0.82849  0.46643  0.36165  1.0000
  Fe  Fe118     1.0  0.60187  0.21028  0.32361  1.0000
  S   S237      1.0  0.61219  0.20524  0.35993  1.0000
  S   S238      1.0  0.62427  0.22435  0.29643  1.0000
  H   H1288     1.0  0.64950  0.21474  0.45533  1.0000
  C   C1616     1.0  0.58909  0.13101  0.50844  1.0000
  C   C1617     1.0  0.69327  0.08897  0.50130  1.0000
  C   C1618     1.0  0.51646  0.16107  0.29940  1.0000
  C   C1619     1.0  0.76039  0.22520  0.26730  1.0000
  H   H1289     1.0  0.82788  0.49363  0.29437  1.0000
  H   H1290     1.0  0.87145  0.38880  0.33561  1.0000
  C   C1620     1.0  0.81613  0.50896  0.38408  1.0000
  C   C1621     1.0  0.79003  0.42782  0.49757  1.0000
  C   C1622     1.0  0.80677  0.39398  0.32789  1.0000
  H   H1291     1.0  0.74936  0.07715  0.26700  1.0000
  C   C1623     1.0  0.65390  0.25613  0.39653  1.0000
  C   C1624     1.0  0.65591  0.23318  0.40187  1.0000
  C   C1625     1.0  0.64356  0.21766  0.39006  1.0000
  C   C1626     1.0  0.62943  0.22488  0.37254  1.0000
  C   C1627     1.0  0.62815  0.24771  0.36650  1.0000
  C   C1628     1.0  0.64024  0.26330  0.37859  1.0000
  H   H1292     1.0  0.66670  0.22740  0.41534  1.0000
  H   H1293     1.0  0.64503  0.20003  0.39454  1.0000
  H   H1294     1.0  0.61731  0.25344  0.35301  1.0000
  H   H1295     1.0  0.63877  0.28101  0.37423  1.0000
  C   C1629     1.0  0.75189  0.19078  0.41982  1.0000
  C   C1630     1.0  0.76415  0.17057  0.41682  1.0000
  C   C1631     1.0  0.76351  0.15934  0.39635  1.0000
  C   C1632     1.0  0.75082  0.16846  0.37866  1.0000
  C   C1633     1.0  0.73816  0.18837  0.38185  1.0000
  C   C1634     1.0  0.73852  0.19942  0.40241  1.0000
  H   H1296     1.0  0.77452  0.16380  0.43025  1.0000
  H   H1297     1.0  0.77358  0.14418  0.39394  1.0000
  H   H1298     1.0  0.72836  0.19544  0.36817  1.0000
  H   H1299     1.0  0.72897  0.21490  0.40463  1.0000
  C   C1635     1.0  0.66286  0.26754  0.27889  1.0000
  H   H1300     1.0  0.54675  0.14297  0.30887  1.0000
  H   H1301     1.0  0.90558  0.43718  0.39173  1.0000
  C   C1636     1.0  0.59974  0.23987  0.44133  1.0000
  H   H1302     1.0  0.71140  0.03861  0.37165  1.0000
  C   C1637     1.0  0.85257  0.48566  0.40488  1.0000
  C   C1638     1.0  0.85642  0.50291  0.38881  1.0000
  C   C1639     1.0  0.65068  0.12359  0.40689  1.0000
  C   C1640     1.0  0.55263  0.11075  0.36310  1.0000
  S   S239      1.0  0.52988  0.18533  0.28807  1.0000
  C   C1641     1.0  0.83041  0.48005  0.41052  1.0000
  C   C1642     1.0  0.67782  0.25807  0.29456  1.0000
  C   C1643     1.0  0.79947  0.43467  0.38082  1.0000
  H   H1303     1.0  0.79244  0.29943  0.46593  1.0000
  H   H1304     1.0  0.82725  0.46673  0.42278  1.0000
  C   C1644     1.0  0.96521  0.39260  0.44349  1.0000
  C   C1645     1.0  0.98814  0.38827  0.44783  1.0000
  C   C1646     1.0  0.00349  0.38281  0.43034  1.0000
  C   C1647     1.0  0.99602  0.38148  0.40829  1.0000
  C   C1648     1.0  0.97309  0.38584  0.40393  1.0000
  C   C1649     1.0  0.95775  0.39145  0.42140  1.0000
  H   H1305     1.0  0.99408  0.38910  0.46484  1.0000
  H   H1306     1.0  0.71426  0.17483  0.44972  1.0000
  H   H1307     1.0  0.96717  0.38483  0.38694  1.0000
  H   H1308     1.0  0.94017  0.39470  0.41784  1.0000
  C   C1650     1.0  0.77406  0.33077  0.46792  1.0000
  C   C1651     1.0  0.77605  0.35429  0.46762  1.0000
  C   C1652     1.0  0.79707  0.36443  0.46356  1.0000
  C   C1653     1.0  0.81640  0.35112  0.45960  1.0000
  C   C1654     1.0  0.81452  0.32763  0.46066  1.0000
  C   C1655     1.0  0.79356  0.31749  0.46493  1.0000
  H   H1309     1.0  0.76114  0.36477  0.47018  1.0000
  H   H1310     1.0  0.79815  0.38250  0.46288  1.0000
  H   H1311     1.0  0.82945  0.31725  0.45812  1.0000
  C   C1656     1.0  0.65709  0.35737  0.27606  1.0000
  C   C1657     1.0  0.64833  0.33598  0.27962  1.0000
  H   H1312     1.0  0.79517  0.48727  0.40454  1.0000
  C   C1658     1.0  0.73899  0.02210  0.38881  1.0000
  C   C1659     1.0  0.65976  0.11679  0.29257  1.0000
  H   H1313     1.0  0.77023  0.37646  0.51207  1.0000
  H   H1314     1.0  0.64673  0.17784  0.49995  1.0000
  H   H1315     1.0  0.69939  0.01532  0.45679  1.0000
  C   C1660     1.0  0.52409  0.20852  0.36171  1.0000
  H   H1316     1.0  0.92920  0.40871  0.37194  1.0000
  C   C1661     1.0  0.66357  0.05471  0.51319  1.0000
  C   C1662     1.0  0.75268  0.05145  0.45797  1.0000
  H   H1317     1.0  0.87351  0.50718  0.38419  1.0000
  C   C1663     1.0  0.63439  0.32709  0.26364  1.0000
  H   H1318     1.0  0.81563  0.24526  0.48938  1.0000
  C   C1664     1.0  0.82381  0.39276  0.34393  1.0000
  C   C1665     1.0  0.83587  0.43921  0.31232  1.0000
  C   C1666     1.0  0.62257  0.16187  0.40897  1.0000
  C   C1667     1.0  0.56703  0.15514  0.36275  1.0000
  C   C1668     1.0  0.68971  0.07170  0.48644  1.0000
  H   H1319     1.0  0.71814  0.18251  0.49005  1.0000
  C   C1669     1.0  0.61388  0.15408  0.47480  1.0000
  C   C1670     1.0  0.75221  0.21310  0.31230  1.0000
  H   H1320     1.0  0.59936  0.10096  0.49131  1.0000
  C   C1671     1.0  0.53581  0.18505  0.45604  1.0000
  C   C1672     1.0  0.80982  0.42722  0.50987  1.0000
  H   H1321     1.0  0.65197  0.32645  0.29494  1.0000
  H   H1322     1.0  0.66183  0.21141  0.32850  1.0000
  H   H1323     1.0  0.56752  0.20077  0.39800  1.0000
  C   C1673     1.0  0.70283  0.23551  0.35662  1.0000
  H   H1324     1.0  0.54952  0.16459  0.48307  1.0000
  H   H1325     1.0  0.65013  0.10374  0.30092  1.0000
  H   H1326     1.0  0.62691  0.31079  0.26657  1.0000
  H   H1327     1.0  0.68163  0.26754  0.30918  1.0000
  C   C1674     1.0  0.54853  0.14960  0.42828  1.0000
  H   H1328     1.0  0.56895  0.22281  0.43562  1.0000
  H   H1329     1.0  0.72506  0.17683  0.31394  1.0000
  H   H1330     1.0  0.52214  0.10637  0.43127  1.0000
  H   H1331     1.0  0.78057  0.16582  0.31232  1.0000
  H   H1332     1.0  0.58183  0.10399  0.34209  1.0000
  H   H1333     1.0  0.70715  0.04224  0.42612  1.0000
  H   H1334     1.0  0.52660  0.10908  0.32294  1.0000
  C   C1675     1.0  0.77379  0.23193  0.36684  1.0000
  C   C1676     1.0  0.78999  0.21457  0.36584  1.0000
  C   C1677     1.0  0.81152  0.21774  0.37410  1.0000
  C   C1678     1.0  0.81681  0.23822  0.38350  1.0000
  C   C1679     1.0  0.80068  0.25584  0.38430  1.0000
  C   C1680     1.0  0.77903  0.25240  0.37610  1.0000
  P   P53       1.0  0.80617  0.28053  0.40008  1.0000
  C   C1681     1.0  0.80909  0.27014  0.42869  1.0000
  C   C1682     1.0  0.83073  0.29581  0.39089  1.0000
  C   C1683     1.0  0.83525  0.31619  0.40109  1.0000
  C   C1684     1.0  0.85443  0.32816  0.39490  1.0000
  C   C1685     1.0  0.86899  0.32016  0.37806  1.0000
  C   C1686     1.0  0.86426  0.30023  0.36734  1.0000
  C   C1687     1.0  0.84516  0.28808  0.37368  1.0000
  C   C1688     1.0  0.82851  0.27421  0.44094  1.0000
  C   C1689     1.0  0.83078  0.26543  0.46283  1.0000
  C   C1690     1.0  0.81394  0.25212  0.47245  1.0000
  C   C1691     1.0  0.79493  0.24741  0.46013  1.0000
  C   C1692     1.0  0.79253  0.25626  0.43831  1.0000
  C   C1693     1.0  0.78304  0.30051  0.39669  1.0000
  C   C1694     1.0  0.77983  0.31126  0.37567  1.0000
  C   C1695     1.0  0.76204  0.32680  0.37259  1.0000
  C   C1696     1.0  0.74730  0.33165  0.39047  1.0000
  C   C1697     1.0  0.75043  0.32105  0.41140  1.0000
  C   C1698     1.0  0.76826  0.30558  0.41454  1.0000
  H   H1335     1.0  0.75679  0.22921  0.36142  1.0000
  H   H1336     1.0  0.78560  0.19839  0.35942  1.0000
  H   H1337     1.0  0.82381  0.20398  0.37402  1.0000
  H   H1338     1.0  0.83314  0.23997  0.39098  1.0000
  H   H1339     1.0  0.76576  0.26501  0.37778  1.0000
  H   H1340     1.0  0.82412  0.32269  0.41416  1.0000
  H   H1341     1.0  0.85806  0.34353  0.40342  1.0000
  H   H1342     1.0  0.88397  0.32938  0.37343  1.0000
  H   H1343     1.0  0.87556  0.29408  0.35427  1.0000
  H   H1344     1.0  0.84180  0.27274  0.36516  1.0000
  H   H1345     1.0  0.84197  0.28418  0.43383  1.0000
  H   H1346     1.0  0.76059  0.40976  0.48882  1.0000
  H   H1347     1.0  0.54673  0.09369  0.36273  1.0000
  H   H1348     1.0  0.78210  0.23667  0.46741  1.0000
  H   H1349     1.0  0.77786  0.25201  0.42891  1.0000
  H   H1350     1.0  0.79110  0.30754  0.36168  1.0000
  H   H1351     1.0  0.75967  0.33516  0.35642  1.0000
  H   H1352     1.0  0.73346  0.34366  0.38822  1.0000
  H   H1353     1.0  0.73901  0.32483  0.42531  1.0000
  H   H1354     1.0  0.77028  0.29760  0.43090  1.0000
  H   H1355     1.0  0.83971  0.13423  0.28396  1.0000
  C   C1699     1.0  0.69536  0.13046  0.27813  1.0000
  C   C1700     1.0  0.71760  0.01603  0.32176  1.0000
  H   H1356     1.0  0.72762  0.26677  0.31470  1.0000
  H   H1357     1.0  0.70111  0.24474  0.39134  1.0000
  C   C1701     1.0  0.81999  0.42239  0.38068  1.0000
  C   C1702     1.0  0.71730  0.27000  0.37081  1.0000
  H   H1358     1.0  0.84267  0.37050  0.36638  1.0000
  H   H1359     1.0  0.73320  0.29195  0.34642  1.0000
  C   C1703     1.0  0.83036  0.37172  0.35317  1.0000
  C   C1704     1.0  0.53733  0.19807  0.37846  1.0000
  C   C1705     1.0  0.86508  0.41469  0.35997  1.0000
  H   H1360     1.0  0.79527  0.21722  0.27404  1.0000
  C   C1706     1.0  0.82081  0.35211  0.34565  1.0000
  H   H1361     1.0  0.80054  0.41009  0.32144  1.0000
  H   H1362     1.0  0.62115  0.12094  0.46186  1.0000
  H   H1363     1.0  0.76241  0.16623  0.27563  1.0000
  H   H1364     1.0  0.71697  0.03371  0.31692  1.0000
  C   C1707     1.0  0.67817  0.17163  0.45187  1.0000
  C   C1708     1.0  0.73786  0.05357  0.44008  1.0000
  C   C1709     1.0  0.91137  0.41046  0.36840  1.0000
  C   C1710     1.0  0.79408  0.42571  0.42043  1.0000
  H   H1365     1.0  0.76031  0.03447  0.48919  1.0000
  H   H1366     1.0  0.55274  0.25703  0.35398  1.0000
  H   H1367     1.0  0.57681  0.23833  0.38283  1.0000
  C   C1711     1.0  0.87507  0.42861  0.37534  1.0000
  S   S240      1.0  0.58987  0.27519  0.26648  1.0000
  C   C1712     1.0  0.80439  0.35340  0.32913  1.0000
  C   C1713     1.0  0.79728  0.37433  0.32035  1.0000
  H   H1368     1.0  0.71946  0.28112  0.38469  1.0000
  H   H1369     1.0  0.84213  0.37221  0.50550  1.0000
  C   C1714     1.0  0.59597  0.19948  0.44428  1.0000
  H   H1370     1.0  0.61799  0.15764  0.37361  1.0000
  P   P54       1.0  0.53069  0.17046  0.38945  1.0000
  C   C1715     1.0  0.62582  0.15085  0.38869  1.0000
  C   C1716     1.0  0.64764  0.13468  0.42719  1.0000
  H   H1371     1.0  0.64522  0.17519  0.33958  1.0000
  C   C1717     1.0  0.54711  0.14947  0.37446  1.0000
  C   C1718     1.0  0.60247  0.16587  0.49186  1.0000
  C   C1719     1.0  0.70669  0.24955  0.37452  1.0000
  C   C1720     1.0  0.81170  0.15111  0.30024  1.0000
  C   C1721     1.0  0.00815  0.32487  0.31685  1.0000
  C   C1722     1.0  0.78678  0.43661  0.40072  1.0000
  C   C1723     1.0  0.56166  0.23033  0.37748  1.0000
  C   C1724     1.0  0.63355  0.15396  0.42844  1.0000
  C   C1725     1.0  0.57234  0.11655  0.35141  1.0000
  C   C1726     1.0  0.68259  0.18000  0.49753  1.0000
  C   C1727     1.0  0.63980  0.13171  0.38763  1.0000
  C   C1728     1.0  0.70170  0.17903  0.48350  1.0000
  C   C1729     1.0  0.72890  0.02319  0.47591  1.0000
  H   H1372     1.0  0.79323  0.44279  0.36561  1.0000
  C   C1730     1.0  0.61252  0.13056  0.47465  1.0000
  H   H1373     1.0  0.63078  0.13896  0.28744  1.0000
  H   H1374     1.0  0.70497  0.10212  0.49677  1.0000
  H   H1375     1.0  0.91207  0.38473  0.34370  1.0000
  H   H1376     1.0  0.66760  0.36441  0.28865  1.0000
  C   C1731     1.0  0.71022  0.24162  0.33484  1.0000
  C   C1732     1.0  0.55288  0.14816  0.45131  1.0000
  C   C1733     1.0  0.82954  0.47921  0.30579  1.0000
  C   C1734     1.0  0.89810  0.42647  0.37958  1.0000
  H   H1377     1.0  0.69858  0.07159  0.47038  1.0000
  C   C1735     1.0  0.59022  0.15438  0.50862  1.0000
  H   H1378     1.0  0.51957  0.23759  0.33982  1.0000
  C   C1736     1.0  0.82955  0.46367  0.34378  1.0000
  H   H1379     1.0  0.77125  0.44656  0.40083  1.0000
  H   H1380     1.0  0.74169  0.06464  0.42581  1.0000
  C   C1737     1.0  0.82744  0.48214  0.32892  1.0000
  C   C1738     1.0  0.77419  0.21247  0.30350  1.0000
  C   C1739     1.0  0.87860  0.39912  0.34820  1.0000
  H   H1381     1.0  0.92806  0.37348  0.50384  1.0000
  C   C1740     1.0  0.83398  0.45778  0.29749  1.0000
  H   H1382     1.0  0.53102  0.19884  0.46680  1.0000
  H   H1383     1.0  0.65677  0.12853  0.44178  1.0000
  H   H1384     1.0  0.78568  0.44258  0.48739  1.0000
  C   C1741     1.0  0.78990  0.15997  0.29774  1.0000
  C   C1742     1.0  0.63189  0.21612  0.45121  1.0000
  H   H1385     1.0  0.57288  0.17222  0.36208  1.0000
  C   C1743     1.0  0.61884  0.19692  0.44961  1.0000
  H   H1386     1.0  0.83962  0.42278  0.30565  1.0000
  H   H1387     1.0  0.78424  0.37539  0.30785  1.0000
  C   C1744     1.0  0.68691  0.23632  0.29162  1.0000
  H   H1388     1.0  0.64324  0.23217  0.49953  1.0000
  C   C1745     1.0  0.83299  0.44195  0.33555  1.0000
  H   H1389     1.0  0.79699  0.33820  0.32331  1.0000
  H   H1390     1.0  0.78423  0.42708  0.43585  1.0000
  H   H1391     1.0  0.74921  0.20787  0.32964  1.0000
  H   H1392     1.0  0.56138  0.13338  0.45838  1.0000
  H   H1393     1.0  0.65533  0.28397  0.28160  1.0000
  H   H1394     1.0  0.67684  0.16967  0.43393  1.0000
  C   C1746     1.0  0.52948  0.22985  0.35317  1.0000
  H   H1395     1.0  0.59260  0.25646  0.43771  1.0000
  H   H1396     1.0  0.86499  0.44111  0.38408  1.0000
  H   H1397     1.0  0.84225  0.40083  0.40069  1.0000
  C   C1747     1.0  0.62238  0.23748  0.44703  1.0000
  P   P55       1.0  0.63118  0.16917  0.45440  1.0000
  H   H1398     1.0  0.69417  0.21997  0.36001  1.0000
  H   H1399     1.0  0.81948  0.40395  0.43530  1.0000
  C   C1748     1.0  0.69949  0.17474  0.46072  1.0000
  H   H1400     1.0  0.58567  0.18488  0.44290  1.0000
  C   C1749     1.0  0.54629  0.16576  0.46522  1.0000
  C   C1750     1.0  0.81227  0.49168  0.40015  1.0000
  H   H1401     1.0  0.66849  0.13998  0.33848  1.0000
  C   C1751     1.0  0.82322  0.14214  0.28180  1.0000
  H   H1402     1.0  0.91110  0.50644  0.42692  1.0000
  H   H1403     1.0  0.61220  0.17703  0.40889  1.0000
  C   C1752     1.0  0.58648  0.22089  0.44010  1.0000
  C   C1753     1.0  0.57956  0.13868  0.35132  1.0000
  H   H1404     1.0  0.99675  0.30669  0.28857  1.0000
  C   C1754     1.0  0.00927  0.31787  0.29462  1.0000
  C   C1755     1.0  0.66129  0.17633  0.48887  1.0000
  C   C1756     1.0  0.77958  0.15998  0.27682  1.0000
  C   C1757     1.0  0.85937  0.34044  0.50183  1.0000
  H   H1405     1.0  0.82415  0.49880  0.33535  1.0000
  H   H1406     1.0  0.64253  0.12343  0.37178  1.0000
  C   C1758     1.0  0.71638  0.02489  0.38290  1.0000
  H   H1407     1.0  0.81930  0.15031  0.31665  1.0000
  H   H1408     1.0  0.84559  0.26897  0.47233  1.0000
  H   H1409     1.0  0.60346  0.18394  0.49255  1.0000
  C   C1759     1.0  0.60014  0.11910  0.49140  1.0000
  P   P56       1.0  0.83535  0.41799  0.35469  1.0000
  H   H1410     1.0  0.63279  0.25219  0.44772  1.0000
  H   H1411     1.0  0.59474  0.14317  0.34207  1.0000
  C   C1760     1.0  0.82696  0.41114  0.40046  1.0000
  C   C1761     1.0  0.74824  0.03636  0.47582  1.0000
  H   H1412     1.0  0.66190  0.10900  0.40592  1.0000
  C   C1762     1.0  0.90166  0.39689  0.35259  1.0000
  Fe  Fe119     1.0  0.61683  0.19286  0.27833  1.0000
  C   C1763     1.0  0.65892  0.17179  0.46600  1.0000
  H   H1413     1.0  0.87310  0.30671  0.50098  1.0000
  C   C1764     1.0  0.68308  0.11359  0.28919  1.0000
  H   H1414     1.0  0.78802  0.20704  0.31412  1.0000
  C   C1765     1.0  0.86091  0.31793  0.50892  1.0000
  C   C1766     1.0  0.52857  0.14261  0.30842  1.0000
  C   C1767     1.0  0.68037  0.22409  0.27311  1.0000
  C   C1768     1.0  0.67504  0.05446  0.49247  1.0000
  P   P57       1.0  0.70640  0.22356  0.31139  1.0000
  C   C1769     1.0  0.73844  0.22646  0.27621  1.0000
  C   C1770     1.0  0.69480  0.19702  0.32054  1.0000
  C   C1771     1.0  0.70774  0.17700  0.31981  1.0000
  C   C1772     1.0  0.69833  0.15660  0.32668  1.0000
  C   C1773     1.0  0.67582  0.15592  0.33378  1.0000
  C   C1774     1.0  0.66275  0.17572  0.33434  1.0000
  C   C1775     1.0  0.67220  0.19621  0.32785  1.0000
  C   C1776     1.0  0.81403  0.41281  0.42020  1.0000
  C   C1777     1.0  0.72489  0.27613  0.34924  1.0000
  C   C1778     1.0  0.72159  0.26189  0.33135  1.0000
  H   H1415     1.0  0.70845  0.14122  0.32615  1.0000
  C   C1779     1.0  0.71845  0.04081  0.44018  1.0000
  H   H1416     1.0  0.71329  0.12809  0.27530  1.0000
  H   H1417     1.0  0.74976  0.01755  0.33782  1.0000
  C   C1780     1.0  0.73417  0.22026  0.29879  1.0000
  H   H1418     1.0  0.83598  0.45562  0.27956  1.0000
  C   C1781     1.0  0.77827  0.21827  0.28095  1.0000
  H   H1419     1.0  0.85991  0.09337  0.27220  1.0000
  H   H1420     1.0  0.82600  0.33594  0.35283  1.0000
  H   H1421     1.0  0.67264  0.04079  0.48116  1.0000
  C   C1782     1.0  0.53161  0.18663  0.43301  1.0000
  H   H1422     1.0  0.68619  0.20685  0.27124  1.0000
  C   C1783     1.0  0.55633  0.20900  0.38606  1.0000
  C   C1784     1.0  0.68426  0.15004  0.26991  1.0000
  C   C1785     1.0  0.71407  0.02550  0.45783  1.0000
  C   C1786     1.0  0.84338  0.35498  0.51165  1.0000
  C   C1787     1.0  0.64879  0.13675  0.28501  1.0000
  H   H1423     1.0  0.87024  0.34654  0.48831  1.0000
  C   C1788     1.0  0.54009  0.12712  0.37459  1.0000
  H   H1424     1.0  0.82070  0.44159  0.50933  1.0000
  C   C1789     1.0  0.54819  0.24080  0.36113  1.0000
  Fe  Fe120     1.0  0.59299  0.23885  0.28021  1.0000
  C   C1790     1.0  0.77591  0.40939  0.49842  1.0000
  H   H1425     1.0  0.99477  0.31920  0.32807  1.0000
  C   C1791     1.0  0.51709  0.12342  0.31640  1.0000
  H   H1426     1.0  0.76793  0.06109  0.45766  1.0000
  C   C1792     1.0  0.66097  0.15327  0.27331  1.0000
  H   H1427     1.0  0.52359  0.20177  0.42613  1.0000
  H   H1428     1.0  0.91320  0.49844  0.46779  1.0000
  H   H1429     1.0  0.60683  0.21632  0.51294  1.0000
  C   C1793     1.0  0.78154  0.39041  0.51166  1.0000
  H   H1430     1.0  0.72499  0.23243  0.26546  1.0000
  H   H1431     1.0  0.79671  0.40490  0.56890  1.0000
  C   C1794     1.0  0.56256  0.03361  0.72517  1.0000
  Fe  Fe121     1.0  0.58417  0.18911  0.59251  1.0000
  S   S241      1.0  0.60753  0.19110  0.62153  1.0000
  S   S242      1.0  0.59217  0.19681  0.55542  1.0000
  Fe  Fe122     1.0  0.54464  0.17487  0.62281  1.0000
  S   S243      1.0  0.56508  0.17651  0.65437  1.0000
  Fe  Fe123     1.0  0.57879  0.20866  0.63977  1.0000
  S   S244      1.0  0.58898  0.24065  0.65734  1.0000
  Fe  Fe124     1.0  0.59216  0.15886  0.63419  1.0000
  S   S245      1.0  0.61391  0.13214  0.65179  1.0000
  S   S246      1.0  0.55608  0.20859  0.60966  1.0000
  S   S247      1.0  0.57110  0.15522  0.60363  1.0000
  Fe  Fe125     1.0  0.90456  0.44942  0.64906  1.0000
  S   S248      1.0  0.93759  0.46605  0.64251  1.0000
  S   S249      1.0  0.89246  0.42314  0.62532  1.0000
  Fe  Fe126     1.0  0.89662  0.47226  0.69391  1.0000
  S   S250      1.0  0.92925  0.49102  0.69032  1.0000
  S   S251      1.0  0.87747  0.47574  0.72751  1.0000
  Fe  Fe127     1.0  0.91987  0.49739  0.65444  1.0000
  Fe  Fe128     1.0  0.94487  0.45840  0.67879  1.0000
  S   S252      1.0  0.98122  0.45017  0.68843  1.0000
  S   S253      1.0  0.88590  0.48123  0.65856  1.0000
  S   S254      1.0  0.91317  0.43912  0.68474  1.0000
  C   C1795     1.0  0.94191  0.39251  0.53028  1.0000
  C   C1796     1.0  0.59169  0.04748  0.53468  1.0000
  S   S255      1.0  0.61057  0.02773  0.63291  1.0000
  C   C1797     1.0  0.99111  0.42382  0.69934  1.0000
  H   H1432     1.0  0.61690  0.06903  0.52020  1.0000
  C   C1798     1.0  0.65919  0.22764  0.53151  1.0000
  H   H1433     1.0  0.98781  0.45525  0.54912  1.0000
  C   C1799     1.0  0.98642  0.38407  0.70804  1.0000
  C   C1800     1.0  0.97755  0.40494  0.70019  1.0000
  C   C1801     1.0  0.60208  0.03802  0.73307  1.0000
  H   H1434     1.0  0.62346  0.16246  0.57669  1.0000
  H   H1435     1.0  0.97589  0.36950  0.70854  1.0000
  H   H1436     1.0  0.96032  0.40637  0.69464  1.0000
  C   C1802     1.0  0.84875  0.47436  0.73669  1.0000
  C   C1803     1.0  0.83092  0.47367  0.72173  1.0000
  H   H1437     1.0  0.81981  0.31798  0.54932  1.0000
  H   H1438     1.0  0.56350  0.32116  0.63337  1.0000
  H   H1439     1.0  0.83438  0.47392  0.70385  1.0000
  H   H1440     1.0  0.77670  0.36307  0.58090  1.0000
  C   C1804     1.0  0.57516  0.25538  0.57572  1.0000
  C   C1805     1.0  0.61313  0.10323  0.64586  1.0000
  C   C1806     1.0  0.59857  0.09509  0.62996  1.0000
  C   C1807     1.0  0.59805  0.07190  0.62611  1.0000
  C   C1808     1.0  0.61227  0.05672  0.63789  1.0000
  C   C1809     1.0  0.62709  0.06486  0.65352  1.0000
  C   C1810     1.0  0.62744  0.08804  0.65753  1.0000
  H   H1441     1.0  0.58750  0.10662  0.62085  1.0000
  H   H1442     1.0  0.58647  0.06569  0.61406  1.0000
  H   H1443     1.0  0.63816  0.05332  0.66262  1.0000
  H   H1444     1.0  0.63883  0.09423  0.66979  1.0000
  C   C1811     1.0  0.58244  0.25315  0.68360  1.0000
  C   C1812     1.0  0.56769  0.24348  0.69947  1.0000
  C   C1813     1.0  0.56298  0.25424  0.71994  1.0000
  C   C1814     1.0  0.57289  0.27477  0.72484  1.0000
  C   C1815     1.0  0.58765  0.28436  0.70896  1.0000
  C   C1816     1.0  0.59242  0.27360  0.68853  1.0000
  H   H1445     1.0  0.55994  0.22773  0.69601  1.0000
  H   H1446     1.0  0.55147  0.24666  0.73205  1.0000
  H   H1447     1.0  0.59487  0.30041  0.71211  1.0000
  H   H1448     1.0  0.60374  0.28132  0.67634  1.0000
  H   H1449     1.0  0.63087  0.15325  0.53699  1.0000
  C   C1817     1.0  0.65631  0.21989  0.55385  1.0000
  C   C1818     1.0  0.63588  0.21056  0.56138  1.0000
  C   C1819     1.0  0.61799  0.20894  0.54663  1.0000
  C   C1820     1.0  0.53870  0.05546  0.67086  1.0000
  H   H1450     1.0  0.86172  0.36585  0.60528  1.0000
  H   H1451     1.0  0.67000  0.22115  0.56545  1.0000
  H   H1452     1.0  0.63400  0.20471  0.57863  1.0000
  H   H1453     1.0  0.63666  0.23611  0.70388  1.0000
  H   H1454     1.0  0.53780  0.16306  0.54163  1.0000
  C   C1821     1.0  0.87315  0.44200  0.55262  1.0000
  C   C1822     1.0  0.87973  0.41994  0.55851  1.0000
  C   C1823     1.0  0.88553  0.41442  0.58087  1.0000
  C   C1824     1.0  0.88563  0.43093  0.59728  1.0000
  C   C1825     1.0  0.87941  0.45302  0.59129  1.0000
  C   C1826     1.0  0.87275  0.45840  0.56919  1.0000
  H   H1455     1.0  0.87993  0.40710  0.54600  1.0000
  H   H1456     1.0  0.88978  0.39724  0.58555  1.0000
  H   H1457     1.0  0.87924  0.46588  0.60378  1.0000
  H   H1458     1.0  0.86758  0.47547  0.56482  1.0000
  C   C1827     1.0  0.52648  0.31325  0.58886  1.0000
  H   H1459     1.0  0.62770  0.04555  0.58842  1.0000
  C   C1828     1.0  0.68787  0.02646  0.59044  1.0000
  H   H1460     1.0  0.64233  0.11460  0.52686  1.0000
  H   H1461     1.0  0.98891  0.38336  0.54113  1.0000
  H   H1462     1.0  0.00162  0.45527  0.59793  1.0000
  C   C1829     1.0  0.00887  0.38185  0.71513  1.0000
  H   H1463     1.0  0.68176  0.09149  0.58784  1.0000
  H   H1464     1.0  0.55461  0.32977  0.70438  1.0000
  H   H1465     1.0  0.56907  0.02609  0.55364  1.0000
  C   C1830     1.0  0.57963  0.03725  0.74046  1.0000
  C   C1831     1.0  0.62076  0.21686  0.52430  1.0000
  H   H1466     1.0  0.59302  0.18015  0.70168  1.0000
  C   C1832     1.0  0.60007  0.26904  0.60367  1.0000
  C   C1833     1.0  0.52194  0.01484  0.69616  1.0000
  C   C1834     1.0  0.96818  0.40875  0.59296  1.0000
  H   H1467     1.0  0.75125  0.03701  0.58145  1.0000
  C   C1835     1.0  0.74406  0.32529  0.55583  1.0000
  C   C1836     1.0  0.75606  0.32309  0.53559  1.0000
  C   C1837     1.0  0.92618  0.41301  0.74191  1.0000
  C   C1838     1.0  0.55077  0.32101  0.68922  1.0000
  C   C1839     1.0  0.59790  0.03431  0.57289  1.0000
  H   H1468     1.0  0.71085  0.03124  0.61732  1.0000
  H   H1469     1.0  0.62728  0.32299  0.73316  1.0000
  C   C1840     1.0  0.77123  0.35192  0.56816  1.0000
  C   C1841     1.0  0.92050  0.47032  0.54453  1.0000
  C   C1842     1.0  0.55954  0.27417  0.60854  1.0000
  P   P58       1.0  0.53509  0.28318  0.62481  1.0000
  C   C1843     1.0  0.85019  0.35458  0.72130  1.0000
  H   H1470     1.0  0.57992  0.12216  0.52172  1.0000
  C   C1844     1.0  0.93151  0.44931  0.54566  1.0000
  C   C1845     1.0  0.54197  0.29707  0.65040  1.0000
  C   C1846     1.0  0.59692  0.25828  0.58346  1.0000
  C   C1847     1.0  0.63737  0.30801  0.72963  1.0000
  C   C1848     1.0  0.60182  0.19220  0.71143  1.0000
  C   C1849     1.0  0.84377  0.47437  0.75991  1.0000
  C   C1850     1.0  0.62656  0.22386  0.71286  1.0000
  C   C1851     1.0  0.85220  0.42332  0.70301  1.0000
  H   H1471     1.0  0.85522  0.36361  0.70605  1.0000
  C   C1852     1.0  0.99529  0.44010  0.54226  1.0000
  P   P59       1.0  0.54594  0.02769  0.68209  1.0000
  C   C1853     1.0  0.67038  0.06036  0.57428  1.0000
  C   C1854     1.0  0.67323  0.03687  0.57506  1.0000
  H   H1472     1.0  0.66386  0.02651  0.56407  1.0000
  C   C1855     1.0  0.63263  0.28776  0.74095  1.0000
  H   H1473     1.0  0.93234  0.38020  0.72854  1.0000
  P   P60       1.0  0.85074  0.39598  0.74204  1.0000
  C   C1856     1.0  0.52034  0.13584  0.52695  1.0000
  H   H1474     1.0  0.54173  0.03010  0.63274  1.0000
  C   C1857     1.0  0.61190  0.05909  0.53485  1.0000
  C   C1858     1.0  0.94553  0.44357  0.56376  1.0000
  H   H1475     1.0  0.95112  0.40323  0.51852  1.0000
  C   C1859     1.0  0.55087  0.01480  0.63735  1.0000
  C   C1860     1.0  0.82322  0.42464  0.67489  1.0000
  C   C1861     1.0  0.54934  0.09365  0.66062  1.0000
  C   C1862     1.0  0.55652  0.26326  0.58820  1.0000
  C   C1863     1.0  0.82022  0.40503  0.59580  1.0000
  H   H1476     1.0  0.61132  0.25173  0.57403  1.0000
  H   H1477     1.0  0.59245  0.02502  0.58785  1.0000
  S   S256      1.0  0.86481  0.44994  0.52505  1.0000
  H   H1478     1.0  0.53975  0.26036  0.58227  1.0000
  C   C1864     1.0  0.84695  0.36597  0.74151  1.0000
  H   H1479     1.0  0.91390  0.50158  0.56108  1.0000
  C   C1865     1.0  0.81072  0.39601  0.57681  1.0000
  C   C1866     1.0  0.56060  0.32748  0.66863  1.0000
  P   P61       1.0  0.96074  0.41683  0.56449  1.0000
  H   H1480     1.0  0.98303  0.39017  0.65419  1.0000
  P   P62       1.0  0.80848  0.36563  0.54207  1.0000
  H   H1481     1.0  0.95997  0.45588  0.59417  1.0000
  C   C1867     1.0  0.53624  0.30293  0.69041  1.0000
  H   H1482     1.0  0.01141  0.35321  0.67274  1.0000
  C   C1868     1.0  0.53164  0.29114  0.67108  1.0000
  H   H1483     1.0  0.52009  0.21014  0.66285  1.0000
  H   H1484     1.0  0.61695  0.20828  0.68232  1.0000
  H   H1485     1.0  0.70697  0.07286  0.61539  1.0000
  H   H1486     1.0  0.57279  0.24640  0.56038  1.0000
  H   H1487     1.0  0.90567  0.34917  0.52972  1.0000
  C   C1869     1.0  0.81887  0.40101  0.70835  1.0000
  C   C1870     1.0  0.01347  0.42165  0.70664  1.0000
  C   C1871     1.0  0.56791  0.03057  0.70236  1.0000
  H   H1488     1.0  0.74224  0.34143  0.58775  1.0000
  C   C1872     1.0  0.52470  0.15845  0.53024  1.0000
  C   C1873     1.0  0.81058  0.40948  0.68791  1.0000
  S   S257      1.0  0.68536  0.23935  0.52329  1.0000
  H   H1489     1.0  0.00951  0.38128  0.62266  1.0000
  C   C1874     1.0  0.88722  0.42268  0.75077  1.0000
  C   C1875     1.0  0.80147  0.38964  0.52406  1.0000
  C   C1876     1.0  0.75165  0.33968  0.57212  1.0000
  H   H1490     1.0  0.68095  0.29014  0.69631  1.0000
  C   C1877     1.0  0.55602  0.31573  0.64926  1.0000
  C   C1878     1.0  0.51706  0.06024  0.66255  1.0000
  C   C1879     1.0  0.97894  0.39530  0.63713  1.0000
  C   C1880     1.0  0.95863  0.40678  0.63285  1.0000
  C   C1881     1.0  0.95320  0.41332  0.61086  1.0000
  C   C1882     1.0  0.66632  0.07254  0.52779  1.0000
  C   C1883     1.0  0.61538  0.20804  0.70050  1.0000
  H   H1491     1.0  0.63891  0.09432  0.59706  1.0000
  H   H1492     1.0  0.94694  0.41050  0.64655  1.0000
  C   C1884     1.0  0.92320  0.48570  0.56152  1.0000
  H   H1493     1.0  0.59507  0.02912  0.67768  1.0000
  H   H1494     1.0  0.93716  0.42180  0.60780  1.0000
  C   C1885     1.0  0.77566  0.33520  0.53162  1.0000
  H   H1495     1.0  0.79437  0.40430  0.68212  1.0000
  C   C1886     1.0  0.83976  0.40787  0.71608  1.0000
  C   C1887     1.0  0.52768  0.09835  0.65275  1.0000
  C   C1888     1.0  0.94315  0.39539  0.55357  1.0000
  H   H1496     1.0  0.85385  0.44322  0.67234  1.0000
  C   C1889     1.0  0.59963  0.19196  0.73483  1.0000
  H   H1497     1.0  0.86819  0.42922  0.70858  1.0000
  H   H1498     1.0  0.92870  0.43755  0.53252  1.0000
  C   C1890     1.0  0.62449  0.22376  0.73640  1.0000
  H   H1499     1.0  0.58133  0.04828  0.51990  1.0000
  C   C1891     1.0  0.84405  0.43145  0.68240  1.0000
  H   H1500     1.0  0.84629  0.40141  0.62044  1.0000
  H   H1501     1.0  0.94377  0.41754  0.74090  1.0000
  C   C1892     1.0  0.84727  0.37404  0.59746  1.0000
  C   C1893     1.0  0.55495  0.07225  0.66936  1.0000
  H   H1502     1.0  0.79480  0.47284  0.71817  1.0000
  C   C1894     1.0  0.81967  0.37607  0.56776  1.0000
  C   C1895     1.0  0.84719  0.33139  0.72066  1.0000
  H   H1503     1.0  0.65832  0.32461  0.70479  1.0000
  H   H1504     1.0  0.84540  0.34985  0.57165  1.0000
  C   C1896     1.0  0.91725  0.36466  0.55958  1.0000
  C   C1897     1.0  0.73487  0.01342  0.52381  1.0000
  C   C1898     1.0  0.80845  0.47313  0.72992  1.0000
  C   C1899     1.0  0.91620  0.36190  0.53642  1.0000
  C   C1900     1.0  0.94888  0.45953  0.58030  1.0000
  H   H1505     1.0  0.72618  0.05943  0.55614  1.0000
  C   C1901     1.0  0.93745  0.48035  0.57936  1.0000
  C   C1902     1.0  0.83797  0.36507  0.57832  1.0000
  C   C1903     1.0  0.64131  0.22604  0.51670  1.0000
  C   C1904     1.0  0.66309  0.26928  0.72046  1.0000
  C   C1905     1.0  0.62557  0.05783  0.55385  1.0000
  H   H1506     1.0  0.90910  0.47426  0.53087  1.0000
  C   C1906     1.0  0.66759  0.28950  0.70893  1.0000
  H   H1507     1.0  0.72119  0.01726  0.74125  1.0000
  H   H1508     1.0  0.54114  0.24497  0.65616  1.0000
  H   H1509     1.0  0.56187  0.10663  0.65983  1.0000
  C   C1907     1.0  0.61809  0.04588  0.57310  1.0000
  C   C1908     1.0  0.59055  0.03112  0.69518  1.0000
  H   H1510     1.0  0.81376  0.42082  0.60224  1.0000
  C   C1909     1.0  0.52623  0.24220  0.64654  1.0000
  H   H1511     1.0  0.58202  0.16367  0.52205  1.0000
  H   H1512     1.0  0.57202  0.06901  0.67484  1.0000
  C   C1910     1.0  0.01447  0.44681  0.60792  1.0000
  C   C1911     1.0  0.98585  0.41907  0.54704  1.0000
  H   H1513     1.0  0.93108  0.38314  0.58614  1.0000
  H   H1514     1.0  0.68491  0.10268  0.53345  1.0000
  C   C1912     1.0  0.90994  0.42832  0.74989  1.0000
  H   H1515     1.0  0.81688  0.43121  0.65903  1.0000
  H   H1516     1.0  0.52344  0.11498  0.64590  1.0000
  C   C1913     1.0  0.74688  0.03057  0.56529  1.0000
  H   H1517     1.0  0.51484  0.19270  0.52234  1.0000
  C   C1914     1.0  0.83851  0.39408  0.60609  1.0000
  C   C1915     1.0  0.89691  0.38639  0.73543  1.0000
  C   C1916     1.0  0.58149  0.27697  0.61618  1.0000
  C   C1917     1.0  0.01425  0.44179  0.52806  1.0000
  H   H1518     1.0  0.93929  0.49222  0.59270  1.0000
  C   C1918     1.0  0.69992  0.03942  0.60505  1.0000
  H   H1519     1.0  0.58442  0.28419  0.63229  1.0000
  P   P63       1.0  0.65123  0.07340  0.55435  1.0000
  C   C1919     1.0  0.64269  0.10174  0.56134  1.0000
  C   C1920     1.0  0.88046  0.40178  0.74332  1.0000
  H   H1520     1.0  0.61690  0.27053  0.61010  1.0000
  C   C1921     1.0  0.98852  0.39706  0.59738  1.0000
  C   C1922     1.0  0.93076  0.38123  0.56815  1.0000
  C   C1923     1.0  0.58476  0.03499  0.55367  1.0000
  H   H1521     1.0  0.75004  0.31217  0.52280  1.0000
  C   C1924     1.0  0.63963  0.11839  0.54437  1.0000
  C   C1925     1.0  0.63289  0.14026  0.54995  1.0000
  C   C1926     1.0  0.62868  0.14553  0.57235  1.0000
  C   C1927     1.0  0.63097  0.12892  0.58918  1.0000
  C   C1928     1.0  0.63767  0.10703  0.58373  1.0000
  H   H1522     1.0  0.99583  0.45026  0.63913  1.0000
  S   S258      1.0  0.57410  0.35471  0.76133  1.0000
  H   H1523     1.0  0.90746  0.35409  0.57093  1.0000
  H   H1524     1.0  0.62494  0.03556  0.70463  1.0000
  H   H1525     1.0  0.62752  0.13307  0.60651  1.0000
  C   C1929     1.0  0.68312  0.07333  0.58848  1.0000
  H   H1526     1.0  0.67315  0.25441  0.71663  1.0000
  C   C1930     1.0  0.83074  0.32444  0.53603  1.0000
  C   C1931     1.0  0.81575  0.40813  0.52279  1.0000
  H   H1527     1.0  0.83865  0.30141  0.73969  1.0000
  S   S259      1.0  0.56548  0.28792  0.75060  1.0000
  C   C1932     1.0  0.78338  0.34975  0.54785  1.0000
  H   H1528     1.0  0.80905  0.38906  0.71813  1.0000
  C   C1933     1.0  0.99384  0.39036  0.61939  1.0000
  C   C1934     1.0  0.64570  0.26830  0.73675  1.0000
  C   C1935     1.0  0.60754  0.03487  0.71046  1.0000
  H   H1529     1.0  0.91478  0.44488  0.75479  1.0000
  C   C1936     1.0  0.65483  0.30890  0.71364  1.0000
  H   H1530     1.0  0.00028  0.39297  0.58395  1.0000
  C   C1937     1.0  0.69766  0.06285  0.60397  1.0000
  H   H1531     1.0  0.53005  0.12291  0.53584  1.0000
  C   C1938     1.0  0.99590  0.39976  0.53773  1.0000
  C   C1939     1.0  0.68650  0.24191  0.76334  1.0000
  P   P64       1.0  0.64088  0.24249  0.75265  1.0000
  H   H1532     1.0  0.84987  0.32269  0.70504  1.0000
  C   C1940     1.0  0.82896  0.34709  0.52885  1.0000
  H   H1533     1.0  0.58912  0.17964  0.74327  1.0000
  H   H1534     1.0  0.57183  0.34153  0.66776  1.0000
  C   C1941     1.0  0.72684  0.03470  0.53035  1.0000
  H   H1535     1.0  0.77050  0.39618  0.73800  1.0000
  H   H1536     1.0  0.89231  0.37022  0.72940  1.0000
  C   C1942     1.0  0.80345  0.47350  0.75313  1.0000
  H   H1537     1.0  0.52890  0.29781  0.70650  1.0000
  C   C1943     1.0  0.68179  0.08929  0.52201  1.0000
  C   C1944     1.0  0.91969  0.39199  0.73484  1.0000
  H   H1538     1.0  0.61524  0.04131  0.74479  1.0000
  C   C1945     1.0  0.61108  0.20751  0.74730  1.0000
  C   C1946     1.0  0.84087  0.31940  0.74017  1.0000
  H   H1539     1.0  0.72880  0.31593  0.55878  1.0000
  H   H1540     1.0  0.83133  0.40801  0.53202  1.0000
  C   C1947     1.0  0.73278  0.04320  0.55102  1.0000
  H   H1541     1.0  0.61866  0.28743  0.75283  1.0000
  C   C1948     1.0  0.01124  0.44406  0.63109  1.0000
  H   H1542     1.0  0.54528  0.03348  0.73119  1.0000
  H   H1543     1.0  0.71558  0.04449  0.51965  1.0000
  H   H1544     1.0  0.80605  0.41852  0.74861  1.0000
  H   H1545     1.0  0.54291  0.30855  0.58209  1.0000
  H   H1546     1.0  0.65268  0.04094  0.51776  1.0000
  C   C1949     1.0  0.51908  0.25810  0.63021  1.0000
  C   C1950     1.0  0.92870  0.37569  0.52182  1.0000
  H   H1547     1.0  0.52000  0.27752  0.67254  1.0000
  C   C1951     1.0  0.84660  0.30992  0.52603  1.0000
  H   H1548     1.0  0.84769  0.29244  0.53147  1.0000
  H   H1549     1.0  0.51974  0.33684  0.56162  1.0000
  H   H1550     1.0  0.87482  0.43500  0.75648  1.0000
  C   C1952     1.0  0.84054  0.35380  0.76103  1.0000
  H   H1551     1.0  0.57541  0.03974  0.75800  1.0000
  H   H1552     1.0  0.00951  0.49021  0.65989  1.0000
  C   C1953     1.0  0.01129  0.50469  0.64858  1.0000
  C   C1954     1.0  0.51839  0.30360  0.60913  1.0000
  H   H1553     1.0  0.74307  0.41814  0.76088  1.0000
  H   H1554     1.0  0.78458  0.33345  0.51568  1.0000
  C   C1955     1.0  0.83752  0.33061  0.76032  1.0000
  C   C1956     1.0  0.76157  0.38800  0.75183  1.0000
  S   S260      1.0  0.77468  0.47414  0.76236  1.0000
  H   H1555     1.0  0.65545  0.19500  0.75770  1.0000
  C   C1957     1.0  0.76535  0.36515  0.75676  1.0000
  H   H1556     1.0  0.77730  0.35552  0.74672  1.0000
  C   C1958     1.0  0.66763  0.22895  0.75917  1.0000
  H   H1557     1.0  0.95190  0.50497  0.73670  1.0000
  C   C1959     1.0  0.93625  0.50624  0.74630  1.0000
  H   H1558     1.0  0.68530  0.26006  0.76239  1.0000
  C   C1960     1.0  0.66970  0.20542  0.76070  1.0000
  C   C1961     1.0  0.93166  0.49049  0.76346  1.0000
  H   H1559     1.0  0.68423  0.18440  0.51498  1.0000
  Fe  Fe129     1.0  0.88307  0.14186  0.97860  1.0000
  S   S261      1.0  0.89180  0.17036  0.95436  1.0000
  Fe  Fe130     1.0  0.86436  0.11339  0.94135  1.0000
  S   S262      1.0  0.87182  0.13974  0.91503  1.0000
  S   S263      1.0  0.84903  0.07931  0.93490  1.0000
  Fe  Fe131     1.0  0.90516  0.14307  0.93199  1.0000
  S   S264      1.0  0.93655  0.14317  0.90913  1.0000
  Fe  Fe132     1.0  0.85773  0.16487  0.93970  1.0000
  S   S265      1.0  0.83380  0.19214  0.92517  1.0000
  S   S266      1.0  0.89858  0.11498  0.95708  1.0000
  S   S267      1.0  0.84807  0.13812  0.96520  1.0000
  Fe  Fe133     1.0  0.75893  0.47384  0.79796  1.0000
  S   S268      1.0  0.72889  0.49631  0.80633  1.0000
  C   C1962     1.0  0.71423  0.37334  0.01060  1.0000
  Fe  Fe134     1.0  0.75537  0.44930  0.84355  1.0000
  S   S269      1.0  0.72555  0.46994  0.85560  1.0000
  S   S270      1.0  0.77081  0.41792  0.85994  1.0000
  Fe  Fe135     1.0  0.71237  0.46554  0.82084  1.0000
  S   S271      1.0  0.67473  0.45989  0.81891  1.0000
  C   C1963     1.0  0.57876  0.50424  0.89008  1.0000
  S   S272      1.0  0.74084  0.44281  0.80987  1.0000
  S   S273      1.0  0.77529  0.47915  0.83112  1.0000
  Fe  Fe136     1.0  0.60590  0.35847  0.78111  1.0000
  S   S274      1.0  0.58781  0.36588  0.81374  1.0000
  H   H1560     1.0  0.68507  0.50738  0.83232  1.0000
  C   C1964     1.0  0.83423  0.41263  0.80670  1.0000
  S   S275      1.0  0.55759  0.32225  0.80301  1.0000
  Fe  Fe137     1.0  0.55618  0.35928  0.79482  1.0000
  H   H1561     1.0  0.66416  0.48374  0.85959  1.0000
  Fe  Fe138     1.0  0.59045  0.32843  0.81938  1.0000
  S   S276      1.0  0.59690  0.31283  0.85386  1.0000
  S   S277      1.0  0.61044  0.32119  0.78802  1.0000
  Fe  Fe139     1.0  0.72296  0.33236  0.94782  1.0000
  S   S278      1.0  0.74021  0.30518  0.92790  1.0000
  S   S279      1.0  0.72937  0.36981  0.94730  1.0000
  Fe  Fe140     1.0  0.68808  0.30091  0.96897  1.0000
  S   S280      1.0  0.70201  0.27099  0.95016  1.0000
  Fe  Fe141     1.0  0.73641  0.28309  0.95893  1.0000
  S   S281      1.0  0.76332  0.25905  0.97393  1.0000
  Fe  Fe142     1.0  0.70493  0.29486  0.92039  1.0000
  S   S282      1.0  0.69677  0.28866  0.88410  1.0000
  S   S283      1.0  0.72208  0.31147  0.97994  1.0000
  S   S284      1.0  0.68815  0.32339  0.93822  1.0000
  H   H1562     1.0  0.88605  0.04767  0.87767  1.0000
  S   S285      1.0  0.81846  0.04015  0.84140  1.0000
  C   C1965     1.0  0.52667  0.38211  0.89891  1.0000
  C   C1966     1.0  0.62486  0.30649  0.86189  1.0000
  C   C1967     1.0  0.62872  0.29658  0.88315  1.0000
  C   C1968     1.0  0.65074  0.29160  0.89030  1.0000
  C   C1969     1.0  0.66907  0.29589  0.87593  1.0000
  C   C1970     1.0  0.66524  0.30548  0.85452  1.0000
  C   C1971     1.0  0.64323  0.31100  0.84757  1.0000
  H   H1563     1.0  0.61466  0.29288  0.89423  1.0000
  H   H1564     1.0  0.65349  0.28412  0.90681  1.0000
  H   H1565     1.0  0.67935  0.30902  0.84346  1.0000
  H   H1566     1.0  0.64048  0.31866  0.83115  1.0000
  C   C1972     1.0  0.75771  0.40489  0.88362  1.0000
  C   C1973     1.0  0.74981  0.41743  0.90178  1.0000
  C   C1974     1.0  0.74093  0.40650  0.92112  1.0000
  C   C1975     1.0  0.73973  0.38297  0.92237  1.0000
  C   C1976     1.0  0.74726  0.37046  0.90404  1.0000
  C   C1977     1.0  0.75648  0.38139  0.88488  1.0000
  H   H1567     1.0  0.75124  0.43551  0.90119  1.0000
  H   H1568     1.0  0.73527  0.41626  0.93529  1.0000
  H   H1569     1.0  0.74649  0.35234  0.90482  1.0000
  H   H1570     1.0  0.76281  0.37159  0.87103  1.0000
  C   C1978     1.0  0.66442  0.43696  0.80423  1.0000
  C   C1979     1.0  0.64211  0.43035  0.80815  1.0000
  C   C1980     1.0  0.63365  0.41163  0.79739  1.0000
  C   C1981     1.0  0.64730  0.39968  0.78222  1.0000
  H   H1571     1.0  0.73778  0.34533  0.01248  1.0000
  C   C1982     1.0  0.67803  0.42512  0.78897  1.0000
  H   H1572     1.0  0.63143  0.43953  0.81979  1.0000
  H   H1573     1.0  0.61650  0.40661  0.80062  1.0000
  C   C1983     1.0  0.67454  0.38866  0.96830  1.0000
  H   H1574     1.0  0.82414  0.01948  0.88631  1.0000
  C   C1984     1.0  0.84180  0.06853  0.90843  1.0000
  C   C1985     1.0  0.84141  0.08195  0.88879  1.0000
  C   C1986     1.0  0.83411  0.07305  0.86850  1.0000
  C   C1987     1.0  0.82781  0.05047  0.86738  1.0000
  C   C1988     1.0  0.82895  0.03686  0.88685  1.0000
  C   C1989     1.0  0.83566  0.04592  0.90728  1.0000
  H   H1575     1.0  0.84616  0.09933  0.88935  1.0000
  H   H1576     1.0  0.83329  0.08374  0.85358  1.0000
  C   C1990     1.0  0.91719  0.02398  0.80876  1.0000
  H   H1577     1.0  0.83590  0.03537  0.92233  1.0000
  C   C1991     1.0  0.96401  0.14845  0.91875  1.0000
  C   C1992     1.0  0.96765  0.15691  0.94001  1.0000
  C   C1993     1.0  0.98969  0.16152  0.94667  1.0000
  H   H1578     1.0  0.61498  0.50153  0.98166  1.0000
  C   C1994     1.0  0.92130  0.04376  0.82002  1.0000
  C   C1995     1.0  0.98265  0.14444  0.90438  1.0000
  H   H1579     1.0  0.95348  0.15998  0.95131  1.0000
  H   H1580     1.0  0.99231  0.16798  0.96320  1.0000
  H   H1581     1.0  0.87979  0.50952  0.77989  1.0000
  H   H1582     1.0  0.97997  0.13721  0.88827  1.0000
  C   C1996     1.0  0.81488  0.21108  0.93921  1.0000
  C   C1997     1.0  0.81302  0.21169  0.96263  1.0000
  C   C1998     1.0  0.79757  0.22682  0.97290  1.0000
  C   C1999     1.0  0.78328  0.24106  0.95998  1.0000
  C   C2000     1.0  0.78514  0.24042  0.93656  1.0000
  C   C2001     1.0  0.80100  0.22569  0.92630  1.0000
  H   H1583     1.0  0.82359  0.20065  0.97282  1.0000
  H   H1584     1.0  0.79658  0.22739  0.99102  1.0000
  H   H1585     1.0  0.77442  0.25134  0.92638  1.0000
  H   H1586     1.0  0.80242  0.22552  0.90818  1.0000
  H   H1587     1.0  0.68809  0.35846  0.77842  1.0000
  H   H1588     1.0  0.84199  0.41135  0.82302  1.0000
  H   H1589     1.0  0.93805  0.05044  0.81904  1.0000
  H   H1590     1.0  0.93446  0.18600  0.79409  1.0000
  C   C2002     1.0  0.62774  0.49788  0.94777  1.0000
  C   C2003     1.0  0.59118  0.47189  0.86897  1.0000
  C   C2004     1.0  0.61260  0.47304  0.87821  1.0000
  C   C2005     1.0  0.68033  0.42262  0.91311  1.0000
  C   C2006     1.0  0.69200  0.44055  0.90330  1.0000
  C   C2007     1.0  0.68142  0.46160  0.90052  1.0000
  C   C2008     1.0  0.93503  0.09223  0.83700  1.0000
  H   H1591     1.0  0.58780  0.45913  0.85688  1.0000
  H   H1592     1.0  0.62572  0.46129  0.87281  1.0000
  H   H1593     1.0  0.68882  0.40639  0.91545  1.0000
  H   H1594     1.0  0.70937  0.43822  0.89795  1.0000
  H   H1595     1.0  0.69115  0.47540  0.89366  1.0000
  C   C2009     1.0  0.66700  0.50111  0.86343  1.0000
  H   H1596     1.0  0.81781  0.47424  0.78598  1.0000
  H   H1597     1.0  0.66988  0.36989  0.93853  1.0000
  C   C2010     1.0  0.92417  0.08715  0.89034  1.0000
  C   C2011     1.0  0.92485  0.08319  0.91354  1.0000
  C   C2012     1.0  0.91175  0.06644  0.92363  1.0000
  C   C2013     1.0  0.89809  0.05352  0.91047  1.0000
  C   C2014     1.0  0.88297  0.11817  0.85758  1.0000
  C   C2015     1.0  0.59561  0.39796  0.97347  1.0000
  C   C2016     1.0  0.64703  0.44669  0.91680  1.0000
  H   H1598     1.0  0.93375  0.10089  0.88311  1.0000
  H   H1599     1.0  0.93496  0.09370  0.92379  1.0000
  H   H1600     1.0  0.91158  0.06400  0.94173  1.0000
  H   H1601     1.0  0.72232  0.39991  0.79213  1.0000
  C   C2017     1.0  0.91062  0.07412  0.87691  1.0000
  H   H1602     1.0  0.62490  0.35490  0.99389  1.0000
  H   H1603     1.0  0.60549  0.41255  0.97664  1.0000
  C   C2018     1.0  0.52228  0.41223  0.82462  1.0000
  C   C2019     1.0  0.97599  0.09221  0.83644  1.0000
  H   H1604     1.0  0.93060  0.01563  0.79937  1.0000
  C   C2020     1.0  0.63700  0.38756  0.88690  1.0000
  C   C2021     1.0  0.90387  0.05467  0.83213  1.0000
  C   C2022     1.0  0.65788  0.42575  0.92002  1.0000
  H   H1605     1.0  0.86858  0.05340  0.84186  1.0000
  H   H1606     1.0  0.62963  0.44887  0.92224  1.0000
  H   H1607     1.0  0.90757  0.47947  0.78863  1.0000
  H   H1608     1.0  0.60773  0.39524  0.93957  1.0000
  C   C2023     1.0  0.69322  0.45967  0.96024  1.0000
  H   H1609     1.0  0.69507  0.43038  0.78555  1.0000
  H   H1610     1.0  0.95498  0.13345  0.80164  1.0000
  C   C2024     1.0  0.63806  0.25345  0.79810  1.0000
  C   C2025     1.0  0.97077  0.18609  0.83784  1.0000
  C   C2026     1.0  0.60262  0.25238  0.77872  1.0000
  C   C2027     1.0  0.77467  0.17168  0.00171  1.0000
  C   C2028     1.0  0.81220  0.42117  0.80493  1.0000
  H   H1611     1.0  0.99332  0.14643  0.85300  1.0000
  C   C2029     1.0  0.97780  0.22228  0.90461  1.0000
  H   H1612     1.0  0.73032  0.51259  0.89660  1.0000
  C   C2030     1.0  0.77216  0.32172  0.86342  1.0000
  H   H1613     1.0  0.77289  0.14936  0.97430  1.0000
  C   C2031     1.0  0.64590  0.36091  0.96463  1.0000
  H   H1614     1.0  0.63840  0.34793  0.95510  1.0000
  H   H1615     1.0  0.89348  0.11947  0.87214  1.0000
  H   H1616     1.0  0.66864  0.14811  0.91535  1.0000
  H   H1617     1.0  0.78647  0.16094  0.01082  1.0000
  C   C2032     1.0  0.65870  0.46473  0.90683  1.0000
  H   H1618     1.0  0.69110  0.27844  0.80364  1.0000
  H   H1619     1.0  0.80291  0.42653  0.81981  1.0000
  H   H1620     1.0  0.65617  0.25149  0.79847  1.0000
  C   C2033     1.0  0.57077  0.35975  0.96569  1.0000
  P   P65       1.0  0.68388  0.40991  0.00798  1.0000
  C   C2034     1.0  0.93489  0.11037  0.82144  1.0000
  H   H1621     1.0  0.84452  0.11455  0.80591  1.0000
  H   H1622     1.0  0.66529  0.44206  0.97504  1.0000
  C   C2035     1.0  0.85539  0.11570  0.82022  1.0000
  C   C2036     1.0  0.57422  0.48739  0.87500  1.0000
  H   H1623     1.0  0.91079  0.16655  0.82308  1.0000
  C   C2037     1.0  0.84613  0.40566  0.78750  1.0000
  H   H1624     1.0  0.86161  0.01855  0.82217  1.0000
  C   C2038     1.0  0.81438  0.10730  0.00997  1.0000
  C   C2039     1.0  0.73442  0.39002  0.78259  1.0000
  H   H1625     1.0  0.54215  0.37659  0.93085  1.0000
  H   H1626     1.0  0.55764  0.48648  0.86777  1.0000
  C   C2040     1.0  0.76717  0.16537  0.98074  1.0000
  H   H1627     1.0  0.92545  0.15960  0.86149  1.0000
  H   H1628     1.0  0.52245  0.44107  0.84586  1.0000
  C   C2041     1.0  0.95719  0.17507  0.85406  1.0000
  C   C2042     1.0  0.99797  0.20458  0.87359  1.0000
  C   C2043     1.0  0.00828  0.15800  0.93209  1.0000
  C   C2044     1.0  0.00805  0.21752  0.82633  1.0000
  H   H1629     1.0  0.71986  0.15028  0.98015  1.0000
  C   C2045     1.0  0.68768  0.14034  0.96860  1.0000
  H   H1630     1.0  0.96306  0.17204  0.87100  1.0000
  H   H1631     1.0  0.83270  0.32131  0.77547  1.0000
  C   C2046     1.0  0.86570  0.13421  0.85407  1.0000
  C   C2047     1.0  0.65499  0.37200  0.88801  1.0000
  H   H1632     1.0  0.96364  0.21782  0.87227  1.0000
  C   C2048     1.0  0.87277  0.09975  0.82356  1.0000
  S   S286      1.0  0.65544  0.29967  0.98985  1.0000
  C   C2049     1.0  0.88237  0.04532  0.83283  1.0000
  C   C2050     1.0  0.67984  0.14867  0.92948  1.0000
  C   C2051     1.0  0.76731  0.19206  0.01069  1.0000
  C   C2052     1.0  0.64537  0.50260  0.93244  1.0000
  C   C2053     1.0  0.63843  0.36474  0.98658  1.0000
  H   H1633     1.0  0.97241  0.19839  0.80329  1.0000
  C   C2054     1.0  0.72033  0.43312  0.98880  1.0000
  H   H1634     1.0  0.83305  0.14794  0.01191  1.0000
  C   C2055     1.0  0.69076  0.29581  0.79780  1.0000
  H   H1635     1.0  0.54032  0.40932  0.82512  1.0000
  H   H1636     1.0  0.57316  0.26273  0.79775  1.0000
  Fe  Fe143     1.0  0.57728  0.31789  0.77065  1.0000
  H   H1637     1.0  0.87531  0.08670  0.81140  1.0000
  H   H1638     1.0  0.67135  0.37595  0.88088  1.0000
  S   S287      1.0  0.52067  0.37504  0.79722  1.0000
  H   H1639     1.0  0.63924  0.40369  0.87846  1.0000
  H   H1640     1.0  0.80160  0.12006  0.00628  1.0000
  H   H1641     1.0  0.00147  0.24416  0.84992  1.0000
  H   H1642     1.0  0.84422  0.06577  0.98377  1.0000
  H   H1643     1.0  0.88718  0.04123  0.91845  1.0000
  H   H1644     1.0  0.59440  0.26987  0.83225  1.0000
  C   C2056     1.0  0.95517  0.11939  0.81355  1.0000
  C   C2057     1.0  0.60321  0.26381  0.81741  1.0000
  C   C2058     1.0  0.61611  0.38224  0.89665  1.0000
  C   C2059     1.0  0.94088  0.18283  0.81081  1.0000
  C   C2060     1.0  0.66942  0.40670  0.77785  1.0000
  H   H1645     1.0  0.61339  0.48849  0.94271  1.0000
  H   H1646     1.0  0.81452  0.09457  0.97631  1.0000
  C   C2061     1.0  0.85179  0.13286  0.83552  1.0000
  H   H1647     1.0  0.60229  0.39441  0.89564  1.0000
  C   C2062     1.0  0.56966  0.36965  0.98673  1.0000
  H   H1648     1.0  0.74725  0.22231  0.00526  1.0000
  H   H1649     1.0  0.78523  0.43003  0.78255  1.0000
  C   C2063     1.0  0.89552  0.50900  0.77051  1.0000
  C   C2064     1.0  0.62660  0.26063  0.81747  1.0000
  H   H1650     1.0  0.65425  0.39316  0.83799  1.0000
  C   C2065     1.0  0.99676  0.21932  0.91799  1.0000
  C   C2066     1.0  0.64908  0.38044  0.99952  1.0000
  C   C2067     1.0  0.59124  0.25965  0.79805  1.0000
  Fe  Fe144     1.0  0.74385  0.49949  0.84058  1.0000
  S   S288      1.0  0.63720  0.37621  0.76816  1.0000
  C   C2068     1.0  0.01064  0.14936  0.84827  1.0000
  C   C2069     1.0  0.68338  0.44403  0.97508  1.0000
  H   H1651     1.0  0.65679  0.13222  0.95253  1.0000
  H   H1652     1.0  0.66570  0.33871  0.89828  1.0000
  C   C2070     1.0  0.93574  0.16797  0.84870  1.0000
  H   H1653     1.0  0.64890  0.41189  0.92781  1.0000
  C   C2071     1.0  0.92753  0.17189  0.82710  1.0000
  C   C2072     1.0  0.59687  0.38801  0.95244  1.0000
  C   C2073     1.0  0.61315  0.36134  0.90769  1.0000
  C   C2074     1.0  0.63127  0.34576  0.90835  1.0000
  P   P66       1.0  0.58661  0.35514  0.92160  1.0000
  C   C2075     1.0  0.58462  0.36868  0.94844  1.0000
  C   C2076     1.0  0.56393  0.36494  0.90370  1.0000
  C   C2077     1.0  0.54417  0.37470  0.91291  1.0000
  H   H1654     1.0  0.85736  0.47484  0.77168  1.0000
  C   C2078     1.0  0.71658  0.46194  0.95951  1.0000
  C   C2079     1.0  0.54823  0.36991  0.86641  1.0000
  C   C2080     1.0  0.56584  0.36264  0.88031  1.0000
  H   H1655     1.0  0.91919  0.11759  0.81534  1.0000
  P   P67       1.0  0.99862  0.19506  0.84502  1.0000
  H   H1656     1.0  0.83788  0.36206  0.77685  1.0000
  C   C2081     1.0  0.58494  0.32511  0.92649  1.0000
  C   C2082     1.0  0.59616  0.31481  0.94477  1.0000
  C   C2083     1.0  0.59567  0.29154  0.94830  1.0000
  C   C2084     1.0  0.58379  0.27835  0.93374  1.0000
  C   C2085     1.0  0.57247  0.28845  0.91559  1.0000
  C   C2086     1.0  0.57313  0.31172  0.91188  1.0000
  H   H1657     1.0  0.77329  0.35477  0.81614  1.0000
  H   H1658     1.0  0.62962  0.32944  0.91647  1.0000
  H   H1659     1.0  0.84821  0.18538  0.00501  1.0000
  H   H1660     1.0  0.83816  0.14506  0.83310  1.0000
  C   C2087     1.0  0.75246  0.20614  0.99867  1.0000
  H   H1661     1.0  0.54962  0.36782  0.84838  1.0000
  H   H1662     1.0  0.58081  0.35496  0.87280  1.0000
  C   C2088     1.0  0.62614  0.24941  0.77850  1.0000
  C   C2089     1.0  0.70882  0.15005  0.96591  1.0000
  H   H1663     1.0  0.60569  0.32464  0.95614  1.0000
  H   H1664     1.0  0.60485  0.28376  0.96217  1.0000
  H   H1665     1.0  0.58367  0.26029  0.93632  1.0000
  H   H1666     1.0  0.56374  0.27822  0.90394  1.0000
  H   H1667     1.0  0.56491  0.31899  0.89725  1.0000
  C   C2090     1.0  0.97848  0.21525  0.88239  1.0000
  H   H1668     1.0  0.63583  0.26420  0.83246  1.0000
  H   H1669     1.0  0.72424  0.47379  0.94770  1.0000
  C   C2091     1.0  0.70095  0.15838  0.92673  1.0000
  C   C2092     1.0  0.71547  0.15941  0.94501  1.0000
  C   C2093     1.0  0.75366  0.35471  0.77465  1.0000
  P   P68       1.0  0.74290  0.17149  0.94112  1.0000
  C   C2094     1.0  0.76249  0.15092  0.92951  1.0000
  C   C2095     1.0  0.73998  0.19603  0.92266  1.0000
  C   C2096     1.0  0.75649  0.20100  0.90619  1.0000
  C   C2097     1.0  0.75390  0.21989  0.89191  1.0000
  C   C2098     1.0  0.73478  0.23390  0.89383  1.0000
  C   C2099     1.0  0.71815  0.22895  0.90994  1.0000
  C   C2100     1.0  0.72075  0.21020  0.92438  1.0000
  C   C2101     1.0  0.78571  0.15477  0.92969  1.0000
  C   C2102     1.0  0.80114  0.13863  0.92175  1.0000
  C   C2103     1.0  0.79354  0.11840  0.91374  1.0000
  C   C2104     1.0  0.77046  0.11443  0.91334  1.0000
  C   C2105     1.0  0.75495  0.13062  0.92116  1.0000
  C   C2106     1.0  0.75274  0.17976  0.96820  1.0000
  H   H1670     1.0  0.78332  0.31450  0.87603  1.0000
  P   P69       1.0  0.64515  0.49209  0.90428  1.0000
  C   C2107     1.0  0.82132  0.47394  0.76810  1.0000
  C   C2108     1.0  0.52870  0.37969  0.87568  1.0000
  C   C2109     1.0  0.74534  0.20016  0.97744  1.0000
  C   C2110     1.0  0.67394  0.30368  0.78329  1.0000
  H   H1671     1.0  0.86291  0.14755  0.86593  1.0000
  C   C2111     1.0  0.80217  0.42299  0.78393  1.0000
  H   H1672     1.0  0.70596  0.16511  0.91035  1.0000
  H   H1673     1.0  0.79873  0.33753  0.84422  1.0000
  H   H1674     1.0  0.77161  0.19067  0.90451  1.0000
  H   H1675     1.0  0.76697  0.22391  0.87963  1.0000
  H   H1676     1.0  0.73287  0.24876  0.88302  1.0000
  H   H1677     1.0  0.70335  0.23990  0.91132  1.0000
  H   H1678     1.0  0.70779  0.20689  0.93697  1.0000
  H   H1679     1.0  0.79190  0.17021  0.93620  1.0000
  H   H1680     1.0  0.81903  0.14183  0.92190  1.0000
  H   H1681     1.0  0.80555  0.10576  0.90792  1.0000
  H   H1682     1.0  0.76469  0.09871  0.90703  1.0000
  H   H1683     1.0  0.73720  0.12706  0.92082  1.0000
  H   H1684     1.0  0.95623  0.06920  0.85641  1.0000
  C   C2112     1.0  0.88643  0.10062  0.84252  1.0000
  C   C2113     1.0  0.61706  0.48950  0.89388  1.0000
  H   H1685     1.0  0.73453  0.21182  0.96820  1.0000
  C   C2114     1.0  0.70774  0.40774  0.84950  1.0000
  C   C2115     1.0  0.68425  0.40886  0.84919  1.0000
  C   C2116     1.0  0.67248  0.39238  0.83832  1.0000
  C   C2117     1.0  0.68414  0.37503  0.82746  1.0000
  C   C2118     1.0  0.70781  0.37435  0.82694  1.0000
  C   C2119     1.0  0.71947  0.39063  0.83836  1.0000
  P   P70       1.0  0.72375  0.35366  0.81126  1.0000
  C   C2120     1.0  0.70542  0.33350  0.79932  1.0000
  C   C2121     1.0  0.68923  0.34094  0.78375  1.0000
  C   C2122     1.0  0.82153  0.09286  0.99298  1.0000
  C   C2123     1.0  0.96244  0.18987  0.81612  1.0000
  H   H1686     1.0  0.99138  0.11722  0.81471  1.0000
  C   C2124     1.0  0.70664  0.31059  0.80559  1.0000
  C   C2125     1.0  0.74298  0.34078  0.83119  1.0000
  C   C2126     1.0  0.73439  0.32859  0.84980  1.0000
  C   C2127     1.0  0.74896  0.31875  0.86555  1.0000
  H   H1687     1.0  0.99608  0.22420  0.93539  1.0000
  C   C2128     1.0  0.78082  0.33456  0.84542  1.0000
  C   C2129     1.0  0.76629  0.34418  0.82939  1.0000
  H   H1688     1.0  0.71697  0.42040  0.85792  1.0000
  H   H1689     1.0  0.67522  0.42267  0.85704  1.0000
  H   H1690     1.0  0.73772  0.39039  0.83821  1.0000
  H   H1691     1.0  0.93653  0.01476  0.85869  1.0000
  H   H1692     1.0  0.94377  0.47706  0.76717  1.0000
  H   H1693     1.0  0.70824  0.36851  0.99440  1.0000
  H   H1694     1.0  0.99189  0.08512  0.84222  1.0000
  H   H1695     1.0  0.71929  0.30408  0.81700  1.0000
  H   H1696     1.0  0.71639  0.32667  0.85221  1.0000
  H   H1697     1.0  0.74212  0.30907  0.87960  1.0000
  C   C2130     1.0  0.89571  0.01490  0.80955  1.0000
  C   C2131     1.0  0.66368  0.37316  0.95537  1.0000
  H   H1698     1.0  0.68922  0.39686  0.96118  1.0000
  C   C2132     1.0  0.65195  0.35101  0.89826  1.0000
  C   C2133     1.0  0.87833  0.02554  0.82161  1.0000
  H   H1699     1.0  0.67446  0.36257  0.81932  1.0000
  C   C2134     1.0  0.91131  0.49188  0.77557  1.0000
  C   C2135     1.0  0.60018  0.50544  0.89933  1.0000
  P   P71       1.0  0.90895  0.08014  0.84705  1.0000
  H   H1700     1.0  0.68254  0.13332  0.98480  1.0000
  C   C2136     1.0  0.62868  0.50506  0.96993  1.0000
  C   C2137     1.0  0.89746  0.05734  0.88723  1.0000
  C   C2138     1.0  0.69683  0.43081  0.98968  1.0000
  H   H1701     1.0  0.96244  0.22968  0.91159  1.0000
  C   C2139     1.0  0.83834  0.07658  0.99716  1.0000
  C   C2140     1.0  0.67318  0.13971  0.95042  1.0000
  C   C2141     1.0  0.73840  0.36719  0.78794  1.0000
  H   H1702     1.0  0.58148  0.39611  0.00710  1.0000
  H   H1703     1.0  0.68279  0.46978  0.94904  1.0000
  H   H1704     1.0  0.75662  0.33698  0.77830  1.0000
  C   C2142     1.0  0.95575  0.08322  0.84445  1.0000
  C   C2143     1.0  0.67345  0.32613  0.77595  1.0000
  H   H1705     1.0  0.66109  0.29254  0.77794  1.0000
  H   H1706     1.0  0.56095  0.34500  0.96297  1.0000
  C   C2144     1.0  0.73012  0.44864  0.97375  1.0000
  C   C2145     1.0  0.97570  0.11028  0.82098  1.0000
  C   C2146     1.0  0.83607  0.40726  0.76632  1.0000
  C   C2147     1.0  0.66749  0.39229  0.99059  1.0000
  H   H1707     1.0  0.86306  0.39873  0.78924  1.0000
  C   C2148     1.0  0.00466  0.14945  0.91084  1.0000
  H   H1708     1.0  0.74828  0.45005  0.97284  1.0000
  C   C2149     1.0  0.58213  0.38869  0.99066  1.0000
  H   H1709     1.0  0.73123  0.42268  0.99931  1.0000
  H   H1710     1.0  0.55924  0.36244  0.00010  1.0000
  C   C2150     1.0  0.00773  0.23986  0.83338  1.0000
  H   H1711     1.0  0.51515  0.38530  0.86479  1.0000
  H   H1712     1.0  0.72498  0.19999  0.77458  1.0000
  H   H1713     1.0  0.72155  0.24160  0.77212  1.0000
  C   C2151     1.0  0.70902  0.20807  0.77029  1.0000
  C   C2152     1.0  0.70709  0.23150  0.76888  1.0000
  C   C2153     1.0  0.65949  0.50993  0.88395  1.0000
  C   C2154     1.0  0.74607  0.40040  0.76470  1.0000
  H   H1714     1.0  0.66036  0.33233  0.76479  1.0000
  C   C2155     1.0  0.81408  0.41630  0.76466  1.0000
  H   H1715     1.0  0.67997  0.39783  0.76586  1.0000
  H   H1716     1.0  0.64308  0.01755  0.76410  1.0000
  H   H1717     1.0  0.60956  0.20675  0.76544  1.0000
  C   C2156     1.0  0.69034  0.19505  0.76618  1.0000
  H   H1718     1.0  0.59310  0.24981  0.76371  1.0000
  H   H1719     1.0  0.69183  0.17688  0.76727  1.0000
  C   C2157     1.0  0.00588  0.01229  0.14858  1.0000
  S   S289      1.0  0.67997  0.64197  0.03356  1.0000
  H   H1720     1.0  0.99372  0.95306  0.10490  1.0000
  S   S290      1.0  0.96528  0.68271  0.25208  1.0000
  Fe  Fe145     1.0  0.60314  0.57497  0.18598  1.0000
  S   S291      1.0  0.62764  0.59874  0.16984  1.0000
  S   S292      1.0  0.56858  0.58439  0.20091  1.0000
  Fe  Fe146     1.0  0.63234  0.53353  0.17413  1.0000
  S   S293      1.0  0.65899  0.55451  0.15714  1.0000
  Fe  Fe147     1.0  0.65470  0.57713  0.18668  1.0000
  S   S294      1.0  0.68384  0.59557  0.20214  1.0000
  Fe  Fe148     1.0  0.63028  0.57442  0.14167  1.0000
  S   S295      1.0  0.62473  0.58180  0.10435  1.0000
  S   S296      1.0  0.62982  0.55489  0.20489  1.0000
  S   S297      1.0  0.60392  0.55173  0.15677  1.0000
  Fe  Fe149     1.0  0.95627  0.89401  0.11732  1.0000
  S   S298      1.0  0.96653  0.87704  0.08513  1.0000
  S   S299      1.0  0.94359  0.93046  0.11341  1.0000
  Fe  Fe150     1.0  0.96544  0.85118  0.14572  1.0000
  S   S300      1.0  0.97669  0.83157  0.11571  1.0000
  S   S301      1.0  0.96323  0.83819  0.18232  1.0000
  Fe  Fe151     1.0  0.99554  0.86253  0.10488  1.0000
  Fe  Fe152     1.0  0.94684  0.84757  0.09789  1.0000
  S   S302      1.0  0.92783  0.82332  0.07612  1.0000
  S   S303      1.0  0.98661  0.88128  0.13624  1.0000
  S   S304      1.0  0.93420  0.86538  0.12882  1.0000
  H   H1721     1.0  0.61850  0.64094  0.14832  1.0000
  S   S305      1.0  0.97911  0.73837  0.22267  1.0000
  C   C2158     1.0  0.73460  0.60449  0.12423  1.0000
  C   C2159     1.0  0.96695  0.81012  0.19296  1.0000
  C   C2160     1.0  0.97377  0.79239  0.17925  1.0000
  C   C2161     1.0  0.97727  0.77059  0.18864  1.0000
  C   C2162     1.0  0.97383  0.76615  0.21177  1.0000
  C   C2163     1.0  0.96677  0.78383  0.22539  1.0000
  C   C2164     1.0  0.96331  0.80563  0.21605  1.0000
  H   H1722     1.0  0.97660  0.79551  0.16146  1.0000
  H   H1723     1.0  0.78621  0.96585  0.15909  1.0000
  H   H1724     1.0  0.96424  0.78079  0.24317  1.0000
  H   H1725     1.0  0.95798  0.81917  0.22682  1.0000
  C   C2165     1.0  0.70350  0.58426  0.22199  1.0000
  C   C2166     1.0  0.69845  0.54716  0.04406  1.0000
  H   H1726     1.0  0.62989  0.66341  0.04642  1.0000
  H   H1727     1.0  0.89214  0.99026  0.13254  1.0000
  H   H1728     1.0  0.51637  0.74133  0.13541  1.0000
  C   C2167     1.0  0.54153  0.65703  0.20905  1.0000
  C   C2168     1.0  0.56380  0.65287  0.20149  1.0000
  C   C2169     1.0  0.57223  0.63078  0.19880  1.0000
  C   C2170     1.0  0.55858  0.61251  0.20402  1.0000
  C   C2171     1.0  0.53635  0.61660  0.21175  1.0000
  C   C2172     1.0  0.52780  0.63876  0.21418  1.0000
  H   H1729     1.0  0.71711  0.83115  0.06549  1.0000
  H   H1730     1.0  0.58923  0.62790  0.19258  1.0000
  H   H1731     1.0  0.92697  0.75284  0.03382  1.0000
  H   H1732     1.0  0.78657  0.64437  0.26251  1.0000
  C   C2173     1.0  0.90810  0.82782  0.05413  1.0000
  C   C2174     1.0  0.90133  0.80922  0.04206  1.0000
  H   H1733     1.0  0.97716  0.92859  0.07745  1.0000
  H   H1734     1.0  0.69412  0.53020  0.04917  1.0000
  C   C2175     1.0  0.88284  0.85142  0.03133  1.0000
  C   C2176     1.0  0.89880  0.84902  0.04859  1.0000
  H   H1735     1.0  0.90796  0.79273  0.04661  1.0000
  H   H1736     1.0  0.65680  0.52036  0.24033  1.0000
  H   H1737     1.0  0.53038  0.69341  0.03671  1.0000
  H   H1738     1.0  0.90367  0.86348  0.05780  1.0000
  C   C2177     1.0  0.66500  0.62470  0.05308  1.0000
  C   C2178     1.0  0.66749  0.62780  0.07622  1.0000
  C   C2179     1.0  0.65531  0.61484  0.09220  1.0000
  C   C2180     1.0  0.64069  0.59850  0.08514  1.0000
  C   C2181     1.0  0.63813  0.59550  0.06201  1.0000
  C   C2182     1.0  0.65029  0.60844  0.04604  1.0000
  H   H1739     1.0  0.67876  0.64042  0.08181  1.0000
  H   H1740     1.0  0.65701  0.61771  0.10992  1.0000
  H   H1741     1.0  0.62673  0.58301  0.05638  1.0000
  H   H1742     1.0  0.64818  0.60592  0.02831  1.0000
  C   C2183     1.0  0.95162  0.99229  0.15757  1.0000
  C   C2184     1.0  0.93969  0.99383  0.13756  1.0000
  C   C2185     1.0  0.93771  0.97480  0.12421  1.0000
  C   C2186     1.0  0.94759  0.95397  0.13064  1.0000
  C   C2187     1.0  0.95994  0.95248  0.15045  1.0000
  C   C2188     1.0  0.96190  0.97156  0.16383  1.0000
  H   H1743     1.0  0.52979  0.51480  0.09117  1.0000
  H   H1744     1.0  0.92828  0.97620  0.10885  1.0000
  H   H1745     1.0  0.96771  0.93661  0.15559  1.0000
  H   H1746     1.0  0.97130  0.97021  0.17921  1.0000
  H   H1747     1.0  0.64944  0.68064  0.19761  1.0000
  Fe  Fe153     1.0  0.97166  0.71959  0.25609  1.0000
  H   H1748     1.0  0.95259  0.78448  0.02946  1.0000
  C   C2189     1.0  0.71186  0.58398  0.05275  1.0000
  H   H1749     1.0  0.55727  0.69050  0.16797  1.0000
  H   H1750     1.0  0.75054  0.61265  0.12602  1.0000
  H   H1751     1.0  0.52568  0.60257  0.21593  1.0000
  H   H1752     1.0  0.73889  0.54064  0.12680  1.0000
  H   H1753     1.0  0.74633  0.60155  0.25496  1.0000
  H   H1754     1.0  0.93511  0.74210  0.19660  1.0000
  H   H1755     1.0  0.94689  0.55955  0.25029  1.0000
  C   C2190     1.0  0.00484  0.94396  0.09351  1.0000
  H   H1756     1.0  0.89532  0.74551  0.16032  1.0000
  H   H1757     1.0  0.53056  0.55849  0.18509  1.0000
  H   H1758     1.0  0.66223  0.63683  0.22728  1.0000
  H   H1759     1.0  0.54538  0.58496  0.14804  1.0000
  H   H1760     1.0  0.58042  0.58828  0.12512  1.0000
  C   C2191     1.0  0.87878  0.00288  0.13195  1.0000
  C   C2192     1.0  0.92296  0.73033  0.20341  1.0000
  C   C2193     1.0  0.72934  0.81504  0.03552  1.0000
  C   C2194     1.0  0.65095  0.62647  0.23733  1.0000
  C   C2195     1.0  0.90237  0.81792  0.24684  1.0000
  C   C2196     1.0  0.66522  0.54027  0.08990  1.0000
  H   H1761     1.0  0.73943  0.52904  0.05547  1.0000
  C   C2197     1.0  0.79555  0.95695  0.19302  1.0000
  C   C2198     1.0  0.87453  0.00388  0.19634  1.0000
  C   C2199     1.0  0.73263  0.58739  0.10877  1.0000
  C   C2200     1.0  0.71885  0.59862  0.23178  1.0000
  C   C2201     1.0  0.63547  0.65879  0.17354  1.0000
  H   H1762     1.0  0.69284  0.55012  0.22052  1.0000
  H   H1763     1.0  0.88552  0.81354  0.21572  1.0000
  C   C2202     1.0  0.95975  0.56865  0.25866  1.0000
  H   H1764     1.0  0.64882  0.67987  0.07845  1.0000
  C   C2203     1.0  0.79939  0.96595  0.17141  1.0000
  H   H1765     1.0  0.01363  0.92554  0.13553  1.0000
  C   C2204     1.0  0.91469  0.69274  0.21706  1.0000
  C   C2205     1.0  0.62239  0.69700  0.17931  1.0000
  H   H1766     1.0  0.71755  0.59608  0.06450  1.0000
  H   H1767     1.0  0.74493  0.80940  0.04321  1.0000
  C   C2206     1.0  0.01071  0.99733  0.10464  1.0000
  C   C2207     1.0  0.61446  0.60988  0.24314  1.0000
  H   H1768     1.0  0.64359  0.55720  0.25352  1.0000
  H   H1769     1.0  0.77447  0.51870  0.13013  1.0000
  H   H1770     1.0  0.98277  0.75709  0.17789  1.0000
  C   C2208     1.0  0.92173  0.78508  0.26244  1.0000
  H   H1771     1.0  0.52610  0.61919  0.16257  1.0000
  C   C2209     1.0  0.82691  0.77181  0.22519  1.0000
  C   C2210     1.0  0.88553  0.72189  0.21762  1.0000
  H   H1772     1.0  0.63004  0.53242  0.09236  1.0000
  C   C2211     1.0  0.53866  0.72224  0.11354  1.0000
  H   H1773     1.0  0.92096  0.75523  0.24328  1.0000
  C   C2212     1.0  0.97853  0.82179  0.03393  1.0000
  C   C2213     1.0  0.81268  0.95680  0.20881  1.0000
  C   C2214     1.0  0.63692  0.67895  0.18480  1.0000
  H   H1774     1.0  0.53350  0.73144  0.09849  1.0000
  H   H1775     1.0  0.67669  0.61588  0.26028  1.0000
  H   H1776     1.0  0.74721  0.58249  0.09868  1.0000
  H   H1777     1.0  0.00175  0.90537  0.05265  1.0000
  H   H1778     1.0  0.72687  0.71960  0.03219  1.0000
  H   H1779     1.0  0.93193  0.00971  0.13237  1.0000
  H   H1780     1.0  0.94724  0.70292  0.20441  1.0000
  H   H1781     1.0  0.71843  0.61631  0.22720  1.0000
  C   C2215     1.0  0.89746  0.00876  0.19720  1.0000
  H   H1782     1.0  0.96146  0.82776  0.03751  1.0000
  C   C2216     1.0  0.68995  0.51820  0.11420  1.0000
  C   C2217     1.0  0.61914  0.65649  0.15718  1.0000
  C   C2218     1.0  0.60397  0.67424  0.15207  1.0000
  C   C2219     1.0  0.60621  0.69480  0.16277  1.0000
  P   P72       1.0  0.58330  0.67091  0.13052  1.0000
  C   C2220     1.0  0.57049  0.64382  0.13530  1.0000
  C   C2221     1.0  0.56191  0.69316  0.13179  1.0000
  C   C2222     1.0  0.81726  0.79638  0.02219  1.0000
  C   C2223     1.0  0.73476  0.59028  0.24751  1.0000
  C   C2224     1.0  0.53588  0.71636  0.15381  1.0000
  C   C2225     1.0  0.55035  0.64175  0.14786  1.0000
  C   C2226     1.0  0.54108  0.62066  0.15203  1.0000
  C   C2227     1.0  0.55193  0.60139  0.14390  1.0000
  C   C2228     1.0  0.57182  0.60324  0.13121  1.0000
  C   C2229     1.0  0.58110  0.62430  0.12692  1.0000
  C   C2230     1.0  0.59751  0.67047  0.10338  1.0000
  C   C2231     1.0  0.61986  0.67750  0.10081  1.0000
  C   C2232     1.0  0.63136  0.67509  0.08025  1.0000
  C   C2233     1.0  0.62066  0.66580  0.06212  1.0000
  C   C2234     1.0  0.59832  0.65914  0.06442  1.0000
  C   C2235     1.0  0.58676  0.66147  0.08494  1.0000
  H   H1783     1.0  0.59558  0.70922  0.15848  1.0000
  H   H1784     1.0  0.56238  0.70103  0.09603  1.0000
  C   C2236     1.0  0.70437  0.56141  0.22800  1.0000
  H   H1785     1.0  0.89747  0.83552  0.24781  1.0000
  H   H1786     1.0  0.54217  0.65613  0.15534  1.0000
  C   C2237     1.0  0.89579  0.80546  0.22859  1.0000
  H   H1787     1.0  0.92019  0.67563  0.22105  1.0000
  H   H1788     1.0  0.86838  0.72680  0.22184  1.0000
  H   H1789     1.0  0.59683  0.62514  0.11743  1.0000
  H   H1790     1.0  0.62867  0.68436  0.11471  1.0000
  C   C2238     1.0  0.91551  0.77266  0.24402  1.0000
  C   C2239     1.0  0.73551  0.56740  0.25362  1.0000
  H   H1791     1.0  0.59021  0.65167  0.05042  1.0000
  H   H1792     1.0  0.56965  0.65568  0.08663  1.0000
  C   C2240     1.0  0.80417  0.81605  0.01959  1.0000
  C   C2241     1.0  0.92853  0.76156  0.01770  1.0000
  C   C2242     1.0  0.71004  0.59058  0.03014  1.0000
  C   C2243     1.0  0.76673  0.52098  0.11386  1.0000
  C   C2244     1.0  0.64685  0.52802  0.09803  1.0000
  C   C2245     1.0  0.99532  0.92991  0.07804  1.0000
  P   P73       1.0  0.86459  0.98658  0.17435  1.0000
  C   C2246     1.0  0.83741  0.97535  0.18156  1.0000
  C   C2247     1.0  0.88265  0.96217  0.16988  1.0000
  C   C2248     1.0  0.88040  0.94967  0.15041  1.0000
  C   C2249     1.0  0.89420  0.93070  0.14680  1.0000
  C   C2250     1.0  0.91002  0.92380  0.16277  1.0000
  C   C2251     1.0  0.91190  0.93572  0.18250  1.0000
  C   C2252     1.0  0.89813  0.95471  0.18618  1.0000
  C   C2253     1.0  0.90256  0.78280  0.22688  1.0000
  H   H1793     1.0  0.80980  0.94968  0.22551  1.0000
  C   C2254     1.0  0.90078  0.73745  0.20844  1.0000
  H   H1794     1.0  0.64704  0.64491  0.17748  1.0000
  H   H1795     1.0  0.88090  0.68773  0.22943  1.0000
  H   H1796     1.0  0.82309  0.98158  0.14871  1.0000
  H   H1797     1.0  0.83476  0.79733  0.02690  1.0000
  H   H1798     1.0  0.84146  0.01142  0.21076  1.0000
  C   C2255     1.0  0.73644  0.53661  0.09086  1.0000
  H   H1799     1.0  0.62246  0.63317  0.21610  1.0000
  C   C2256     1.0  0.68695  0.53548  0.09792  1.0000
  H   H1800     1.0  0.77934  0.94997  0.19749  1.0000
  H   H1801     1.0  0.90922  0.00215  0.18479  1.0000
  C   C2257     1.0  0.82030  0.97501  0.16563  1.0000
  C   C2258     1.0  0.87655  0.83286  0.01886  1.0000
  C   C2259     1.0  0.52907  0.72793  0.13431  1.0000
  H   H1802     1.0  0.86829  0.95481  0.13781  1.0000
  H   H1803     1.0  0.89317  0.92166  0.13131  1.0000
  H   H1804     1.0  0.92116  0.90950  0.15958  1.0000
  H   H1805     1.0  0.92434  0.93045  0.19475  1.0000
  H   H1806     1.0  0.89976  0.96348  0.20171  1.0000
  C   C2260     1.0  0.69297  0.83412  0.03895  1.0000
  H   H1807     1.0  0.51784  0.69536  0.07636  1.0000
  C   C2261     1.0  0.73462  0.75173  0.01669  1.0000
  H   H1808     1.0  0.62367  0.71274  0.18786  1.0000
  C   C2262     1.0  0.89250  0.69962  0.22182  1.0000
  C   C2263     1.0  0.70631  0.56211  0.05986  1.0000
  H   H1809     1.0  0.98988  0.82914  0.06701  1.0000
  C   C2264     1.0  0.97093  0.58601  0.24721  1.0000
  C   C2265     1.0  0.71609  0.61078  0.13770  1.0000
  C   C2266     1.0  0.69548  0.60039  0.13529  1.0000
  C   C2267     1.0  0.69340  0.58353  0.11960  1.0000
  H   H1810     1.0  0.81168  0.83216  0.02226  1.0000
  C   C2268     1.0  0.85037  0.76919  0.22468  1.0000
  H   H1811     1.0  0.52848  0.72073  0.17000  1.0000
  H   H1812     1.0  0.71768  0.62362  0.15009  1.0000
  H   H1813     1.0  0.68115  0.60522  0.14579  1.0000
  H   H1814     1.0  0.67721  0.57596  0.11772  1.0000
  H   H1815     1.0  0.71438  0.60749  0.02474  1.0000
  C   C2269     1.0  0.99453  0.82248  0.05077  1.0000
  H   H1816     1.0  0.85916  0.76619  0.24029  1.0000
  C   C2270     1.0  0.92319  0.80346  0.15313  1.0000
  C   C2271     1.0  0.92147  0.78963  0.13473  1.0000
  C   C2272     1.0  0.91146  0.76873  0.13743  1.0000
  C   C2273     1.0  0.90308  0.76174  0.15852  1.0000
  C   C2274     1.0  0.90464  0.77565  0.17712  1.0000
  C   C2275     1.0  0.91488  0.79655  0.17426  1.0000
  C   C2276     1.0  0.98763  0.59762  0.25796  1.0000
  C   C2277     1.0  0.86238  0.77016  0.20414  1.0000
  C   C2278     1.0  0.83361  0.96580  0.20305  1.0000
  C   C2279     1.0  0.85058  0.77407  0.18415  1.0000
  C   C2280     1.0  0.82710  0.77674  0.18472  1.0000
  C   C2281     1.0  0.81526  0.77557  0.20522  1.0000
  H   H1817     1.0  0.57465  0.66683  0.19764  1.0000
  P   P74       1.0  0.71026  0.55265  0.08866  1.0000
  H   H1818     1.0  0.93128  0.81950  0.15110  1.0000
  H   H1819     1.0  0.92799  0.79511  0.11839  1.0000
  H   H1820     1.0  0.91024  0.75799  0.12313  1.0000
  S   S306      1.0  0.53184  0.68537  0.21123  1.0000
  H   H1821     1.0  0.91696  0.80750  0.18820  1.0000
  H   H1822     1.0  0.68068  0.84348  0.04889  1.0000
  H   H1823     1.0  0.81785  0.66872  0.24961  1.0000
  H   H1824     1.0  0.85935  0.77515  0.16809  1.0000
  H   H1825     1.0  0.81809  0.77973  0.16923  1.0000
  H   H1826     1.0  0.79707  0.77759  0.20560  1.0000
  P   P75       1.0  0.89269  0.76661  0.20393  1.0000
  H   H1827     1.0  0.74321  0.75742  0.03128  1.0000
  C   C2282     1.0  0.72034  0.55307  0.24358  1.0000
  H   H1828     1.0  0.51528  0.80254  0.25025  1.0000
  C   C2283     1.0  0.74673  0.52692  0.07189  1.0000
  C   C2284     1.0  0.71209  0.57648  0.10667  1.0000
  H   H1829     1.0  0.66229  0.55402  0.07798  1.0000
  C   C2285     1.0  0.71351  0.82722  0.04828  1.0000
  C   C2286     1.0  0.92989  0.70808  0.20776  1.0000
  H   H1830     1.0  0.54222  0.52869  0.12776  1.0000
  C   C2287     1.0  0.55502  0.70494  0.11224  1.0000
  H   H1831     1.0  0.88131  0.79724  0.01500  1.0000
  C   C2288     1.0  0.62864  0.62421  0.23087  1.0000
  H   H1832     1.0  0.99640  0.61112  0.24920  1.0000
  C   C2289     1.0  0.86296  0.00477  0.14967  1.0000
  C   C2290     1.0  0.55219  0.69911  0.15257  1.0000
  H   H1833     1.0  0.81777  0.77087  0.24110  1.0000
  C   C2291     1.0  0.00913  0.91695  0.06397  1.0000
  C   C2292     1.0  0.94313  0.77958  0.01511  1.0000
  C   C2293     1.0  0.74658  0.53345  0.11189  1.0000
  H   H1834     1.0  0.59729  0.60771  0.23778  1.0000
  H   H1835     1.0  0.51835  0.52948  0.21291  1.0000
  H   H1836     1.0  0.87559  0.86785  0.02737  1.0000
  C   C2294     1.0  0.88600  0.81172  0.02428  1.0000
  H   H1837     1.0  0.99890  0.76681  0.25763  1.0000
  H   H1838     1.0  0.53672  0.64158  0.01479  1.0000
  C   C2295     1.0  0.72520  0.73040  0.01736  1.0000
  H   H1839     1.0  0.72086  0.53535  0.24803  1.0000
  H   H1840     1.0  0.84684  0.96540  0.21537  1.0000
  C   C2296     1.0  0.69655  0.55390  0.02147  1.0000
  H   H1841     1.0  0.96670  0.59047  0.23002  1.0000
  H   H1842     1.0  0.01233  0.99171  0.08753  1.0000
  C   C2297     1.0  0.51939  0.83724  0.25871  1.0000
  H   H1843     1.0  0.81834  0.76039  0.01908  1.0000
  C   C2298     1.0  0.80800  0.77562  0.01789  1.0000
  H   H1844     1.0  0.01131  0.82396  0.21244  1.0000
  C   C2299     1.0  0.66340  0.52678  0.25569  1.0000
  C   C2300     1.0  0.65913  0.61450  0.25611  1.0000
  C   C2301     1.0  0.52939  0.51607  0.12727  1.0000
  H   H1845     1.0  0.70630  0.51440  0.12117  1.0000
  C   C2302     1.0  0.68815  0.82867  0.01689  1.0000
  C   C2303     1.0  0.70245  0.57557  0.01450  1.0000
  C   C2304     1.0  0.76691  0.51447  0.07393  1.0000
  C   C2305     1.0  0.62253  0.59797  0.26199  1.0000
  C   C2306     1.0  0.52214  0.81403  0.26206  1.0000
  H   H1846     1.0  0.60791  0.88502  0.26168  1.0000
  C   C2307     1.0  0.65597  0.54779  0.26322  1.0000
  S   S307      1.0  0.53321  0.85106  0.42910  1.0000
  Fe  Fe154     1.0  0.65865  0.89612  0.43186  1.0000
  S   S308      1.0  0.65178  0.92893  0.44824  1.0000
  S   S309      1.0  0.63277  0.88359  0.40753  1.0000
  Fe  Fe155     1.0  0.70782  0.89422  0.44779  1.0000
  S   S310      1.0  0.70374  0.92739  0.46556  1.0000
  S   S311      1.0  0.74369  0.87896  0.44458  1.0000
  Fe  Fe156     1.0  0.67048  0.91409  0.47776  1.0000
  Fe  Fe157     1.0  0.68550  0.94000  0.43481  1.0000
  S   S312      1.0  0.68454  0.97572  0.41931  1.0000
  S   S313      1.0  0.67546  0.88000  0.46216  1.0000
  S   S314      1.0  0.69127  0.90789  0.41629  1.0000
  Fe  Fe158     1.0  0.79668  0.55189  0.34578  1.0000
  S   S315      1.0  0.76576  0.57234  0.33607  1.0000
  H   H1847     1.0  0.75053  0.97794  0.35012  1.0000
  Fe  Fe159     1.0  0.82687  0.57914  0.31387  1.0000
  S   S316      1.0  0.79827  0.60112  0.30101  1.0000
  S   S317      1.0  0.86401  0.58136  0.30434  1.0000
  Fe  Fe160     1.0  0.78795  0.60233  0.33763  1.0000
  S   S318      1.0  0.77646  0.63573  0.35198  1.0000
  Fe  Fe161     1.0  0.77816  0.56947  0.30026  1.0000
  C   C2308     1.0  0.92214  0.54708  0.35800  1.0000
  S   S319      1.0  0.81764  0.58222  0.35041  1.0000
  S   S320      1.0  0.80796  0.54715  0.31005  1.0000
  Fe  Fe162     1.0  0.86195  0.74346  0.46498  1.0000
  S   S321      1.0  0.85015  0.77372  0.44395  1.0000
  Fe  Fe163     1.0  0.83427  0.71128  0.43794  1.0000
  S   S322      1.0  0.82021  0.73867  0.41550  1.0000
  S   S323      1.0  0.82955  0.67383  0.43423  1.0000
  Fe  Fe164     1.0  0.85555  0.75133  0.41435  1.0000
  S   S324      1.0  0.86831  0.76145  0.37962  1.0000
  Fe  Fe165     1.0  0.81554  0.75912  0.44662  1.0000
  S   S325      1.0  0.78135  0.77705  0.45336  1.0000
  S   S326      1.0  0.87001  0.72265  0.43479  1.0000
  S   S327      1.0  0.82700  0.73021  0.46966  1.0000
  Fe  Fe166     1.0  0.96501  0.71489  0.30713  1.0000
  S   S328      1.0  0.94162  0.72446  0.27910  1.0000
  S   S329      1.0  0.96416  0.72957  0.34174  1.0000
  Fe  Fe167     1.0  0.98755  0.67665  0.28201  1.0000
  H   H1848     1.0  0.74464  0.75612  0.35978  1.0000
  H   H1849     1.0  0.76960  0.64891  0.30059  1.0000
  C   C2309     1.0  0.56360  0.93341  0.41626  1.0000
  S   S330      1.0  0.99595  0.71298  0.28452  1.0000
  S   S331      1.0  0.95839  0.67804  0.30658  1.0000
  C   C2310     1.0  0.89466  0.75122  0.36962  1.0000
  C   C2311     1.0  0.91183  0.74434  0.38424  1.0000
  C   C2312     1.0  0.93316  0.73780  0.37557  1.0000
  C   C2313     1.0  0.93718  0.73739  0.35227  1.0000
  C   C2314     1.0  0.91980  0.74371  0.33771  1.0000
  C   C2315     1.0  0.89874  0.75086  0.34637  1.0000
  H   H1850     1.0  0.90888  0.74477  0.40221  1.0000
  H   H1851     1.0  0.94654  0.73303  0.38694  1.0000
  H   H1852     1.0  0.92271  0.74364  0.31978  1.0000
  H   H1853     1.0  0.88552  0.75620  0.33504  1.0000
  C   C2316     1.0  0.79118  0.64632  0.37488  1.0000
  C   C2317     1.0  0.78857  0.66906  0.38032  1.0000
  C   C2318     1.0  0.80030  0.67779  0.39838  1.0000
  C   C2319     1.0  0.81447  0.66373  0.41134  1.0000
  C   C2320     1.0  0.81685  0.64097  0.40603  1.0000
  C   C2321     1.0  0.80534  0.63235  0.38783  1.0000
  H   H1854     1.0  0.77754  0.68000  0.37048  1.0000
  H   H1855     1.0  0.79818  0.69529  0.40245  1.0000
  H   H1856     1.0  0.82794  0.63007  0.41576  1.0000
  H   H1857     1.0  0.80730  0.61488  0.38381  1.0000
  C   C2322     1.0  0.87430  0.60807  0.29659  1.0000
  C   C2323     1.0  0.89702  0.61024  0.29001  1.0000
  C   C2324     1.0  0.90548  0.63138  0.28345  1.0000
  C   C2325     1.0  0.89116  0.65039  0.28337  1.0000
  C   C2326     1.0  0.53815  0.84340  0.29390  1.0000
  C   C2327     1.0  0.86018  0.62718  0.29692  1.0000
  H   H1858     1.0  0.90800  0.59550  0.28963  1.0000
  H   H1859     1.0  0.79762  0.81462  0.50565  1.0000
  H   H1860     1.0  0.84273  0.62577  0.30215  1.0000
  C   C2328     1.0  0.75354  0.85034  0.44640  1.0000
  C   C2329     1.0  0.77598  0.84504  0.44000  1.0000
  C   C2330     1.0  0.78469  0.82274  0.44162  1.0000
  C   C2331     1.0  0.77118  0.80544  0.45008  1.0000
  C   C2332     1.0  0.74873  0.81073  0.45645  1.0000
  C   C2333     1.0  0.73992  0.83296  0.45453  1.0000
  H   H1861     1.0  0.78670  0.85827  0.43363  1.0000
  H   H1862     1.0  0.80190  0.81896  0.43644  1.0000
  H   H1863     1.0  0.73805  0.79752  0.46294  1.0000
  H   H1864     1.0  0.72267  0.83667  0.45957  1.0000
  H   H1865     1.0  0.52944  0.87871  0.46591  1.0000
  C   C2334     1.0  0.61421  0.89581  0.29518  1.0000
  C   C2335     1.0  0.73602  0.00694  0.33348  1.0000
  C   C2336     1.0  0.52517  0.88354  0.31963  1.0000
  H   H1866     1.0  0.85525  0.82917  0.46393  1.0000
  C   C2337     1.0  0.56040  0.86164  0.42342  1.0000
  C   C2338     1.0  0.57767  0.85660  0.43864  1.0000
  C   C2339     1.0  0.59969  0.86417  0.43457  1.0000
  C   C2340     1.0  0.60485  0.87595  0.41460  1.0000
  C   C2341     1.0  0.58770  0.88047  0.39902  1.0000
  C   C2342     1.0  0.56543  0.87385  0.40365  1.0000
  H   H1867     1.0  0.57404  0.84649  0.45350  1.0000
  H   H1868     1.0  0.61283  0.86016  0.44647  1.0000
  H   H1869     1.0  0.59162  0.88931  0.38342  1.0000
  H   H1870     1.0  0.55236  0.87752  0.39161  1.0000
  C   C2343     1.0  0.70614  0.99240  0.40685  1.0000
  C   C2344     1.0  0.67589  0.61174  0.32319  1.0000
  C   C2345     1.0  0.83966  0.60881  0.45798  1.0000
  C   C2346     1.0  0.86899  0.58359  0.40780  1.0000
  C   C2347     1.0  0.74900  0.93707  0.49721  1.0000
  C   C2348     1.0  0.72881  0.98931  0.41237  1.0000
  C   C2349     1.0  0.79069  0.75814  0.50976  1.0000
  C   C2350     1.0  0.99709  0.59387  0.33482  1.0000
  H   H1871     1.0  0.94370  0.52634  0.37904  1.0000
  H   H1872     1.0  0.73369  0.97592  0.42398  1.0000
  H   H1873     1.0  0.97992  0.57761  0.38695  1.0000
  Fe  Fe168     1.0  0.93692  0.68719  0.27710  1.0000
  C   C2351     1.0  0.53330  0.82823  0.37396  1.0000
  C   C2352     1.0  0.92121  0.56288  0.34025  1.0000
  C   C2353     1.0  0.79260  0.65720  0.27333  1.0000
  S   S332      1.0  0.65223  0.91929  0.51133  1.0000
  H   H1874     1.0  0.68601  0.96947  0.31944  1.0000
  C   C2354     1.0  0.69443  0.62162  0.33287  1.0000
  C   C2355     1.0  0.77609  0.73873  0.36641  1.0000
  C   C2356     1.0  0.75897  0.74709  0.35254  1.0000
  C   C2357     1.0  0.76035  0.74376  0.32940  1.0000
  C   C2358     1.0  0.77890  0.73212  0.32014  1.0000
  C   C2359     1.0  0.79619  0.72363  0.33398  1.0000
  C   C2360     1.0  0.79461  0.72704  0.35722  1.0000
  P   P76       1.0  0.82015  0.70896  0.32145  1.0000
  C   C2361     1.0  0.80917  0.68934  0.30204  1.0000
  C   C2362     1.0  0.83923  0.72843  0.30798  1.0000
  C   C2363     1.0  0.68865  0.52298  0.28706  1.0000
  H   H1875     1.0  0.61143  0.58652  0.27093  1.0000
  H   H1876     1.0  0.70177  0.51368  0.29597  1.0000
  C   C2364     1.0  0.81022  0.67091  0.26609  1.0000
  C   C2365     1.0  0.86016  0.72055  0.29967  1.0000
  C   C2366     1.0  0.78301  0.65976  0.29472  1.0000
  C   C2367     1.0  0.86993  0.75839  0.28816  1.0000
  H   H1877     1.0  0.97079  0.77164  0.28834  1.0000
  H   H1878     1.0  0.60966  0.90456  0.49393  1.0000
  C   C2368     1.0  0.79120  0.67579  0.30899  1.0000
  C   C2369     1.0  0.83619  0.69407  0.34278  1.0000
  C   C2370     1.0  0.84808  0.70633  0.35828  1.0000
  C   C2371     1.0  0.85874  0.69534  0.37627  1.0000
  C   C2372     1.0  0.85854  0.67195  0.37831  1.0000
  C   C2373     1.0  0.84801  0.65952  0.36210  1.0000
  C   C2374     1.0  0.83670  0.67050  0.34447  1.0000
  H   H1879     1.0  0.77506  0.74128  0.38438  1.0000
  H   H1880     1.0  0.54950  0.81293  0.31155  1.0000
  C   C2375     1.0  0.74510  0.00411  0.40346  1.0000
  H   H1881     1.0  0.77976  0.72965  0.30219  1.0000
  H   H1882     1.0  0.80739  0.72062  0.36848  1.0000
  H   H1883     1.0  0.56247  0.95544  0.48385  1.0000
  C   C2376     1.0  0.81840  0.68706  0.28031  1.0000
  H   H1884     1.0  0.81842  0.75822  0.31380  1.0000
  H   H1885     1.0  0.58926  0.61044  0.33652  1.0000
  H   H1886     1.0  0.86485  0.70287  0.30112  1.0000
  H   H1887     1.0  0.59948  0.92743  0.41826  1.0000
  H   H1888     1.0  0.51541  0.80609  0.45823  1.0000
  C   C2377     1.0  0.57355  0.86088  0.49650  1.0000
  C   C2378     1.0  0.73571  0.89359  0.28747  1.0000
  H   H1889     1.0  0.78392  0.67718  0.32574  1.0000
  H   H1890     1.0  0.84829  0.72451  0.35701  1.0000
  H   H1891     1.0  0.86700  0.70505  0.38869  1.0000
  H   H1892     1.0  0.86601  0.66357  0.39275  1.0000
  H   H1893     1.0  0.84757  0.64140  0.36372  1.0000
  H   H1894     1.0  0.82795  0.66046  0.33271  1.0000
  H   H1895     1.0  0.73056  0.62510  0.33182  1.0000
  C   C2379     1.0  0.56173  0.91652  0.46077  1.0000
  C   C2380     1.0  0.74034  0.97673  0.49018  1.0000
  C   C2381     1.0  0.57384  0.82757  0.36918  1.0000
  H   H1896     1.0  0.64305  0.54681  0.32349  1.0000
  C   C2382     1.0  0.59904  0.57650  0.34608  1.0000
  H   H1897     1.0  0.93164  0.77711  0.27564  1.0000
  H   H1898     1.0  0.58018  0.88640  0.34076  1.0000
  H   H1899     1.0  0.77299  0.95500  0.44786  1.0000
  C   C2383     1.0  0.82664  0.54142  0.44291  1.0000
  H   H1900     1.0  0.95627  0.54959  0.28956  1.0000
  C   C2384     1.0  0.57334  0.87548  0.30715  1.0000
  C   C2385     1.0  0.60632  0.89616  0.31742  1.0000
  H   H1901     1.0  0.84548  0.78432  0.29635  1.0000
  H   H1902     1.0  0.85974  0.64966  0.49056  1.0000
  H   H1903     1.0  0.76891  0.92043  0.47169  1.0000
  C   C2386     1.0  0.99552  0.77203  0.31423  1.0000
  P   P77       1.0  0.72503  0.00205  0.49799  1.0000
  H   H1904     1.0  0.85819  0.55424  0.39078  1.0000
  H   H1905     1.0  0.00993  0.60907  0.47585  1.0000
  C   C2387     1.0  0.72938  0.91590  0.28251  1.0000
  H   H1906     1.0  0.61959  0.61456  0.30795  1.0000
  H   H1907     1.0  0.81493  0.83559  0.47400  1.0000
  C   C2388     1.0  0.80557  0.53233  0.43926  1.0000
  C   C2389     1.0  0.77950  0.73925  0.50275  1.0000
  C   C2390     1.0  0.98117  0.57538  0.29213  1.0000
  H   H1908     1.0  0.87028  0.70571  0.51158  1.0000
  C   C2391     1.0  0.81709  0.57297  0.41811  1.0000
  H   H1909     1.0  0.58573  0.57478  0.35867  1.0000
  H   H1910     1.0  0.61276  0.54310  0.35205  1.0000
  H   H1911     1.0  0.92291  0.63290  0.27814  1.0000
  C   C2392     1.0  0.83978  0.62797  0.47104  1.0000
  C   C2393     1.0  0.73671  0.88593  0.30981  1.0000
  C   C2394     1.0  0.73140  0.90056  0.32720  1.0000
  C   C2395     1.0  0.72510  0.92305  0.32238  1.0000
  C   C2396     1.0  0.72405  0.93060  0.29987  1.0000
  P   P78       1.0  0.71801  0.94161  0.34511  1.0000
  C   C2397     1.0  0.73827  0.93668  0.36708  1.0000
  C   C2398     1.0  0.71844  0.97058  0.33543  1.0000
  H   H1912     1.0  0.74160  0.86863  0.31373  1.0000
  H   H1913     1.0  0.87843  0.80178  0.48626  1.0000
  C   C2399     1.0  0.99170  0.65547  0.41166  1.0000
  H   H1914     1.0  0.73612  0.60094  0.29873  1.0000
  C   C2400     1.0  0.85969  0.63453  0.48082  1.0000
  C   C2401     1.0  0.73161  0.93803  0.38969  1.0000
  C   C2402     1.0  0.74657  0.93171  0.40670  1.0000
  C   C2403     1.0  0.76855  0.92469  0.40127  1.0000
  C   C2404     1.0  0.77572  0.92440  0.37879  1.0000
  C   C2405     1.0  0.76067  0.93041  0.36172  1.0000
  C   C2406     1.0  0.68989  0.93620  0.35578  1.0000
  C   C2407     1.0  0.68016  0.91514  0.35353  1.0000
  C   C2408     1.0  0.65849  0.91126  0.36216  1.0000
  C   C2409     1.0  0.64643  0.92830  0.37315  1.0000
  C   C2410     1.0  0.65604  0.94922  0.37556  1.0000
  C   C2411     1.0  0.67763  0.95318  0.36689  1.0000
  C   C2412     1.0  0.83401  0.75155  0.30671  1.0000
  H   H1915     1.0  0.77436  0.53602  0.42143  1.0000
  C   C2413     1.0  0.58598  0.88608  0.32339  1.0000
  H   H1916     1.0  0.73218  0.89434  0.34447  1.0000
  H   H1917     1.0  0.71930  0.94781  0.29562  1.0000
  S   S333      1.0  0.90053  0.67714  0.27444  1.0000
  H   H1918     1.0  0.89515  0.59338  0.46179  1.0000
  C   C2414     1.0  0.53334  0.80548  0.28095  1.0000
  C   C2415     1.0  0.55465  0.82222  0.38192  1.0000
  C   C2416     1.0  0.89292  0.52750  0.47673  1.0000
  H   H1919     1.0  0.71474  0.94361  0.39426  1.0000
  H   H1920     1.0  0.74094  0.93180  0.42412  1.0000
  H   H1921     1.0  0.77990  0.91929  0.41450  1.0000
  H   H1922     1.0  0.79284  0.91911  0.37460  1.0000
  H   H1923     1.0  0.76640  0.92979  0.34439  1.0000
  H   H1924     1.0  0.68928  0.90151  0.34560  1.0000
  H   H1925     1.0  0.65131  0.89476  0.36117  1.0000
  H   H1926     1.0  0.62995  0.92501  0.38046  1.0000
  H   H1927     1.0  0.89499  0.62711  0.48513  1.0000
  H   H1928     1.0  0.68497  0.96937  0.36940  1.0000
  C   C2417     1.0  0.90789  0.68543  0.35477  1.0000
  C   C2418     1.0  0.90622  0.66969  0.33803  1.0000
  C   C2419     1.0  0.91684  0.64861  0.34054  1.0000
  C   C2420     1.0  0.92907  0.64324  0.35985  1.0000
  C   C2421     1.0  0.93006  0.65873  0.37717  1.0000
  C   C2422     1.0  0.91949  0.67994  0.37441  1.0000
  P   P79       1.0  0.94605  0.65236  0.40211  1.0000
  C   C2423     1.0  0.93111  0.66449  0.42580  1.0000
  C   C2424     1.0  0.94858  0.62216  0.40606  1.0000
  C   C2425     1.0  0.93370  0.61036  0.42041  1.0000
  C   C2426     1.0  0.93537  0.58692  0.42249  1.0000
  C   C2427     1.0  0.95203  0.57511  0.41048  1.0000
  C   C2428     1.0  0.96701  0.58672  0.39632  1.0000
  C   C2429     1.0  0.96524  0.61010  0.39405  1.0000
  C   C2430     1.0  0.94256  0.67629  0.44204  1.0000
  C   C2431     1.0  0.93063  0.68588  0.46004  1.0000
  C   C2432     1.0  0.90730  0.68369  0.46202  1.0000
  C   C2433     1.0  0.89583  0.67192  0.44597  1.0000
  C   C2434     1.0  0.90763  0.66255  0.42785  1.0000
  C   C2435     1.0  0.97379  0.66398  0.39862  1.0000
  C   C2436     1.0  0.97777  0.68151  0.38289  1.0000
  H   H1929     1.0  0.52089  0.80076  0.41761  1.0000
  C   C2437     1.0  0.55032  0.84629  0.34104  1.0000
  H   H1930     1.0  0.57212  0.86708  0.27201  1.0000
  H   H1931     1.0  0.62999  0.90362  0.29059  1.0000
  H   H1932     1.0  0.90004  0.70193  0.35254  1.0000
  H   H1933     1.0  0.89689  0.67402  0.32303  1.0000
  H   H1934     1.0  0.91580  0.63656  0.32736  1.0000
  H   H1935     1.0  0.93743  0.62696  0.36114  1.0000
  H   H1936     1.0  0.92047  0.69242  0.38724  1.0000
  H   H1937     1.0  0.92072  0.61907  0.42994  1.0000
  H   H1938     1.0  0.92369  0.57785  0.43335  1.0000
  H   H1939     1.0  0.95330  0.55696  0.41213  1.0000
  S   S334      1.0  0.79290  0.52263  0.37091  1.0000
  H   H1940     1.0  0.97670  0.61878  0.38267  1.0000
  H   H1941     1.0  0.96056  0.67848  0.44072  1.0000
  H   H1942     1.0  0.93935  0.69542  0.47233  1.0000
  H   H1943     1.0  0.89805  0.69161  0.47568  1.0000
  H   H1944     1.0  0.87764  0.67064  0.44726  1.0000
  H   H1945     1.0  0.89838  0.65396  0.41534  1.0000
  H   H1946     1.0  0.96441  0.68858  0.37259  1.0000
  C   C2438     1.0  0.53035  0.90473  0.32777  1.0000
  C   C2439     1.0  0.99931  0.69025  0.38017  1.0000
  C   C2440     1.0  0.54136  0.82006  0.29682  1.0000
  H   H1947     1.0  0.86767  0.56903  0.35286  1.0000
  C   C2441     1.0  0.87955  0.62185  0.47765  1.0000
  P   P80       1.0  0.86036  0.57303  0.43530  1.0000
  C   C2442     1.0  0.53114  0.84000  0.35349  1.0000
  C   C2443     1.0  0.99290  0.59213  0.28024  1.0000
  C   C2444     1.0  0.54196  0.92399  0.44991  1.0000
  C   C2445     1.0  0.89062  0.53657  0.43050  1.0000
  C   C2446     1.0  0.75312  0.97586  0.47009  1.0000
  H   H1948     1.0  0.90510  0.56932  0.33426  1.0000
  H   H1949     1.0  0.55636  0.81386  0.39820  1.0000
  C   C2447     1.0  0.85958  0.59610  0.45447  1.0000
  C   C2448     1.0  0.61226  0.84786  0.50086  1.0000
  C   C2449     1.0  0.86096  0.80511  0.49097  1.0000
  C   C2450     1.0  0.88300  0.61353  0.38318  1.0000
  C   C2451     1.0  0.70014  0.97975  0.32333  1.0000
  H   H1950     1.0  0.97894  0.53893  0.36042  1.0000
  S   S335      1.0  0.75428  0.55579  0.27416  1.0000
  C   C2452     1.0  0.67900  0.59786  0.30460  1.0000
  H   H1951     1.0  0.69360  0.97939  0.46925  1.0000
  H   H1952     1.0  0.87955  0.61608  0.41882  1.0000
  C   C2453     1.0  0.87958  0.60045  0.36449  1.0000
  H   H1953     1.0  0.74701  0.75016  0.31868  1.0000
  H   H1954     1.0  0.59803  0.91267  0.45695  1.0000
  H   H1955     1.0  0.98690  0.51955  0.32418  1.0000
  H   H1956     1.0  0.98856  0.65070  0.33505  1.0000
  H   H1957     1.0  0.55597  0.85682  0.49558  1.0000
  H   H1958     1.0  0.52573  0.92351  0.45844  1.0000
  C   C2454     1.0  0.98715  0.61506  0.33001  1.0000
  C   C2455     1.0  0.79608  0.56382  0.41444  1.0000
  P   P81       1.0  0.54711  0.86232  0.31508  1.0000
  H   H1959     1.0  0.61599  0.90418  0.33010  1.0000
  H   H1960     1.0  0.82452  0.63819  0.47297  1.0000
  S   S336      1.0  0.01268  0.64716  0.28148  1.0000
  C   C2456     1.0  0.98857  0.77114  0.29201  1.0000
  C   C2457     1.0  0.01327  0.66422  0.40884  1.0000
  C   C2458     1.0  0.68111  0.54388  0.29473  1.0000
  C   C2459     1.0  0.58248  0.91818  0.44921  1.0000
  C   C2460     1.0  0.68489  0.98328  0.48488  1.0000
  C   C2461     1.0  0.87762  0.60524  0.40476  1.0000
  C   C2462     1.0  0.00675  0.61851  0.51044  1.0000
  C   C2463     1.0  0.71614  0.61774  0.32410  1.0000
  H   H1961     1.0  0.58681  0.84290  0.33894  1.0000
  C   C2464     1.0  0.64486  0.60044  0.26883  1.0000
  C   C2465     1.0  0.52125  0.88348  0.48150  1.0000
  C   C2466     1.0  0.58141  0.87519  0.28485  1.0000
  C   C2467     1.0  0.96199  0.56090  0.33622  1.0000
  C   C2468     1.0  0.94301  0.53860  0.36528  1.0000
  C   C2469     1.0  0.73838  0.95717  0.50366  1.0000
  C   C2470     1.0  0.79033  0.54348  0.42498  1.0000
  C   C2471     1.0  0.84789  0.82043  0.47836  1.0000
  C   C2472     1.0  0.63143  0.56082  0.32608  1.0000
  H   H1962     1.0  0.69206  0.63213  0.34734  1.0000
  H   H1963     1.0  0.74693  0.92190  0.50743  1.0000
  C   C2473     1.0  0.58933  0.84332  0.49985  1.0000
  C   C2474     1.0  0.83258  0.56185  0.43232  1.0000
  H   H1964     1.0  0.88908  0.63040  0.38083  1.0000
  H   H1965     1.0  0.88301  0.60714  0.34767  1.0000
  C   C2475     1.0  0.58064  0.88316  0.49399  1.0000
  H   H1966     1.0  0.93988  0.58260  0.31620  1.0000
  C   C2476     1.0  0.53242  0.89689  0.49658  1.0000
  P   P82       1.0  0.65557  0.58392  0.29237  1.0000
  C   C2477     1.0  0.61820  0.59882  0.31738  1.0000
  H   H1967     1.0  0.68832  0.55028  0.30979  1.0000
  C   C2478     1.0  0.57171  0.83929  0.34865  1.0000
  C   C2479     1.0  0.00928  0.54769  0.32041  1.0000
  H   H1968     1.0  0.83832  0.53211  0.45356  1.0000
  C   C2480     1.0  0.87908  0.55079  0.44551  1.0000
  C   C2481     1.0  0.60177  0.88533  0.27892  1.0000
  C   C2482     1.0  0.87097  0.57895  0.36740  1.0000
  H   H1969     1.0  0.90669  0.54134  0.36599  1.0000
  H   H1970     1.0  0.00597  0.60113  0.28826  1.0000
  H   H1971     1.0  0.70350  0.58387  0.28144  1.0000
  P   P83       1.0  0.98729  0.56921  0.32125  1.0000
  C   C2483     1.0  0.82516  0.82394  0.48395  1.0000
  H   H1972     1.0  0.77070  0.73999  0.48693  1.0000
  H   H1973     1.0  0.82409  0.60445  0.45022  1.0000
  H   H1974     1.0  0.82145  0.58848  0.40948  1.0000
  C   C2484     1.0  0.60371  0.88753  0.49532  1.0000
  S   S337      1.0  0.88842  0.74758  0.49215  1.0000
  C   C2485     1.0  0.86857  0.64819  0.29019  1.0000
  H   H1975     1.0  0.75472  0.99049  0.45906  1.0000
  H   H1976     1.0  0.54745  0.90899  0.33124  1.0000
  C   C2486     1.0  0.60103  0.59658  0.33362  1.0000
  C   C2487     1.0  0.86565  0.57058  0.38891  1.0000
  C   C2488     1.0  0.71930  0.60419  0.30547  1.0000
  H   H1977     1.0  0.65932  0.61485  0.33039  1.0000
  H   H1978     1.0  0.87094  0.55630  0.48059  1.0000
  H   H1979     1.0  0.84142  0.52748  0.36579  1.0000
  C   C2489     1.0  0.84934  0.76645  0.29682  1.0000
  H   H1980     1.0  0.64710  0.96220  0.38482  1.0000
  H   H1981     1.0  0.78999  0.77332  0.49941  1.0000
  C   C2490     1.0  0.94104  0.57012  0.32973  1.0000
  H   H1982     1.0  0.88935  0.53913  0.41257  1.0000
  C   C2491     1.0  0.54288  0.93207  0.42765  1.0000
  H   H1983     1.0  0.83220  0.69725  0.27439  1.0000
  H   H1984     1.0  0.78449  0.57215  0.40288  1.0000
  H   H1985     1.0  0.85751  0.66282  0.29039  1.0000
  C   C2492     1.0  0.70081  0.59443  0.29573  1.0000
  C   C2493     1.0  0.96291  0.54560  0.35455  1.0000
  C   C2494     1.0  0.66484  0.55658  0.28275  1.0000
  C   C2495     1.0  0.76358  0.95568  0.46360  1.0000
  H   H1986     1.0  0.97360  0.61693  0.31811  1.0000
  C   C2496     1.0  0.88036  0.54611  0.46871  1.0000
  C   C2497     1.0  0.87953  0.60272  0.46449  1.0000
  C   C2498     1.0  0.76141  0.93625  0.47708  1.0000
  C   C2499     1.0  0.00453  0.76860  0.27465  1.0000
  C   C2500     1.0  0.63346  0.58090  0.31339  1.0000
  H   H1987     1.0  0.59039  0.82302  0.37547  1.0000
  C   C2501     1.0  0.61426  0.55865  0.34234  1.0000
  C   C2502     1.0  0.99547  0.63427  0.33966  1.0000
  C   C2503     1.0  0.96501  0.56316  0.28098  1.0000
  C   C2504     1.0  0.52750  0.85191  0.27449  1.0000
  H   H1988     1.0  0.98898  0.64205  0.42397  1.0000
  H   H1989     1.0  0.65439  0.96791  0.47487  1.0000
  C   C2505     1.0  0.00418  0.52482  0.32262  1.0000
  H   H1990     1.0  0.53510  0.78744  0.28363  1.0000
  P   P84       1.0  0.56058  0.90620  0.48968  1.0000
  H   H1991     1.0  0.62451  0.83428  0.50332  1.0000
  C   C2506     1.0  0.85138  0.79342  0.50928  1.0000
  H   H1992     1.0  0.58378  0.82616  0.50145  1.0000
  C   C2507     1.0  0.73641  0.98434  0.34045  1.0000
  C   C2508     1.0  0.87530  0.73543  0.28951  1.0000
  H   H1993     1.0  0.76252  0.00183  0.40821  1.0000
  H   H1994     1.0  0.00210  0.70374  0.36788  1.0000
  C   C2509     1.0  0.69589  0.99429  0.50193  1.0000
  H   H1995     1.0  0.88188  0.76999  0.28086  1.0000
  H   H1996     1.0  0.89136  0.72908  0.28308  1.0000
  H   H1997     1.0  0.63717  0.87359  0.49971  1.0000
  C   C2510     1.0  0.70007  0.01020  0.39198  1.0000
  H   H1998     1.0  0.56427  0.93940  0.39894  1.0000
  C   C2511     1.0  0.58339  0.92673  0.42713  1.0000
  C   C2512     1.0  0.61941  0.86997  0.49871  1.0000
  C   C2513     1.0  0.66268  0.97648  0.48807  1.0000
  H   H1999     1.0  0.52495  0.86984  0.27185  1.0000
  H   H2000     1.0  0.52748  0.93712  0.41914  1.0000
  C   C2514     1.0  0.90312  0.51797  0.43859  1.0000
  H   H2001     1.0  0.98307  0.77340  0.32773  1.0000
  C   C2515     1.0  0.81544  0.81206  0.50206  1.0000
  H   H2002     1.0  0.51717  0.93658  0.33936  1.0000
  C   C2516     1.0  0.83829  0.51449  0.37842  1.0000
  H   H2003     1.0  0.80131  0.51626  0.44692  1.0000
  H   H2004     1.0  0.51839  0.82437  0.38390  1.0000
  H   H2005     1.0  0.73987  0.88222  0.27401  1.0000
  H   H2006     1.0  0.92040  0.81736  0.27793  1.0000
  H   H2007     1.0  0.63485  0.97306  0.51143  1.0000
  H   H2008     1.0  0.68542  0.00958  0.30766  1.0000
  H   H2009     1.0  0.89328  0.52354  0.49459  1.0000
  C   C2517     1.0  0.65156  0.97965  0.50863  1.0000
  C   C2518     1.0  0.69973  0.00241  0.31660  1.0000
  C   C2519     1.0  0.01433  0.59207  0.35068  1.0000
  C   C2520     1.0  0.56855  0.92824  0.50803  1.0000
  C   C2521     1.0  0.56817  0.95080  0.50054  1.0000
  C   C2522     1.0  0.90419  0.51336  0.46166  1.0000
  H   H2010     1.0  0.77171  0.70472  0.51009  1.0000
  C   C2523     1.0  0.91531  0.80772  0.26378  1.0000
  H   H2011     1.0  0.68258  0.01281  0.38762  1.0000
  H   H2012     1.0  0.72864  0.92186  0.26519  1.0000
  H   H2013     1.0  0.99018  0.61149  0.51291  1.0000
  H   H2014     1.0  0.57575  0.98487  0.50841  1.0000
  C   C2524     1.0  0.01357  0.63245  0.35428  1.0000
  C   C2525     1.0  0.67979  0.51442  0.26755  1.0000
  S   S338      1.0  0.92603  0.52852  0.63237  1.0000
  H   H2015     1.0  0.56710  0.92359  0.76073  1.0000
  Fe  Fe169     1.0  0.97611  0.70283  0.63656  1.0000
  S   S339      1.0  0.98072  0.70163  0.59861  1.0000
  S   S340      1.0  0.98061  0.73701  0.65273  1.0000
  Fe  Fe170     1.0  0.96336  0.65329  0.64022  1.0000
  S   S341      1.0  0.96656  0.64907  0.60321  1.0000
  S   S342      1.0  0.95513  0.62460  0.66493  1.0000
  H   H2016     1.0  0.71579  0.86330  0.73591  1.0000
  Fe  Fe171     1.0  0.94848  0.68254  0.59918  1.0000
  S   S343      1.0  0.91834  0.68415  0.57549  1.0000
  S   S344      1.0  0.99642  0.67086  0.64293  1.0000
  S   S345      1.0  0.94280  0.68542  0.63659  1.0000
  H   H2017     1.0  0.63669  0.87600  0.75601  1.0000
  H   H2018     1.0  0.51879  0.68824  0.73446  1.0000
  Fe  Fe172     1.0  0.63351  0.95257  0.66676  1.0000
  S   S346      1.0  0.67165  0.94934  0.66543  1.0000
  S   S347      1.0  0.61254  0.92156  0.67525  1.0000
  Fe  Fe173     1.0  0.67124  0.98365  0.68048  1.0000
  S   S348      1.0  0.69418  0.99720  0.70772  1.0000
  Fe  Fe174     1.0  0.66930  0.96730  0.63165  1.0000
  S   S349      1.0  0.69095  0.95986  0.60050  1.0000
  S   S350      1.0  0.63302  0.98591  0.68370  1.0000
  S   S351      1.0  0.63168  0.96789  0.63190  1.0000
  H   H2019     1.0  0.87291  0.77137  0.64953  1.0000
  H   H2020     1.0  0.57583  0.96918  0.61293  1.0000
  H   H2021     1.0  0.58487  0.96016  0.65262  1.0000
  C   C2526     1.0  0.72454  0.99933  0.74238  1.0000
  C   C2527     1.0  0.67990  0.94884  0.57569  1.0000
  C   C2528     1.0  0.65719  0.94345  0.57421  1.0000
  C   C2529     1.0  0.64907  0.93439  0.55440  1.0000
  C   C2530     1.0  0.66347  0.93070  0.53580  1.0000
  C   C2531     1.0  0.68614  0.93622  0.53716  1.0000
  C   C2532     1.0  0.69431  0.94527  0.55702  1.0000
  H   H2022     1.0  0.64595  0.94593  0.58845  1.0000
  H   H2023     1.0  0.63159  0.92997  0.55354  1.0000
  H   H2024     1.0  0.69730  0.93325  0.52297  1.0000
  H   H2025     1.0  0.71191  0.94930  0.55806  1.0000
  C   C2533     1.0  0.71350  0.98516  0.72775  1.0000
  S   S352      1.0  0.67164  0.00152  0.64646  1.0000
  C   C2534     1.0  0.95795  0.56162  0.56866  1.0000
  H   H2026     1.0  0.52206  0.89423  0.67171  1.0000
  H   H2027     1.0  0.69930  0.91611  0.74941  1.0000
  C   C2535     1.0  0.91109  0.70151  0.55173  1.0000
  C   C2536     1.0  0.92309  0.72068  0.54545  1.0000
  C   C2537     1.0  0.58237  0.91323  0.76034  1.0000
  H   H2028     1.0  0.65107  0.99955  0.72784  1.0000
  H   H2029     1.0  0.52969  0.91294  0.52881  1.0000
  C   C2538     1.0  0.89204  0.69625  0.53929  1.0000
  H   H2030     1.0  0.93767  0.72504  0.55488  1.0000
  H   H2031     1.0  0.84123  0.53326  0.72034  1.0000
  C   C2539     1.0  0.82855  0.79689  0.51511  1.0000
  H   H2032     1.0  0.88801  0.57073  0.65371  1.0000
  C   C2540     1.0  0.98049  0.74643  0.68096  1.0000
  C   C2541     1.0  0.98071  0.76968  0.68476  1.0000
  C   C2542     1.0  0.98078  0.77800  0.70676  1.0000
  C   C2543     1.0  0.98072  0.76312  0.72534  1.0000
  C   C2544     1.0  0.98050  0.73988  0.72155  1.0000
  C   C2545     1.0  0.98047  0.73157  0.69955  1.0000
  C   C2546     1.0  0.79903  0.82364  0.55364  1.0000
  H   H2033     1.0  0.98096  0.79591  0.70932  1.0000
  H   H2034     1.0  0.82917  0.80170  0.58196  1.0000
  H   H2035     1.0  0.98071  0.71368  0.69695  1.0000
  C   C2547     1.0  0.54467  0.90992  0.71250  1.0000
  C   C2548     1.0  0.55408  0.93142  0.71179  1.0000
  C   C2549     1.0  0.57493  0.93529  0.70073  1.0000
  C   C2550     1.0  0.58649  0.91773  0.68999  1.0000
  C   C2551     1.0  0.57718  0.89621  0.69093  1.0000
  C   C2552     1.0  0.55645  0.89228  0.70215  1.0000
  H   H2036     1.0  0.54527  0.94512  0.72000  1.0000
  H   H2037     1.0  0.58217  0.95173  0.70067  1.0000
  H   H2038     1.0  0.58604  0.88245  0.68284  1.0000
  C   C2553     1.0  0.56867  0.99018  0.66514  1.0000
  C   C2554     1.0  0.93472  0.55483  0.64191  1.0000
  C   C2555     1.0  0.93603  0.57296  0.62642  1.0000
  C   C2556     1.0  0.94257  0.59427  0.63317  1.0000
  C   C2557     1.0  0.94767  0.59777  0.65561  1.0000
  C   C2558     1.0  0.94654  0.57958  0.67113  1.0000
  C   C2559     1.0  0.94026  0.55814  0.66430  1.0000
  H   H2039     1.0  0.93163  0.57060  0.60913  1.0000
  H   H2040     1.0  0.94320  0.60809  0.62107  1.0000
  H   H2041     1.0  0.95039  0.58212  0.68854  1.0000
  H   H2042     1.0  0.93927  0.54434  0.67642  1.0000
  C   C2560     1.0  0.92314  0.74016  0.62008  1.0000
  C   C2561     1.0  0.93793  0.75750  0.61491  1.0000
  C   C2562     1.0  0.94194  0.77373  0.63080  1.0000
  C   C2563     1.0  0.93140  0.77252  0.65199  1.0000
  C   C2564     1.0  0.91648  0.75518  0.65730  1.0000
  C   C2565     1.0  0.91230  0.73909  0.64112  1.0000
  P   P85       1.0  0.90264  0.75324  0.68457  1.0000
  C   C2566     1.0  0.91388  0.72973  0.70113  1.0000
  C   C2567     1.0  0.90627  0.77890  0.69957  1.0000
  C   C2568     1.0  0.92349  0.78021  0.71530  1.0000
  C   C2569     1.0  0.92660  0.80004  0.72676  1.0000
  C   C2570     1.0  0.91277  0.81887  0.72239  1.0000
  C   C2571     1.0  0.89578  0.81787  0.70655  1.0000
  C   C2572     1.0  0.89251  0.79797  0.69516  1.0000
  C   C2573     1.0  0.95200  0.58403  0.56377  1.0000
  H   H2043     1.0  0.59932  0.85904  0.75271  1.0000
  C   C2574     1.0  0.92801  0.71337  0.69127  1.0000
  H   H2044     1.0  0.58981  0.93514  0.56018  1.0000
  C   C2575     1.0  0.75520  0.00952  0.55879  1.0000
  C   C2576     1.0  0.88613  0.56643  0.67144  1.0000
  C   C2577     1.0  0.58355  0.93958  0.54361  1.0000
  C   C2578     1.0  0.87296  0.74996  0.67953  1.0000
  H   H2045     1.0  0.92043  0.72729  0.60790  1.0000
  H   H2046     1.0  0.94679  0.75796  0.59884  1.0000
  H   H2047     1.0  0.95409  0.78665  0.62707  1.0000
  H   H2048     1.0  0.93547  0.78476  0.66430  1.0000
  H   H2049     1.0  0.90111  0.72535  0.64496  1.0000
  H   H2050     1.0  0.93482  0.76605  0.71855  1.0000
  C   C2579     1.0  0.90882  0.72788  0.72426  1.0000
  C   C2580     1.0  0.83619  0.53382  0.73783  1.0000
  H   H2051     1.0  0.88530  0.83265  0.70302  1.0000
  H   H2052     1.0  0.87946  0.79766  0.68278  1.0000
  H   H2053     1.0  0.89837  0.74056  0.73235  1.0000
  H   H2054     1.0  0.93319  0.71485  0.67384  1.0000
  H   H2055     1.0  0.94008  0.80090  0.73875  1.0000
  C   C2581     1.0  0.99180  0.57349  0.58691  1.0000
  H   H2056     1.0  0.88468  0.53099  0.66599  1.0000
  H   H2057     1.0  0.99662  0.60948  0.58632  1.0000
  C   C2582     1.0  0.58347  0.96194  0.53593  1.0000
  H   H2058     1.0  0.88253  0.68156  0.54407  1.0000
  H   H2059     1.0  0.75597  0.85103  0.73421  1.0000
  H   H2060     1.0  0.98049  0.72817  0.73574  1.0000
  H   H2061     1.0  0.81506  0.83039  0.54815  1.0000
  C   C2583     1.0  0.85253  0.75657  0.55525  1.0000
  H   H2062     1.0  0.91380  0.70859  0.75501  1.0000
  C   C2584     1.0  0.71818  0.96206  0.72945  1.0000
  C   C2585     1.0  0.88505  0.70991  0.52083  1.0000
  C   C2586     1.0  0.78241  0.83812  0.56245  1.0000
  H   H2063     1.0  0.76602  0.99967  0.56995  1.0000
  H   H2064     1.0  0.92433  0.53533  0.72771  1.0000
  C   C2587     1.0  0.68461  0.99724  0.52270  1.0000
  C   C2588     1.0  0.66526  0.90118  0.69728  1.0000
  C   C2589     1.0  0.96610  0.60115  0.56999  1.0000
  C   C2590     1.0  0.65045  0.96580  0.74180  1.0000
  C   C2591     1.0  0.86933  0.75080  0.57064  1.0000
  C   C2592     1.0  0.55605  0.00978  0.65986  1.0000
  C   C2593     1.0  0.86301  0.76082  0.66082  1.0000
  H   H2065     1.0  0.86683  0.72743  0.70809  1.0000
  H   H2066     1.0  0.95799  0.92704  0.74718  1.0000
  P   P86       1.0  0.81603  0.78233  0.53913  1.0000
  C   C2594     1.0  0.68876  0.89977  0.69667  1.0000
  C   C2595     1.0  0.66582  0.91350  0.73587  1.0000
  C   C2596     1.0  0.84015  0.78741  0.57858  1.0000
  C   C2597     1.0  0.75726  0.80694  0.56745  1.0000
  S   S353      1.0  0.51837  0.90599  0.72673  1.0000
  C   C2598     1.0  0.73348  0.95328  0.74561  1.0000
  H   H2067     1.0  0.57684  0.90545  0.53578  1.0000
  C   C2599     1.0  0.93635  0.69513  0.70411  1.0000
  C   C2600     1.0  0.91596  0.73445  0.52712  1.0000
  H   H2068     1.0  0.98095  0.78135  0.67054  1.0000
  C   C2601     1.0  0.60053  0.87681  0.75577  1.0000
  C   C2602     1.0  0.66257  0.98990  0.52599  1.0000
  C   C2603     1.0  0.85930  0.78858  0.75501  1.0000
  H   H2069     1.0  0.74096  0.80054  0.57253  1.0000
  H   H2070     1.0  0.68961  0.00828  0.59135  1.0000
  C   C2604     1.0  0.88254  0.53825  0.70128  1.0000
  C   C2605     1.0  0.64758  0.95248  0.76136  1.0000
  H   H2071     1.0  0.83275  0.76618  0.64177  1.0000
  C   C2606     1.0  0.84023  0.75797  0.65638  1.0000
  C   C2607     1.0  0.65384  0.90828  0.71666  1.0000
  H   H2072     1.0  0.88074  0.73670  0.56747  1.0000
  C   C2608     1.0  0.83772  0.77489  0.55913  1.0000
  H   H2073     1.0  0.65469  0.95830  0.72585  1.0000
  C   C2609     1.0  0.76151  0.82979  0.56929  1.0000
  C   C2610     1.0  0.01004  0.59813  0.63355  1.0000
  S   S354      1.0  0.97454  0.84214  0.75493  1.0000
  H   H2074     1.0  0.82679  0.72269  0.70016  1.0000
  C   C2611     1.0  0.93118  0.69338  0.72705  1.0000
  H   H2075     1.0  0.57321  0.98623  0.68232  1.0000
  C   C2612     1.0  0.80270  0.75736  0.52980  1.0000
  C   C2613     1.0  0.98593  0.59594  0.58156  1.0000
  H   H2076     1.0  0.71911  0.90471  0.71493  1.0000
  H   H2077     1.0  0.93636  0.58819  0.55536  1.0000
  C   C2614     1.0  0.57008  0.98043  0.62596  1.0000
  C   C2615     1.0  0.62163  0.88647  0.75776  1.0000
  H   H2078     1.0  0.55428  0.00427  0.60309  1.0000
  C   C2616     1.0  0.99455  0.53701  0.62916  1.0000
  H   H2079     1.0  0.94728  0.68260  0.69628  1.0000
  H   H2080     1.0  0.53193  0.98042  0.68861  1.0000
  H   H2081     1.0  0.54956  0.87562  0.70271  1.0000
  C   C2617     1.0  0.83688  0.73349  0.68928  1.0000
  H   H2082     1.0  0.88129  0.52072  0.70642  1.0000
  C   C2618     1.0  0.74810  0.85504  0.75021  1.0000
  Fe  Fe175     1.0  0.63395  0.00114  0.64861  1.0000
  C   C2619     1.0  0.88629  0.58323  0.68735  1.0000
  H   H2083     1.0  0.69294  0.00425  0.53678  1.0000
  C   C2620     1.0  0.87162  0.76335  0.58990  1.0000
  H   H2084     1.0  0.69755  0.89507  0.68132  1.0000
  C   C2621     1.0  0.77385  0.79240  0.55866  1.0000
  C   C2622     1.0  0.85968  0.73627  0.69374  1.0000
  H   H2085     1.0  0.92523  0.74936  0.52258  1.0000
  Fe  Fe176     1.0  0.99856  0.66823  0.60532  1.0000
  C   C2623     1.0  0.92048  0.52334  0.74115  1.0000
  C   C2624     1.0  0.89694  0.72917  0.51467  1.0000
  H   H2086     1.0  0.88833  0.60057  0.68187  1.0000
  C   C2625     1.0  0.79483  0.80068  0.55156  1.0000
  C   C2626     1.0  0.88429  0.57762  0.71024  1.0000
  H   H2087     1.0  0.63563  0.90992  0.71643  1.0000
  H   H2088     1.0  0.80243  0.52362  0.73108  1.0000
  C   C2627     1.0  0.91750  0.70980  0.73715  1.0000
  H   H2089     1.0  0.58968  0.97483  0.54657  1.0000
  C   C2628     1.0  0.88241  0.55505  0.71740  1.0000
  H   H2090     1.0  0.85911  0.79157  0.60864  1.0000
  H   H2091     1.0  0.91546  0.83434  0.73108  1.0000
  C   C2629     1.0  0.64841  0.98922  0.74284  1.0000
  C   C2630     1.0  0.83708  0.78140  0.75471  1.0000
  C   C2631     1.0  0.82716  0.74430  0.67060  1.0000
  H   H2092     1.0  0.93805  0.67942  0.73698  1.0000
  C   C2632     1.0  0.74931  0.00097  0.53811  1.0000
  H   H2093     1.0  0.97980  0.54761  0.62607  1.0000
  H   H2094     1.0  0.65582  0.89750  0.68245  1.0000
  C   C2633     1.0  0.88432  0.54397  0.67840  1.0000
  C   C2634     1.0  0.68946  0.91181  0.73518  1.0000
  S   S355      1.0  0.98037  0.77245  0.75359  1.0000
  H   H2095     1.0  0.88481  0.75899  0.60162  1.0000
  H   H2096     1.0  0.78561  0.85588  0.56369  1.0000
  C   C2635     1.0  0.70085  0.90514  0.71559  1.0000
  H   H2097     1.0  0.98233  0.53885  0.58337  1.0000
  H   H2098     1.0  0.74851  0.84109  0.57580  1.0000
  H   H2099     1.0  0.77010  0.77482  0.55712  1.0000
  H   H2100     1.0  0.71017  0.95109  0.71806  1.0000
  C   C2636     1.0  0.85148  0.53946  0.75437  1.0000
  P   P87       1.0  0.87996  0.54742  0.74693  1.0000
  H   H2101     1.0  0.00359  0.62230  0.65925  1.0000
  C   C2637     1.0  0.57533  0.97540  0.64832  1.0000
  C   C2638     1.0  0.85709  0.78167  0.59385  1.0000
  C   C2639     1.0  0.97791  0.55633  0.57992  1.0000
  H   H2102     1.0  0.85130  0.74687  0.54016  1.0000
  H   H2103     1.0  0.86663  0.79695  0.74035  1.0000
  C   C2640     1.0  0.74001  0.99062  0.75840  1.0000
  H   H2104     1.0  0.94691  0.54834  0.56403  1.0000
  H   H2105     1.0  0.88452  0.59096  0.72219  1.0000
  H   H2106     1.0  0.51658  0.64965  0.76116  1.0000
  H   H2107     1.0  0.75589  0.98461  0.53358  1.0000
  H   H2108     1.0  0.96147  0.61852  0.56611  1.0000
  C   C2641     1.0  0.51972  0.99135  0.69676  1.0000
  H   H2109     1.0  0.73702  0.93540  0.74661  1.0000
  C   C2642     1.0  0.60342  0.92298  0.76230  1.0000
  C   C2643     1.0  0.55032  0.63873  0.75260  1.0000
  H   H2110     1.0  0.99295  0.59211  0.63438  1.0000
  H   H2111     1.0  0.97610  0.51443  0.65108  1.0000
  C   C2644     1.0  0.79147  0.71866  0.53615  1.0000
  H   H2112     1.0  0.81085  0.73680  0.55929  1.0000
  H   H2113     1.0  0.00851  0.62990  0.54443  1.0000
  C   C2645     1.0  0.57321  0.64358  0.75318  1.0000
  H   H2114     1.0  0.82722  0.78402  0.73969  1.0000
  H   H2115     1.0  0.65440  0.99112  0.54235  1.0000
  H   H2116     1.0  0.80956  0.74193  0.66703  1.0000
  C   C2646     1.0  0.74461  0.96747  0.76018  1.0000
  C   C2647     1.0  0.57617  0.92278  0.52974  1.0000
  C   C2648     1.0  0.78008  0.71943  0.51580  1.0000
  C   C2649     1.0  0.80251  0.73763  0.54329  1.0000
  H   H2117     1.0  0.72833  0.95741  0.51899  1.0000
  C   C2650     1.0  0.99243  0.51828  0.64361  1.0000
  H   H2118     1.0  0.58563  0.63214  0.74590  1.0000
  C   C2651     1.0  0.55792  0.00016  0.62046  1.0000
  H   H2119     1.0  0.79179  0.70333  0.54634  1.0000
  C   C2652     1.0  0.72549  0.86210  0.75114  1.0000
  H   H2120     1.0  0.56455  0.88286  0.75489  1.0000
  C   C2653     1.0  0.58092  0.89020  0.75702  1.0000
  C   C2654     1.0  0.81404  0.52845  0.74381  1.0000
  C   C2655     1.0  0.62327  0.90965  0.76108  1.0000
  C   C2656     1.0  0.89992  0.52481  0.75317  1.0000
  H   H2121     1.0  0.54499  0.62352  0.74486  1.0000
  H   H2122     1.0  0.86192  0.78151  0.51848  1.0000
  C   C2657     1.0  0.52149  0.90274  0.51679  1.0000
  P   P88       1.0  0.65070  0.92229  0.76093  1.0000
  H   H2123     1.0  0.85330  0.58629  0.76208  1.0000
  C   C2658     1.0  0.53429  0.65352  0.76191  1.0000
  C   C2659     1.0  0.57568  0.96757  0.51445  1.0000
  H   H2124     1.0  0.59781  0.66712  0.76334  1.0000
  C   C2660     1.0  0.64374  0.99942  0.76330  1.0000
  C   C2661     1.0  0.88685  0.57123  0.76349  1.0000
  C   C2662     1.0  0.58007  0.66328  0.76301  1.0000
  H   H2125     1.0  0.55076  0.70792  0.85846  1.0000
  S   S356      1.0  0.54035  0.70622  0.90758  1.0000
  Fe  Fe177     1.0  0.67930  0.63741  0.99565  1.0000
  S   S357      1.0  0.66537  0.66571  0.97383  1.0000
  Fe  Fe178     1.0  0.69139  0.60805  0.95484  1.0000
  S   S358      1.0  0.67831  0.63436  0.93042  1.0000
  S   S359      1.0  0.70185  0.57177  0.94671  1.0000
  Fe  Fe179     1.0  0.69612  0.65929  0.95177  1.0000
  S   S360      1.0  0.71492  0.68857  0.93465  1.0000
  Fe  Fe180     1.0  0.64895  0.63880  0.95449  1.0000
  S   S361      1.0  0.61189  0.63467  0.94646  1.0000
  S   S362      1.0  0.71112  0.63248  0.97476  1.0000
  S   S363      1.0  0.66101  0.61097  0.97788  1.0000
  C   C2663     1.0  0.93561  0.99672  0.85717  1.0000
  S   S364      1.0  0.78188  0.98259  0.83912  1.0000
  Fe  Fe181     1.0  0.84060  0.96325  0.81549  1.0000
  S   S365      1.0  0.81185  0.93966  0.81954  1.0000
  S   S366      1.0  0.87739  0.95516  0.80752  1.0000
  Fe  Fe182     1.0  0.78986  0.96805  0.80504  1.0000
  H   H2126     1.0  0.99198  0.85734  0.87793  1.0000
  Fe  Fe183     1.0  0.80559  0.95566  0.85280  1.0000
  S   S367      1.0  0.79917  0.93759  0.88625  1.0000
  S   S368      1.0  0.81964  0.99061  0.79869  1.0000
  S   S369      1.0  0.83597  0.97720  0.84993  1.0000
  Fe  Fe184     1.0  0.97064  0.82441  0.81820  1.0000
  S   S370      1.0  0.94713  0.81175  0.79280  1.0000
  S   S371      1.0  0.97135  0.81660  0.85568  1.0000
  Fe  Fe185     1.0  0.99655  0.85244  0.78355  1.0000
  H   H2127     1.0  0.90408  0.74136  0.00177  1.0000
  H   H2128     1.0  0.96297  0.84463  0.90102  1.0000
  C   C2664     1.0  0.91352  0.96317  0.85783  1.0000
  S   S372      1.0  0.96730  0.86041  0.80657  1.0000
  S   S373      1.0  0.00137  0.81694  0.79675  1.0000
  Fe  Fe186     1.0  0.82077  0.77119  0.95464  1.0000
  S   S374      1.0  0.81110  0.80768  0.95977  1.0000
  S   S375      1.0  0.80081  0.74099  0.96816  1.0000
  Fe  Fe187     1.0  0.86551  0.78382  0.93142  1.0000
  S   S376      1.0  0.85887  0.82072  0.93434  1.0000
  S   S377      1.0  0.89766  0.76845  0.91701  1.0000
  Fe  Fe188     1.0  0.84723  0.81240  0.96978  1.0000
  Fe  Fe189     1.0  0.82385  0.81300  0.92433  1.0000
  S   S378      1.0  0.80688  0.83170  0.89561  1.0000
  S   S379      1.0  0.85603  0.77565  0.96748  1.0000
  S   S380      1.0  0.83132  0.77636  0.91854  1.0000
  C   C2665     1.0  0.94923  0.80255  0.86988  1.0000
  C   C2666     1.0  0.95463  0.78303  0.88237  1.0000
  C   C2667     1.0  0.93835  0.77261  0.89607  1.0000
  C   C2668     1.0  0.91658  0.78195  0.89815  1.0000
  C   C2669     1.0  0.91091  0.80150  0.88560  1.0000
  C   C2670     1.0  0.92726  0.81177  0.87138  1.0000
  H   H2129     1.0  0.97159  0.77601  0.88161  1.0000
  H   H2130     1.0  0.94285  0.75751  0.90563  1.0000
  H   H2131     1.0  0.89418  0.80894  0.88722  1.0000
  H   H2132     1.0  0.92319  0.82729  0.86240  1.0000
  C   C2671     1.0  0.88637  0.92908  0.79677  1.0000
  C   C2672     1.0  0.90856  0.92148  0.80046  1.0000
  C   C2673     1.0  0.91627  0.90058  0.79260  1.0000
  C   C2674     1.0  0.55554  0.73578  0.83518  1.0000
  H   H2133     1.0  0.64610  0.88709  0.79683  1.0000
  H   H2134     1.0  0.93332  0.79297  0.96013  1.0000
  H   H2135     1.0  0.91970  0.93168  0.80973  1.0000
  H   H2136     1.0  0.93338  0.89494  0.79559  1.0000
  H   H2137     1.0  0.00670  0.80955  0.90414  1.0000
  C   C2675     1.0  0.88941  0.89951  0.85277  1.0000
  C   C2676     1.0  0.80408  0.90831  0.88902  1.0000
  C   C2677     1.0  0.80159  0.89771  0.91022  1.0000
  C   C2678     1.0  0.80364  0.87419  0.91263  1.0000
  C   C2679     1.0  0.80806  0.86119  0.89380  1.0000
  C   C2680     1.0  0.81117  0.87181  0.87272  1.0000
  C   C2681     1.0  0.80936  0.89531  0.87035  1.0000
  H   H2138     1.0  0.79753  0.90769  0.92473  1.0000
  H   H2139     1.0  0.80081  0.86606  0.92885  1.0000
  H   H2140     1.0  0.81461  0.86184  0.85810  1.0000
  H   H2141     1.0  0.81131  0.90332  0.85400  1.0000
  C   C2682     1.0  0.87976  0.89501  0.77663  1.0000
  H   H2142     1.0  0.88902  0.79167  0.77450  1.0000
  S   S381      1.0  0.74272  0.53527  0.85390  1.0000
  C   C2683     1.0  0.87538  0.60615  0.78114  1.0000
  H   H2143     1.0  0.67959  0.53027  0.96721  1.0000
  C   C2684     1.0  0.73944  0.70226  0.94382  1.0000
  C   C2685     1.0  0.74984  0.69642  0.96412  1.0000
  C   C2686     1.0  0.76856  0.70843  0.97118  1.0000
  C   C2687     1.0  0.77739  0.72623  0.95799  1.0000
  C   C2688     1.0  0.76725  0.73181  0.93748  1.0000
  C   C2689     1.0  0.74832  0.72000  0.93055  1.0000
  H   H2144     1.0  0.74328  0.68285  0.97453  1.0000
  H   H2145     1.0  0.77624  0.70389  0.98704  1.0000
  H   H2146     1.0  0.77395  0.74522  0.92698  1.0000
  H   H2147     1.0  0.74049  0.72463  0.91480  1.0000
  C   C2690     1.0  0.56010  0.68662  0.91919  1.0000
  C   C2691     1.0  0.55338  0.66569  0.92770  1.0000
  C   C2692     1.0  0.56945  0.65022  0.93639  1.0000
  C   C2693     1.0  0.59239  0.65544  0.93664  1.0000
  C   C2694     1.0  0.59909  0.67658  0.92864  1.0000
  C   C2695     1.0  0.58297  0.69212  0.91998  1.0000
  H   H2148     1.0  0.53581  0.66138  0.92753  1.0000
  H   H2149     1.0  0.56409  0.63401  0.94280  1.0000
  H   H2150     1.0  0.61669  0.68083  0.92892  1.0000
  H   H2151     1.0  0.58827  0.70836  0.91361  1.0000
  C   C2696     1.0  0.73111  0.54496  0.87980  1.0000
  C   C2697     1.0  0.72667  0.53038  0.89807  1.0000
  C   C2698     1.0  0.71821  0.53896  0.91851  1.0000
  C   C2699     1.0  0.71327  0.56205  0.92074  1.0000
  C   C2700     1.0  0.71745  0.57660  0.90239  1.0000
  C   C2701     1.0  0.72659  0.56812  0.88216  1.0000
  H   H2152     1.0  0.91436  0.88488  0.87437  1.0000
  H   H2153     1.0  0.71575  0.52766  0.93279  1.0000
  H   H2154     1.0  0.71397  0.59442  0.90387  1.0000
  H   H2155     1.0  0.73012  0.57956  0.86821  1.0000
  C   C2702     1.0  0.66510  0.52112  0.96192  1.0000
  H   H2156     1.0  0.89719  0.89282  0.83769  1.0000
  C   C2703     1.0  0.86953  0.91241  0.85125  1.0000
  C   C2704     1.0  0.89906  0.89503  0.87370  1.0000
  C   C2705     1.0  0.54358  0.62458  0.86206  1.0000
  C   C2706     1.0  0.62251  0.57557  0.85602  1.0000
  H   H2157     1.0  0.84428  0.93144  0.86932  1.0000
  H   H2158     1.0  0.71926  0.76826  0.96375  1.0000
  C   C2707     1.0  0.86912  0.91690  0.89150  1.0000
  H   H2159     1.0  0.51639  0.77581  0.81500  1.0000
  C   C2708     1.0  0.96219  0.93072  0.76430  1.0000
  C   C2709     1.0  0.90185  0.88722  0.78071  1.0000
  C   C2710     1.0  0.64730  0.51680  0.97696  1.0000
  H   H2160     1.0  0.81009  0.76613  0.77386  1.0000
  H   H2161     1.0  0.94590  0.81291  0.92179  1.0000
  H   H2162     1.0  0.87046  0.91833  0.99528  1.0000
  C   C2711     1.0  0.99740  0.83092  0.93168  1.0000
  C   C2712     1.0  0.98088  0.91753  0.85293  1.0000
  C   C2713     1.0  0.88889  0.90359  0.89329  1.0000
  C   C2714     1.0  0.85955  0.92124  0.87057  1.0000
  H   H2163     1.0  0.90911  0.81813  0.94145  1.0000
  C   C2715     1.0  0.87202  0.78538  0.77439  1.0000
  H   H2164     1.0  0.58282  0.55475  0.94194  1.0000
  H   H2165     1.0  0.86101  0.92408  0.90619  1.0000
  H   H2166     1.0  0.63753  0.59889  0.83188  1.0000
  H   H2167     1.0  0.95185  0.90292  0.83787  1.0000
  H   H2168     1.0  0.70118  0.58077  0.99697  1.0000
  H   H2169     1.0  0.69043  0.63022  0.86666  1.0000
  H   H2170     1.0  0.90748  0.76152  0.96499  1.0000
  C   C2716     1.0  0.85354  0.71284  0.84512  1.0000
  C   C2717     1.0  0.66705  0.91457  0.78539  1.0000
  H   H2171     1.0  0.90562  0.94523  0.90295  1.0000
  C   C2718     1.0  0.91712  0.83232  0.93317  1.0000
  H   H2172     1.0  0.79697  0.81975  0.80246  1.0000
  C   C2719     1.0  0.82977  0.83385  0.79839  1.0000
  C   C2720     1.0  0.84259  0.85309  0.79969  1.0000
  C   C2721     1.0  0.83238  0.87327  0.80632  1.0000
  C   C2722     1.0  0.80929  0.87441  0.81117  1.0000
  C   C2723     1.0  0.79627  0.85514  0.81007  1.0000
  C   C2724     1.0  0.80668  0.83482  0.80354  1.0000
  P   P89       1.0  0.76635  0.85638  0.81630  1.0000
  C   C2725     1.0  0.75905  0.83132  0.83240  1.0000
  C   C2726     1.0  0.75961  0.88085  0.83269  1.0000
  C   C2727     1.0  0.75698  0.87907  0.85616  1.0000
  C   C2728     1.0  0.75297  0.89832  0.86872  1.0000
  C   C2729     1.0  0.75178  0.91946  0.85802  1.0000
  C   C2730     1.0  0.75421  0.92135  0.83470  1.0000
  C   C2731     1.0  0.75791  0.90215  0.82203  1.0000
  C   C2732     1.0  0.77426  0.82204  0.84806  1.0000
  C   C2733     1.0  0.76873  0.80296  0.86098  1.0000
  C   C2734     1.0  0.74795  0.79295  0.85839  1.0000
  C   C2735     1.0  0.73271  0.80201  0.84279  1.0000
  C   C2736     1.0  0.73820  0.82113  0.82983  1.0000
  H   H2173     1.0  0.71264  0.93232  0.81342  1.0000
  H   H2174     1.0  0.85491  0.92171  0.78159  1.0000
  C   C2737     1.0  0.69188  0.90468  0.82428  1.0000
  H   H2175     1.0  0.64796  0.52261  0.99403  1.0000
  C   C2738     1.0  0.91559  0.75513  0.99970  1.0000
  C   C2739     1.0  0.98164  0.92050  0.79861  1.0000
  H   H2176     1.0  0.93079  0.59401  0.79030  1.0000
  H   H2177     1.0  0.77815  0.84800  0.76870  1.0000
  H   H2178     1.0  0.84232  0.88814  0.80771  1.0000
  H   H2179     1.0  0.80185  0.89032  0.81599  1.0000
  C   C2740     1.0  0.98461  0.81377  0.01263  1.0000
  H   H2180     1.0  0.75888  0.86305  0.86500  1.0000
  H   H2181     1.0  0.75199  0.89702  0.88689  1.0000
  H   H2182     1.0  0.74983  0.93445  0.86789  1.0000
  H   H2183     1.0  0.75385  0.93782  0.82646  1.0000
  H   H2184     1.0  0.76028  0.90413  0.80398  1.0000
  H   H2185     1.0  0.79034  0.82970  0.85055  1.0000
  H   H2186     1.0  0.78056  0.79614  0.87321  1.0000
  H   H2187     1.0  0.74367  0.77823  0.86854  1.0000
  H   H2188     1.0  0.71658  0.79423  0.84082  1.0000
  H   H2189     1.0  0.72610  0.82787  0.81796  1.0000
  H   H2190     1.0  0.70686  0.70615  0.99911  1.0000
  H   H2191     1.0  0.94262  0.74206  0.77189  1.0000
  C   C2741     1.0  0.91975  0.94138  0.91372  1.0000
  C   C2742     1.0  0.66074  0.89687  0.80005  1.0000
  C   C2743     1.0  0.87196  0.91581  0.78479  1.0000
  C   C2744     1.0  0.86277  0.77446  0.79350  1.0000
  C   C2745     1.0  0.85594  0.71528  0.86823  1.0000
  C   C2746     1.0  0.86574  0.73450  0.87626  1.0000
  C   C2747     1.0  0.87281  0.75146  0.86127  1.0000
  H   H2192     1.0  0.60404  0.94097  0.76407  1.0000
  H   H2193     1.0  0.85047  0.70219  0.87995  1.0000
  H   H2194     1.0  0.86804  0.73626  0.89417  1.0000
  H   H2195     1.0  0.88082  0.76595  0.86790  1.0000
  C   C2748     1.0  0.76110  0.80060  0.93018  1.0000
  C   C2749     1.0  0.75583  0.82320  0.92542  1.0000
  H   H2196     1.0  0.76889  0.79027  0.91736  1.0000
  H   H2197     1.0  0.75932  0.83030  0.90881  1.0000
  C   C2750     1.0  0.58559  0.66310  0.99412  1.0000
  C   C2751     1.0  0.91491  0.98633  0.86029  1.0000
  C   C2752     1.0  0.86060  0.72980  0.83006  1.0000
  C   C2753     1.0  0.67450  0.54606  0.87239  1.0000
  H   H2198     1.0  0.69086  0.94135  0.77969  1.0000
  C   C2754     1.0  0.53401  0.70950  0.80390  1.0000
  P   P90       1.0  0.74452  0.79335  0.99684  1.0000
  H   H2199     1.0  0.93102  0.93257  0.85026  1.0000
  H   H2200     1.0  0.85914  0.72741  0.81220  1.0000
  P   P91       1.0  0.87902  0.77143  0.81875  1.0000
  P   P92       1.0  0.97774  0.94445  0.83828  1.0000
  C   C2755     1.0  0.70396  0.81650  0.00409  1.0000
  H   H2201     1.0  0.73679  0.83877  0.97695  1.0000
  P   P93       1.0  0.96409  0.81435  0.99062  1.0000
  H   H2202     1.0  0.53955  0.73765  0.78070  1.0000
  C   C2756     1.0  0.72794  0.86603  0.79136  1.0000
  C   C2757     1.0  0.98841  0.87431  0.87178  1.0000
  C   C2758     1.0  0.91466  0.75409  0.79239  1.0000
  C   C2759     1.0  0.98689  0.83214  0.95287  1.0000
  H   H2203     1.0  0.58022  0.61749  0.90497  1.0000
  H   H2204     1.0  0.95975  0.76558  0.83672  1.0000
  C   C2760     1.0  0.96577  0.90028  0.84919  1.0000
  H   H2205     1.0  0.97026  0.99273  0.84729  1.0000
  H   H2206     1.0  0.97574  0.77658  0.96119  1.0000
  H   H2207     1.0  0.91659  0.82829  0.98288  1.0000
  H   H2208     1.0  0.85715  0.87883  0.92457  1.0000
  C   C2761     1.0  0.84832  0.89721  0.97757  1.0000
  H   H2209     1.0  0.70310  0.73057  0.96512  1.0000
  C   C2762     1.0  0.86964  0.74957  0.83808  1.0000
  H   H2210     1.0  0.60345  0.65892  0.99269  1.0000
  H   H2211     1.0  0.76235  0.77433  0.95556  1.0000
  C   C2763     1.0  0.93684  0.86860  0.91032  1.0000
  C   C2764     1.0  0.55248  0.74396  0.81320  1.0000
  C   C2765     1.0  0.86763  0.90986  0.97974  1.0000
  H   H2212     1.0  0.89062  0.85516  0.94223  1.0000
  C   C2766     1.0  0.75729  0.79158  0.95179  1.0000
  C   C2767     1.0  0.76064  0.85331  0.76987  1.0000
  H   H2213     1.0  0.86183  0.91575  0.83513  1.0000
  C   C2768     1.0  0.93778  0.82938  0.92205  1.0000
  C   C2769     1.0  0.74692  0.83681  0.94231  1.0000
  C   C2770     1.0  0.68581  0.92732  0.79052  1.0000
  C   C2771     1.0  0.90639  0.85342  0.93311  1.0000
  C   C2772     1.0  0.88348  0.91117  0.96210  1.0000
  H   H2214     1.0  0.89846  0.92075  0.96430  1.0000
  C   C2773     1.0  0.90877  0.57372  0.77138  1.0000
  C   C2774     1.0  0.63872  0.56525  0.81981  1.0000
  C   C2775     1.0  0.85725  0.82500  0.85573  1.0000
  C   C2776     1.0  0.85958  0.80350  0.84704  1.0000
  H   H2215     1.0  0.84436  0.82851  0.86827  1.0000
  H   H2216     1.0  0.84792  0.79076  0.85272  1.0000
  H   H2217     1.0  0.91966  0.77465  0.84485  1.0000
  C   C2777     1.0  0.94712  0.76220  0.82443  1.0000
  C   C2778     1.0  0.84454  0.88632  0.95756  1.0000
  H   H2218     1.0  0.82971  0.87627  0.95603  1.0000
  C   C2779     1.0  0.95372  0.96061  0.84902  1.0000
  H   H2219     1.0  0.84633  0.69771  0.83893  1.0000
  H   H2220     1.0  0.74354  0.85449  0.93873  1.0000
  C   C2780     1.0  0.88806  0.83763  0.83192  1.0000
  H   H2221     1.0  0.86926  0.85866  0.85498  1.0000
  C   C2781     1.0  0.87679  0.79867  0.83128  1.0000
  H   H2222     1.0  0.58157  0.57225  0.90398  1.0000
  H   H2223     1.0  0.57765  0.63273  0.01256  1.0000
  C   C2782     1.0  0.92445  0.76762  0.82886  1.0000
  C   C2783     1.0  0.88008  0.89976  0.94216  1.0000
  C   C2784     1.0  0.86019  0.88777  0.93981  1.0000
  C   C2785     1.0  0.71545  0.86772  0.77169  1.0000
  C   C2786     1.0  0.74782  0.80496  0.96871  1.0000
  H   H2224     1.0  0.66375  0.59930  0.86555  1.0000
  H   H2225     1.0  0.00365  0.84599  0.92340  1.0000
  H   H2226     1.0  0.52895  0.77401  0.90823  1.0000
  C   C2787     1.0  0.63472  0.61951  0.87587  1.0000
  C   C2788     1.0  0.95819  0.95435  0.79668  1.0000
  C   C2789     1.0  0.90814  0.76412  0.81269  1.0000
  H   H2227     1.0  0.99656  0.97179  0.87338  1.0000
  H   H2228     1.0  0.83638  0.89560  0.99147  1.0000
  C   C2790     1.0  0.00395  0.95918  0.84019  1.0000
  P   P94       1.0  0.90166  0.89884  0.92036  1.0000
  C   C2791     1.0  0.96031  0.86039  0.99810  1.0000
  H   H2229     1.0  0.89668  0.86479  0.98483  1.0000
  C   C2792     1.0  0.73315  0.76545  0.99720  1.0000
  H   H2230     1.0  0.97010  0.92918  0.95320  1.0000
  H   H2231     1.0  0.89884  0.85091  0.82561  1.0000
  C   C2793     1.0  0.91604  0.87174  0.92156  1.0000
  H   H2232     1.0  0.89727  0.95524  0.85933  1.0000
  C   C2794     1.0  0.87147  0.84204  0.84827  1.0000
  H   H2233     1.0  0.90313  0.81305  0.81038  1.0000
  C   C2795     1.0  0.93203  0.78452  0.97635  1.0000
  C   C2796     1.0  0.89061  0.81605  0.82337  1.0000
  H   H2234     1.0  0.85569  0.54359  0.79009  1.0000
  H   H2235     1.0  0.94201  0.89998  0.94788  1.0000
  C   C2797     1.0  0.94501  0.79123  0.99437  1.0000
  C   C2798     1.0  0.55394  0.68795  0.98504  1.0000
  C   C2799     1.0  0.95307  0.94986  0.77444  1.0000
  H   H2236     1.0  0.71997  0.87040  0.80718  1.0000
  H   H2237     1.0  0.69271  0.54700  0.84072  1.0000
  Fe  Fe190     1.0  0.97736  0.80703  0.76989  1.0000
  H   H2238     1.0  0.58862  0.60054  0.83526  1.0000
  H   H2239     1.0  0.94465  0.88243  0.90125  1.0000
  C   C2800     1.0  0.62173  0.53686  0.84399  1.0000
  C   C2801     1.0  0.77243  0.79417  0.00829  1.0000
  H   H2240     1.0  0.96624  0.96622  0.93337  1.0000
  C   C2802     1.0  0.59707  0.57246  0.91324  1.0000
  H   H2241     1.0  0.60775  0.54806  0.87520  1.0000
  H   H2242     1.0  0.97127  0.74957  0.80009  1.0000
  H   H2243     1.0  0.67791  0.56330  0.87610  1.0000
  H   H2244     1.0  0.55029  0.61540  0.82785  1.0000
  C   C2803     1.0  0.97220  0.93947  0.80909  1.0000
  H   H2245     1.0  0.61805  0.55498  0.96371  1.0000
  H   H2246     1.0  0.63725  0.67473  0.88929  1.0000
  Fe  Fe191     1.0  0.94575  0.84735  0.77959  1.0000
  H   H2247     1.0  0.91666  0.89838  0.99685  1.0000
  H   H2248     1.0  0.90239  0.75040  0.77993  1.0000
  H   H2249     1.0  0.54797  0.70338  0.97703  1.0000
  H   H2250     1.0  0.56346  0.74603  0.84739  1.0000
  C   C2804     1.0  0.97660  0.91617  0.77632  1.0000
  C   C2805     1.0  0.54786  0.65330  0.00628  1.0000
  H   H2251     1.0  0.83223  0.76085  0.80831  1.0000
  C   C2806     1.0  0.61760  0.56234  0.94692  1.0000
  H   H2252     1.0  0.55801  0.76063  0.80834  1.0000
  C   C2807     1.0  0.82748  0.77126  0.77392  1.0000
  C   C2808     1.0  0.57860  0.60723  0.84899  1.0000
  C   C2809     1.0  0.55688  0.61574  0.84466  1.0000
  C   C2810     1.0  0.93284  0.95033  0.85255  1.0000
  C   C2811     1.0  0.54834  0.71432  0.84142  1.0000
  H   H2253     1.0  0.65118  0.59059  0.90983  1.0000
  H   H2254     1.0  0.61035  0.64415  0.88834  1.0000
  C   C2812     1.0  0.93738  0.74888  0.78791  1.0000
  C   C2813     1.0  0.95610  0.93253  0.94208  1.0000
  C   C2814     1.0  0.64282  0.65840  0.88344  1.0000
  C   C2815     1.0  0.61646  0.55312  0.85990  1.0000
  H   H2255     1.0  0.65224  0.57227  0.94711  1.0000
  C   C2816     1.0  0.54180  0.73090  0.79758  1.0000
  C   C2817     1.0  0.63682  0.57226  0.93765  1.0000
  C   C2818     1.0  0.64035  0.98624  0.78272  1.0000
  C   C2819     1.0  0.62755  0.64094  0.88280  1.0000
  C   C2820     1.0  0.93575  0.95782  0.91677  1.0000
  C   C2821     1.0  0.75058  0.85865  0.79065  1.0000
  C   C2822     1.0  0.63612  0.58270  0.91638  1.0000
  H   H2256     1.0  0.58842  0.69428  0.97536  1.0000
  H   H2257     1.0  0.95067  0.96914  0.80422  1.0000
  C   C2823     1.0  0.94901  0.84108  0.99188  1.0000
  H   H2258     1.0  0.98525  0.84827  0.96069  1.0000
  C   C2824     1.0  0.59776  0.56231  0.93467  1.0000
  C   C2825     1.0  0.55204  0.62507  0.88374  1.0000
  C   C2826     1.0  0.74301  0.82779  0.96393  1.0000
  C   C2827     1.0  0.58711  0.60734  0.87086  1.0000
  C   C2828     1.0  0.61616  0.58307  0.90406  1.0000
  H   H2259     1.0  0.86243  0.61868  0.78494  1.0000
  C   C2829     1.0  0.67876  0.51451  0.84784  1.0000
  P   P95       1.0  0.61526  0.59657  0.87653  1.0000
  C   C2830     1.0  0.66261  0.53275  0.88796  1.0000
  C   C2831     1.0  0.57378  0.61668  0.88812  1.0000
  H   H2260     1.0  0.52668  0.63105  0.85885  1.0000
  C   C2832     1.0  0.97843  0.81272  0.96357  1.0000
  C   C2833     1.0  0.92598  0.84287  0.98709  1.0000
  C   C2834     1.0  0.92199  0.92028  0.92461  1.0000
  C   C2835     1.0  0.91455  0.86364  0.98828  1.0000
  H   H2261     1.0  0.81665  0.53348  0.80039  1.0000
  C   C2836     1.0  0.91742  0.76657  0.97901  1.0000
  C   C2837     1.0  0.96939  0.87887  0.85887  1.0000
  C   C2838     1.0  0.57709  0.68300  0.98426  1.0000
  H   H2262     1.0  0.90114  0.62265  0.79914  1.0000
  H   H2263     1.0  0.67736  0.66801  0.87852  1.0000
  C   C2839     1.0  0.66541  0.65462  0.87735  1.0000
  C   C2840     1.0  0.67276  0.63331  0.87068  1.0000
  C   C2841     1.0  0.65754  0.61580  0.87005  1.0000
  H   H2264     1.0  0.70148  0.90097  0.83930  1.0000
  C   C2842     1.0  0.91386  0.59223  0.78419  1.0000
  C   C2843     1.0  0.94018  0.91602  0.93900  1.0000
  C   C2844     1.0  0.63331  0.58159  0.83562  1.0000
  C   C2845     1.0  0.95483  0.98404  0.85109  1.0000
  C   C2846     1.0  0.82210  0.53386  0.78291  1.0000
  C   C2847     1.0  0.94749  0.84741  0.91042  1.0000
  C   C2848     1.0  0.72123  0.75790  0.97879  1.0000
  C   C2849     1.0  0.67318  0.89194  0.81940  1.0000
  S   S382      1.0  0.85682  0.83701  0.99682  1.0000
  C   C2850     1.0  0.84018  0.76801  0.79335  1.0000
  C   C2851     1.0  0.95361  0.75306  0.80387  1.0000
  C   C2852     1.0  0.84422  0.53943  0.77699  1.0000
  H   H2265     1.0  0.93393  0.97406  0.90825  1.0000
  C   C2853     1.0  0.95394  0.95340  0.93092  1.0000
  C   C2854     1.0  0.99930  0.81038  0.92090  1.0000
  H   H2266     1.0  0.63951  0.95283  0.79698  1.0000
  H   H2267     1.0  0.64746  0.56987  0.80429  1.0000
  C   C2855     1.0  0.53904  0.67291  0.99572  1.0000
  H   H2268     1.0  0.95800  0.86544  0.85552  1.0000
  C   C2856     1.0  0.68280  0.53689  0.85244  1.0000
  H   H2269     1.0  0.65622  0.54033  0.90315  1.0000
  C   C2857     1.0  0.53783  0.70115  0.82579  1.0000
  C   C2858     1.0  0.94870  0.88100  0.99977  1.0000
  C   C2859     1.0  0.71170  0.73665  0.97960  1.0000
  C   C2860     1.0  0.99148  0.79089  0.93169  1.0000
  C   C2861     1.0  0.00325  0.89141  0.87602  1.0000
  H   H2270     1.0  0.69074  0.54233  0.00926  1.0000
  C   C2862     1.0  0.69821  0.92230  0.80976  1.0000
  H   H2271     1.0  0.66815  0.87839  0.83077  1.0000
  C   C2863     1.0  0.99955  0.91293  0.86667  1.0000
  H   H2272     1.0  0.77922  0.75831  0.00692  1.0000
  C   C2864     1.0  0.64208  0.96284  0.78175  1.0000
  H   H2273     1.0  0.01193  0.92550  0.86952  1.0000
  H   H2274     1.0  0.99301  0.77495  0.92335  1.0000
  H   H2275     1.0  0.67848  0.51664  0.92869  1.0000
  H   H2276     1.0  0.56568  0.51647  0.89441  1.0000
  H   H2277     1.0  0.86047  0.85237  0.79559  1.0000
  H   H2278     1.0  0.83780  0.81822  0.79346  1.0000
  C   C2865     1.0  0.57099  0.64830  0.00521  1.0000
  S   S383      1.0  0.76352  0.95517  0.78047  1.0000
  C   C2866     1.0  0.00881  0.97076  0.85973  1.0000
  C   C2867     1.0  0.89717  0.60839  0.78913  1.0000
  C   C2868     1.0  0.98141  0.79196  0.95307  1.0000
  C   C2869     1.0  0.63300  0.54289  0.82402  1.0000
  C   C2870     1.0  0.66427  0.51374  0.93989  1.0000
  H   H2279     1.0  0.54165  0.63197  0.89715  1.0000
  H   H2280     1.0  0.89247  0.99964  0.80075  1.0000
  H   H2281     1.0  0.63670  0.99415  0.79859  1.0000
  Fe  Fe192     1.0  0.81324  0.00310  0.83392  1.0000
  H   H2282     1.0  0.69801  0.87347  0.77237  1.0000
  H   H2283     1.0  0.99287  0.90895  0.80758  1.0000
  C   C2871     1.0  0.00672  0.80568  0.00872  1.0000
  H   H2284     1.0  0.95736  0.89561  0.00531  1.0000
  H   H2285     1.0  0.74831  0.00183  0.76941  1.0000
  C   C2872     1.0  0.92580  0.88259  0.99494  1.0000
  H   H2286     1.0  0.79000  0.52356  0.77093  1.0000
  C   C2873     1.0  0.71381  0.72284  0.99880  1.0000
  H   H2287     1.0  0.86862  0.88494  0.76711  1.0000
  H   H2288     1.0  0.98376  0.90139  0.76839  1.0000
  P   P96       1.0  0.52021  0.69232  0.78394  1.0000
  H   H2289     1.0  0.63746  0.53016  0.81191  1.0000
  H   H2290     1.0  0.01176  0.79911  0.99258  1.0000
  S   S384      1.0  0.91075  0.86061  0.77108  1.0000
  C   C2874     1.0  0.78568  0.77449  0.01100  1.0000
  H   H2291     1.0  0.69987  0.81201  0.98715  1.0000
  H   H2292     1.0  0.89981  0.99627  0.86401  1.0000
  H   H2293     1.0  0.52415  0.63675  0.97321  1.0000
  H   H2294     1.0  0.97803  0.85947  0.00213  1.0000
  H   H2295     1.0  0.53268  0.68449  0.83091  1.0000
  C   C2875     1.0  0.78189  0.81500  0.01252  1.0000
  H   H2296     1.0  0.67209  0.83371  0.00976  1.0000
  H   H2297     1.0  0.77229  0.83047  0.00973  1.0000
  H   H2298     1.0  0.52153  0.64845  0.80781  1.0000
  H   H2299     1.0  0.60364  0.51895  0.91049  1.0000
  H   H2300     1.0  0.56976  0.69335  0.77974  1.0000
  C   C2876     1.0  0.54106  0.67327  0.77199  1.0000
  C   C2877     1.0  0.56408  0.67812  0.77235  1.0000
  C   C2878     1.0  0.87024  0.58770  0.76829  1.0000
  H   H2301     1.0  0.94165  0.96097  0.76519  1.0000
  H   H2302     1.0  0.61737  0.51949  0.84723  1.0000
  H   H2303     1.0  0.51597  0.69747  0.95126  1.0000
  H   H2304     1.0  0.92198  0.56147  0.76772  1.0000
  C   C2879     1.0  0.80701  0.52842  0.76632  1.0000
  C   C2880     1.0  0.72486  0.81005  0.01315  1.0000
